[H]c1nc(OC([H])([H])C([H])([H])N([H])C([H])([H])C([H])([H])C([H])([H])F)c([H])c([H])c1[C@]1([H])c2c(c3c([H])c([H])c([H])c([H])c3n2[H])C([H])([H])[C@@]([H])(C([H])([H])[H])N1C([H])([H])C1(F)C([H])([H])OC1([H])[H]


 36 40  0  0  0  0  0  0  0  0999 V2000
   12.0294   43.2653  131.5223 C   0  0  0  0  0  0  0  0  0  0  0  0
   10.6053   43.5940  131.9691 C   0  0  0  0  0  0  0  0  0  0  0  0
    9.6856   42.9841  130.9238 C   0  0  0  0  0  0  0  0  0  0  0  0
    9.8175   43.7538  129.6806 C   0  0  0  0  0  0  0  0  0  0  0  0
   10.2960   45.0222  129.6969 C   0  0  0  0  0  0  0  0  0  0  0  0
   10.3211   45.5096  128.4469 N   0  0  0  0  0  0  0  0  0  0  0  0
    9.8560   44.5577  127.5991 C   0  0  0  0  0  0  0  0  0  0  0  0
    9.6834   44.5667  126.2308 C   0  0  0  0  0  0  0  0  0  0  0  0
    9.1728   43.4233  125.6139 C   0  0  0  0  0  0  0  0  0  0  0  0
    8.8524   42.3139  126.3778 C   0  0  0  0  0  0  0  0  0  0  0  0
    9.0266   42.3087  127.7472 C   0  0  0  0  0  0  0  0  0  0  0  0
    9.5359   43.4496  128.3608 C   0  0  0  0  0  0  0  0  0  0  0  0
   10.7221   45.7433  130.9617 C   0  0  0  0  0  0  0  0  0  0  0  0
   10.4537   44.9903  132.1049 N   0  0  0  0  0  0  0  0  0  0  0  0
   10.6417   46.4691  128.1260 H   0  0  0  0  0  0  0  0  0  0  0  0
   10.1203   47.0707  130.8566 C   0  0  0  0  0  0  0  0  0  0  0  0
    9.2445   47.5237  131.8081 C   0  0  0  0  0  0  0  0  0  0  0  0
    8.6636   48.7714  131.7561 C   0  0  0  0  0  0  0  0  0  0  0  0
    9.0090   49.5805  130.6691 C   0  0  0  0  0  0  0  0  0  0  0  0
    9.8578   49.1209  129.7623 N   0  0  0  0  0  0  0  0  0  0  0  0
   10.4187   47.9051  129.8194 C   0  0  0  0  0  0  0  0  0  0  0  0
    8.4468   50.8253  130.5868 O   0  0  0  0  0  0  0  0  0  0  0  0
    7.1180   51.1773  130.7346 C   0  0  0  0  0  0  0  0  0  0  0  0
    6.4627   51.4822  129.4157 C   0  0  0  0  0  0  0  0  0  0  0  0
    6.8946   52.7932  128.9230 N   0  0  0  0  0  0  0  0  0  0  0  0
    6.1562   53.5009  129.0291 H   0  0  0  0  0  0  0  0  0  0  0  0
    7.3266   52.6562  127.5668 C   0  0  0  0  0  0  0  0  0  0  0  0
    8.0306   53.8408  126.9996 C   0  0  0  0  0  0  0  0  0  0  0  0
    7.1522   54.6579  126.0733 C   0  0  0  0  0  0  0  0  0  0  0  0
    5.9550   53.9959  125.8534 F   0  0  0  0  0  0  0  0  0  0  0  0
   10.3010   45.5563  133.3657 C   0  0  0  0  0  0  0  0  0  0  0  0
    8.8777   45.7883  133.8334 C   0  0  0  0  0  0  0  0  0  0  0  0
    8.5066   47.0781  134.0104 F   0  0  0  0  0  0  0  0  0  0  0  0
    8.6565   45.0043  135.1349 C   0  0  0  0  0  0  0  0  0  0  0  0
    7.3806   44.7081  134.6765 O   0  0  0  0  0  0  0  0  0  0  0  0
    7.8548   44.8086  133.3730 C   0  0  0  0  0  0  0  0  0  0  0  0
  1  2  1  0  0  0
  2  3  1  0  0  0
  3  4  1  0  0  0
  4  5  2  0  0  0
  5  6  1  0  0  0
  6  7  1  0  0  0
  7  8  2  0  0  0
  8  9  1  0  0  0
  9 10  2  0  0  0
 10 11  1  0  0  0
 11 12  2  0  0  0
  5 13  1  0  0  0
 13 14  1  0  0  0
 14 31  1  0  0  0
 31 32  1  0  0  0
 32 33  1  0  0  0
 32 34  1  0  0  0
 34 35  1  0  0  0
 35 36  1  0  0  0
 13 16  1  0  0  0
 16 17  2  0  0  0
 17 18  1  0  0  0
 18 19  2  0  0  0
 19 22  1  0  0  0
 22 23  1  0  0  0
 23 24  1  0  0  0
 24 25  1  0  0  0
 25 27  1  0  0  0
 27 28  1  0  0  0
 28 29  1  0  0  0
 29 30  1  0  0  0
 19 20  1  0  0  0
 20 21  2  0  0  0
 14  2  1  0  0  0
 36 32  1  0  0  0
 21 16  1  0  0  0
 12  4  1  0  0  0
 12  7  1  0  0  0
  6 15  1  0  0  0
 25 26  1  0  0  0
M  END
> <minimizedAffinity>
12.43807

> <CNNscore>
0.3756312728

> <CNNaffinity>
7.3678712845

> <CNN_VS>
2.7676029205

> <CNNaffinity_variance>
0.7524949312

$$$$
[H]c1nc(OC([H])([H])C([H])([H])N([H])C([H])([H])C([H])([H])C([H])([H])F)c([H])c([H])c1[C@]1([H])c2c(c3c([H])c([H])c([H])c([H])c3n2[H])C([H])([H])[C@@]([H])(C([H])([H])[H])N1C([H])([H])C1(F)C([H])([H])OC1([H])[H]


 36 40  0  0  0  0  0  0  0  0999 V2000
   10.4273   42.4834  134.3415 C   0  0  0  0  0  0  0  0  0  0  0  0
   11.2895   43.4115  133.4866 C   0  0  0  0  0  0  0  0  0  0  0  0
   11.5084   44.6654  134.3174 C   0  0  0  0  0  0  0  0  0  0  0  0
   10.2378   45.3960  134.4025 C   0  0  0  0  0  0  0  0  0  0  0  0
    9.2563   45.1904  133.4901 C   0  0  0  0  0  0  0  0  0  0  0  0
    8.2025   45.9688  133.7799 N   0  0  0  0  0  0  0  0  0  0  0  0
    8.4891   46.6938  134.8904 C   0  0  0  0  0  0  0  0  0  0  0  0
    7.7466   47.6289  135.5807 C   0  0  0  0  0  0  0  0  0  0  0  0
    8.3087   48.2279  136.7094 C   0  0  0  0  0  0  0  0  0  0  0  0
    9.5865   47.8768  137.1107 C   0  0  0  0  0  0  0  0  0  0  0  0
   10.3265   46.9404  136.4172 C   0  0  0  0  0  0  0  0  0  0  0  0
    9.7646   46.3440  135.2919 C   0  0  0  0  0  0  0  0  0  0  0  0
    9.3772   44.2201  132.3303 C   0  0  0  0  0  0  0  0  0  0  0  0
   10.6522   43.6593  132.2523 N   0  0  0  0  0  0  0  0  0  0  0  0
    7.2800   46.0400  133.2598 H   0  0  0  0  0  0  0  0  0  0  0  0
    8.8795   44.9580  131.1714 C   0  0  0  0  0  0  0  0  0  0  0  0
    8.2435   44.3105  130.1448 C   0  0  0  0  0  0  0  0  0  0  0  0
    7.7477   44.9668  129.0401 C   0  0  0  0  0  0  0  0  0  0  0  0
    7.9210   46.3539  129.0030 C   0  0  0  0  0  0  0  0  0  0  0  0
    8.5385   46.9575  130.0071 N   0  0  0  0  0  0  0  0  0  0  0  0
    9.0189   46.3119  131.0788 C   0  0  0  0  0  0  0  0  0  0  0  0
    7.4418   47.0353  127.9174 O   0  0  0  0  0  0  0  0  0  0  0  0
    7.3692   48.4027  127.7272 C   0  0  0  0  0  0  0  0  0  0  0  0
    6.2893   49.0342  128.5621 C   0  0  0  0  0  0  0  0  0  0  0  0
    6.7420   49.1910  129.9473 N   0  0  0  0  0  0  0  0  0  0  0  0
    6.0434   48.8429  130.6167 H   0  0  0  0  0  0  0  0  0  0  0  0
    7.0739   50.5637  130.1709 C   0  0  0  0  0  0  0  0  0  0  0  0
    6.2510   51.5495  129.4149 C   0  0  0  0  0  0  0  0  0  0  0  0
    6.9630   52.0937  128.1924 C   0  0  0  0  0  0  0  0  0  0  0  0
    7.2189   53.4452  128.3588 F   0  0  0  0  0  0  0  0  0  0  0  0
   11.1767   43.1317  131.0777 C   0  0  0  0  0  0  0  0  0  0  0  0
   11.7744   44.1242  130.1000 C   0  0  0  0  0  0  0  0  0  0  0  0
   11.1986   44.1824  128.8762 F   0  0  0  0  0  0  0  0  0  0  0  0
   13.2728   43.8231  129.9517 C   0  0  0  0  0  0  0  0  0  0  0  0
   13.4887   45.1932  129.9068 O   0  0  0  0  0  0  0  0  0  0  0  0
   12.3461   45.3715  130.6793 C   0  0  0  0  0  0  0  0  0  0  0  0
  1  2  1  0  0  0
  2  3  1  0  0  0
  3  4  1  0  0  0
  4  5  2  0  0  0
  5  6  1  0  0  0
  6  7  1  0  0  0
  7  8  2  0  0  0
  8  9  1  0  0  0
  9 10  2  0  0  0
 10 11  1  0  0  0
 11 12  2  0  0  0
  5 13  1  0  0  0
 13 14  1  0  0  0
 14 31  1  0  0  0
 31 32  1  0  0  0
 32 33  1  0  0  0
 32 34  1  0  0  0
 34 35  1  0  0  0
 35 36  1  0  0  0
 13 16  1  0  0  0
 16 17  2  0  0  0
 17 18  1  0  0  0
 18 19  2  0  0  0
 19 22  1  0  0  0
 22 23  1  0  0  0
 23 24  1  0  0  0
 24 25  1  0  0  0
 25 27  1  0  0  0
 27 28  1  0  0  0
 28 29  1  0  0  0
 29 30  1  0  0  0
 19 20  1  0  0  0
 20 21  2  0  0  0
 14  2  1  0  0  0
 36 32  1  0  0  0
 21 16  1  0  0  0
 12  4  1  0  0  0
 12  7  1  0  0  0
  6 15  1  0  0  0
 25 26  1  0  0  0
M  END
> <minimizedAffinity>
8.59519

> <CNNscore>
0.3641676605

> <CNNaffinity>
7.7806577682

> <CNN_VS>
2.8334639072

> <CNNaffinity_variance>
1.4224108458

$$$$
[H]c1nc(OC([H])([H])C([H])([H])N([H])C([H])([H])C([H])([H])C([H])([H])F)c([H])c([H])c1[C@]1([H])c2c(c3c([H])c([H])c([H])c([H])c3n2[H])C([H])([H])[C@@]([H])(C([H])([H])[H])N1C([H])([H])C1(F)C([H])([H])OC1([H])[H]


 36 40  0  0  0  0  0  0  0  0999 V2000
   12.4506   44.2853  132.1888 C   0  0  0  0  0  0  0  0  0  0  0  0
   11.6346   45.3496  132.9216 C   0  0  0  0  0  0  0  0  0  0  0  0
   10.5837   44.5966  133.7212 C   0  0  0  0  0  0  0  0  0  0  0  0
    9.6045   44.0290  132.7860 C   0  0  0  0  0  0  0  0  0  0  0  0
    9.4614   44.5373  131.5374 C   0  0  0  0  0  0  0  0  0  0  0  0
    8.5118   43.8544  130.8798 N   0  0  0  0  0  0  0  0  0  0  0  0
    8.0240   42.8888  131.6987 C   0  0  0  0  0  0  0  0  0  0  0  0
    7.0464   41.9368  131.4980 C   0  0  0  0  0  0  0  0  0  0  0  0
    6.7445   41.0586  132.5403 C   0  0  0  0  0  0  0  0  0  0  0  0
    7.4236   41.1582  133.7428 C   0  0  0  0  0  0  0  0  0  0  0  0
    8.4015   42.1123  133.9399 C   0  0  0  0  0  0  0  0  0  0  0  0
    8.7014   42.9872  132.8995 C   0  0  0  0  0  0  0  0  0  0  0  0
   10.2709   45.7061  131.0082 C   0  0  0  0  0  0  0  0  0  0  0  0
   11.0881   46.2609  131.9932 N   0  0  0  0  0  0  0  0  0  0  0  0
    8.1668   44.0056  129.8875 H   0  0  0  0  0  0  0  0  0  0  0  0
    9.2926   46.5750  130.3576 C   0  0  0  0  0  0  0  0  0  0  0  0
    7.9945   46.6235  130.7936 C   0  0  0  0  0  0  0  0  0  0  0  0
    7.0427   47.4363  130.2189 C   0  0  0  0  0  0  0  0  0  0  0  0
    7.4597   48.2312  129.1467 C   0  0  0  0  0  0  0  0  0  0  0  0
    8.7195   48.1674  128.7434 N   0  0  0  0  0  0  0  0  0  0  0  0
    9.6402   47.3733  129.3074 C   0  0  0  0  0  0  0  0  0  0  0  0
    6.5372   49.0483  128.5520 O   0  0  0  0  0  0  0  0  0  0  0  0
    6.0326   50.2500  129.0132 C   0  0  0  0  0  0  0  0  0  0  0  0
    7.0436   51.3600  128.9252 C   0  0  0  0  0  0  0  0  0  0  0  0
    6.7204   52.2566  127.8117 N   0  0  0  0  0  0  0  0  0  0  0  0
    6.9252   51.8220  126.9025 H   0  0  0  0  0  0  0  0  0  0  0  0
    7.4200   53.4901  127.9955 C   0  0  0  0  0  0  0  0  0  0  0  0
    7.1779   54.5220  126.9481 C   0  0  0  0  0  0  0  0  0  0  0  0
    7.7783   54.1497  125.6071 C   0  0  0  0  0  0  0  0  0  0  0  0
    9.1546   54.3049  125.6475 F   0  0  0  0  0  0  0  0  0  0  0  0
   11.5589   47.5680  131.9386 C   0  0  0  0  0  0  0  0  0  0  0  0
   10.5722   48.6569  132.3113 C   0  0  0  0  0  0  0  0  0  0  0  0
   10.5014   49.7162  131.4713 F   0  0  0  0  0  0  0  0  0  0  0  0
   10.8951   49.1446  133.7311 C   0  0  0  0  0  0  0  0  0  0  0  0
    9.5282   49.2381  133.9518 O   0  0  0  0  0  0  0  0  0  0  0  0
    9.3355   48.2243  133.0195 C   0  0  0  0  0  0  0  0  0  0  0  0
  1  2  1  0  0  0
  2  3  1  0  0  0
  3  4  1  0  0  0
  4  5  2  0  0  0
  5  6  1  0  0  0
  6  7  1  0  0  0
  7  8  2  0  0  0
  8  9  1  0  0  0
  9 10  2  0  0  0
 10 11  1  0  0  0
 11 12  2  0  0  0
  5 13  1  0  0  0
 13 14  1  0  0  0
 14 31  1  0  0  0
 31 32  1  0  0  0
 32 33  1  0  0  0
 32 34  1  0  0  0
 34 35  1  0  0  0
 35 36  1  0  0  0
 13 16  1  0  0  0
 16 17  2  0  0  0
 17 18  1  0  0  0
 18 19  2  0  0  0
 19 22  1  0  0  0
 22 23  1  0  0  0
 23 24  1  0  0  0
 24 25  1  0  0  0
 25 27  1  0  0  0
 27 28  1  0  0  0
 28 29  1  0  0  0
 29 30  1  0  0  0
 19 20  1  0  0  0
 20 21  2  0  0  0
 14  2  1  0  0  0
 36 32  1  0  0  0
 21 16  1  0  0  0
 12  4  1  0  0  0
 12  7  1  0  0  0
  6 15  1  0  0  0
 25 26  1  0  0  0
M  END
> <minimizedAffinity>
4.58064

> <CNNscore>
0.3454576433

> <CNNaffinity>
7.2655715942

> <CNN_VS>
2.5099473000

> <CNNaffinity_variance>
0.4058289528

$$$$
[H]c1nc(OC([H])([H])C([H])([H])N([H])C([H])([H])C([H])([H])C([H])([H])F)c([H])c([H])c1[C@]1([H])c2c(c3c([H])c([H])c([H])c([H])c3n2[H])C([H])([H])[C@@]([H])(C([H])([H])[H])N1C([H])([H])C1(F)C([H])([H])OC1([H])[H]


 36 40  0  0  0  0  0  0  0  0999 V2000
    8.4646   42.7563  129.7082 C   0  0  0  0  0  0  0  0  0  0  0  0
    8.3562   44.0120  128.8439 C   0  0  0  0  0  0  0  0  0  0  0  0
    9.6664   44.1103  128.0795 C   0  0  0  0  0  0  0  0  0  0  0  0
   10.7326   44.4629  129.0252 C   0  0  0  0  0  0  0  0  0  0  0  0
   10.4416   45.0500  130.2121 C   0  0  0  0  0  0  0  0  0  0  0  0
   11.5757   45.2718  130.8942 N   0  0  0  0  0  0  0  0  0  0  0  0
   12.6228   44.8290  130.1536 C   0  0  0  0  0  0  0  0  0  0  0  0
   13.9787   44.8312  130.4062 C   0  0  0  0  0  0  0  0  0  0  0  0
   14.8391   44.3023  129.4424 C   0  0  0  0  0  0  0  0  0  0  0  0
   14.3218   43.7913  128.2641 C   0  0  0  0  0  0  0  0  0  0  0  0
   12.9641   43.7908  128.0150 C   0  0  0  0  0  0  0  0  0  0  0  0
   12.1076   44.3185  128.9770 C   0  0  0  0  0  0  0  0  0  0  0  0
    9.0322   45.3907  130.6578 C   0  0  0  0  0  0  0  0  0  0  0  0
    8.0944   45.1350  129.6571 N   0  0  0  0  0  0  0  0  0  0  0  0
   11.6859   45.7143  131.8526 H   0  0  0  0  0  0  0  0  0  0  0  0
    9.1239   46.7517  131.1816 C   0  0  0  0  0  0  0  0  0  0  0  0
    8.4197   47.1258  132.2959 C   0  0  0  0  0  0  0  0  0  0  0  0
    8.4855   48.3931  132.8314 C   0  0  0  0  0  0  0  0  0  0  0  0
    9.3187   49.3080  132.1800 C   0  0  0  0  0  0  0  0  0  0  0  0
    9.9895   48.9230  131.1049 N   0  0  0  0  0  0  0  0  0  0  0  0
    9.9200   47.6879  130.5893 C   0  0  0  0  0  0  0  0  0  0  0  0
    9.4041   50.5766  132.6856 O   0  0  0  0  0  0  0  0  0  0  0  0
   10.3006   51.0704  133.6151 C   0  0  0  0  0  0  0  0  0  0  0  0
   10.8311   49.9919  134.5191 C   0  0  0  0  0  0  0  0  0  0  0  0
   10.9610   48.7299  133.7850 N   0  0  0  0  0  0  0  0  0  0  0  0
   10.1159   48.5202  133.2380 H   0  0  0  0  0  0  0  0  0  0  0  0
   11.2821   47.6891  134.7113 C   0  0  0  0  0  0  0  0  0  0  0  0
   10.4488   46.4587  134.6014 C   0  0  0  0  0  0  0  0  0  0  0  0
   11.2602   45.2302  134.2411 C   0  0  0  0  0  0  0  0  0  0  0  0
   12.5512   45.6011  133.9011 F   0  0  0  0  0  0  0  0  0  0  0  0
    6.8542   45.7612  129.6039 C   0  0  0  0  0  0  0  0  0  0  0  0
    6.8104   47.1148  128.9226 C   0  0  0  0  0  0  0  0  0  0  0  0
    7.9232   47.4820  128.2448 F   0  0  0  0  0  0  0  0  0  0  0  0
    6.4711   48.1811  129.9741 C   0  0  0  0  0  0  0  0  0  0  0  0
    5.6888   48.8039  129.0119 O   0  0  0  0  0  0  0  0  0  0  0  0
    5.4848   47.5647  128.4145 C   0  0  0  0  0  0  0  0  0  0  0  0
  1  2  1  0  0  0
  2  3  1  0  0  0
  3  4  1  0  0  0
  4  5  2  0  0  0
  5  6  1  0  0  0
  6  7  1  0  0  0
  7  8  2  0  0  0
  8  9  1  0  0  0
  9 10  2  0  0  0
 10 11  1  0  0  0
 11 12  2  0  0  0
  5 13  1  0  0  0
 13 14  1  0  0  0
 14 31  1  0  0  0
 31 32  1  0  0  0
 32 33  1  0  0  0
 32 34  1  0  0  0
 34 35  1  0  0  0
 35 36  1  0  0  0
 13 16  1  0  0  0
 16 17  2  0  0  0
 17 18  1  0  0  0
 18 19  2  0  0  0
 19 22  1  0  0  0
 22 23  1  0  0  0
 23 24  1  0  0  0
 24 25  1  0  0  0
 25 27  1  0  0  0
 27 28  1  0  0  0
 28 29  1  0  0  0
 29 30  1  0  0  0
 19 20  1  0  0  0
 20 21  2  0  0  0
 14  2  1  0  0  0
 36 32  1  0  0  0
 21 16  1  0  0  0
 12  4  1  0  0  0
 12  7  1  0  0  0
  6 15  1  0  0  0
 25 26  1  0  0  0
M  END
> <minimizedAffinity>
8.29465

> <CNNscore>
0.3280439675

> <CNNaffinity>
7.4975042343

> <CNN_VS>
2.4595110416

> <CNNaffinity_variance>
0.4140739441

$$$$
[H]c1nc(OC([H])([H])C([H])([H])N([H])C([H])([H])C([H])([H])C([H])([H])F)c([H])c([H])c1[C@]1([H])c2c(c3c([H])c([H])c([H])c([H])c3n2[H])C([H])([H])[C@@]([H])(C([H])([H])[H])N1C([H])([H])C1(F)C([H])([H])OC1([H])[H]


 36 40  0  0  0  0  0  0  0  0999 V2000
   12.6268   45.3908  132.7249 C   0  0  0  0  0  0  0  0  0  0  0  0
   11.1635   45.3900  133.1655 C   0  0  0  0  0  0  0  0  0  0  0  0
   10.4879   44.2796  132.3773 C   0  0  0  0  0  0  0  0  0  0  0  0
   10.3993   44.6932  130.9714 C   0  0  0  0  0  0  0  0  0  0  0  0
   10.4706   46.0025  130.6272 C   0  0  0  0  0  0  0  0  0  0  0  0
   10.3659   46.1238  129.2949 N   0  0  0  0  0  0  0  0  0  0  0  0
   10.2242   44.8870  128.7551 C   0  0  0  0  0  0  0  0  0  0  0  0
   10.0778   44.4794  127.4456 C   0  0  0  0  0  0  0  0  0  0  0  0
    9.9472   43.1150  127.1809 C   0  0  0  0  0  0  0  0  0  0  0  0
    9.9665   42.2063  128.2254 C   0  0  0  0  0  0  0  0  0  0  0  0
   10.1132   42.6181  129.5347 C   0  0  0  0  0  0  0  0  0  0  0  0
   10.2433   43.9790  129.7970 C   0  0  0  0  0  0  0  0  0  0  0  0
   10.6388   47.1273  131.6311 C   0  0  0  0  0  0  0  0  0  0  0  0
   10.5938   46.6620  132.9455 N   0  0  0  0  0  0  0  0  0  0  0  0
   10.3856   47.0132  128.7161 H   0  0  0  0  0  0  0  0  0  0  0  0
    9.6647   48.1388  131.2269 C   0  0  0  0  0  0  0  0  0  0  0  0
    8.4731   47.7789  130.6541 C   0  0  0  0  0  0  0  0  0  0  0  0
    7.5211   48.6969  130.2694 C   0  0  0  0  0  0  0  0  0  0  0  0
    7.8223   50.0445  130.4903 C   0  0  0  0  0  0  0  0  0  0  0  0
    8.9803   50.3678  131.0457 N   0  0  0  0  0  0  0  0  0  0  0  0
    9.9022   49.4686  131.4170 C   0  0  0  0  0  0  0  0  0  0  0  0
    6.8982   50.9819  130.1168 O   0  0  0  0  0  0  0  0  0  0  0  0
    6.4537   51.2879  128.8439 C   0  0  0  0  0  0  0  0  0  0  0  0
    7.4215   52.1684  128.1023 C   0  0  0  0  0  0  0  0  0  0  0  0
    6.8295   53.4875  127.8623 N   0  0  0  0  0  0  0  0  0  0  0  0
    5.8679   53.4129  127.5056 H   0  0  0  0  0  0  0  0  0  0  0  0
    7.6821   54.2215  126.9798 C   0  0  0  0  0  0  0  0  0  0  0  0
    7.1071   54.5163  125.6371 C   0  0  0  0  0  0  0  0  0  0  0  0
    8.1668   54.6576  124.5626 C   0  0  0  0  0  0  0  0  0  0  0  0
    9.3857   54.2037  125.0403 F   0  0  0  0  0  0  0  0  0  0  0  0
   10.2575   47.4721  134.0243 C   0  0  0  0  0  0  0  0  0  0  0  0
    8.9465   47.1608  134.7191 C   0  0  0  0  0  0  0  0  0  0  0  0
    8.4513   48.1272  135.5276 F   0  0  0  0  0  0  0  0  0  0  0  0
    9.1114   45.8574  135.5138 C   0  0  0  0  0  0  0  0  0  0  0  0
    7.8192   45.5247  135.1328 O   0  0  0  0  0  0  0  0  0  0  0  0
    7.9906   46.2878  133.9829 C   0  0  0  0  0  0  0  0  0  0  0  0
  1  2  1  0  0  0
  2  3  1  0  0  0
  3  4  1  0  0  0
  4  5  2  0  0  0
  5  6  1  0  0  0
  6  7  1  0  0  0
  7  8  2  0  0  0
  8  9  1  0  0  0
  9 10  2  0  0  0
 10 11  1  0  0  0
 11 12  2  0  0  0
  5 13  1  0  0  0
 13 14  1  0  0  0
 14 31  1  0  0  0
 31 32  1  0  0  0
 32 33  1  0  0  0
 32 34  1  0  0  0
 34 35  1  0  0  0
 35 36  1  0  0  0
 13 16  1  0  0  0
 16 17  2  0  0  0
 17 18  1  0  0  0
 18 19  2  0  0  0
 19 22  1  0  0  0
 22 23  1  0  0  0
 23 24  1  0  0  0
 24 25  1  0  0  0
 25 27  1  0  0  0
 27 28  1  0  0  0
 28 29  1  0  0  0
 29 30  1  0  0  0
 19 20  1  0  0  0
 20 21  2  0  0  0
 14  2  1  0  0  0
 36 32  1  0  0  0
 21 16  1  0  0  0
 12  4  1  0  0  0
 12  7  1  0  0  0
  6 15  1  0  0  0
 25 26  1  0  0  0
M  END
> <minimizedAffinity>
-2.25966

> <CNNscore>
0.3258977532

> <CNNaffinity>
7.2753982544

> <CNN_VS>
2.3710360527

> <CNNaffinity_variance>
0.0981337801

$$$$
[H]c1nc(OC([H])([H])C([H])([H])N([H])C([H])([H])C([H])([H])C([H])([H])F)c([H])c([H])c1[C@]1([H])c2c(c3c([H])c([H])c([H])c([H])c3n2[H])C([H])([H])[C@@]([H])(C([H])([H])[H])N1C([H])([H])C1(F)C([H])([H])OC1([H])[H]


 36 40  0  0  0  0  0  0  0  0999 V2000
    8.5575   44.2532  127.7021 C   0  0  0  0  0  0  0  0  0  0  0  0
    8.8104   45.7209  128.0449 C   0  0  0  0  0  0  0  0  0  0  0  0
   10.3096   45.9318  127.9092 C   0  0  0  0  0  0  0  0  0  0  0  0
   10.9811   45.2255  129.0073 C   0  0  0  0  0  0  0  0  0  0  0  0
   10.3082   44.9020  130.1388 C   0  0  0  0  0  0  0  0  0  0  0  0
   11.1321   44.2664  130.9861 N   0  0  0  0  0  0  0  0  0  0  0  0
   12.3574   44.1695  130.4113 C   0  0  0  0  0  0  0  0  0  0  0  0
   13.5333   43.6129  130.8689 C   0  0  0  0  0  0  0  0  0  0  0  0
   14.6606   43.6622  130.0469 C   0  0  0  0  0  0  0  0  0  0  0  0
   14.5787   44.2621  128.8018 C   0  0  0  0  0  0  0  0  0  0  0  0
   13.3998   44.8180  128.3471 C   0  0  0  0  0  0  0  0  0  0  0  0
   12.2767   44.7681  129.1680 C   0  0  0  0  0  0  0  0  0  0  0  0
    8.8460   45.2329  130.3706 C   0  0  0  0  0  0  0  0  0  0  0  0
    8.3175   46.0054  129.3361 N   0  0  0  0  0  0  0  0  0  0  0  0
   10.9098   43.8853  131.9514 H   0  0  0  0  0  0  0  0  0  0  0  0
    8.7950   45.7741  131.7270 C   0  0  0  0  0  0  0  0  0  0  0  0
    7.9182   45.2719  132.6525 C   0  0  0  0  0  0  0  0  0  0  0  0
    7.8444   45.7425  133.9448 C   0  0  0  0  0  0  0  0  0  0  0  0
    8.7194   46.7782  134.2873 C   0  0  0  0  0  0  0  0  0  0  0  0
    9.5579   47.2469  133.3757 N   0  0  0  0  0  0  0  0  0  0  0  0
    9.6236   46.7841  132.1196 C   0  0  0  0  0  0  0  0  0  0  0  0
    8.6693   47.2699  135.5632 O   0  0  0  0  0  0  0  0  0  0  0  0
    9.5172   46.9978  136.6208 C   0  0  0  0  0  0  0  0  0  0  0  0
   10.0869   45.6079  136.5469 C   0  0  0  0  0  0  0  0  0  0  0  0
   10.8271   45.4264  135.2949 N   0  0  0  0  0  0  0  0  0  0  0  0
   10.2956   45.7734  134.4859 H   0  0  0  0  0  0  0  0  0  0  0  0
   11.1794   44.0468  135.1638 C   0  0  0  0  0  0  0  0  0  0  0  0
   11.0190   43.4753  133.7971 C   0  0  0  0  0  0  0  0  0  0  0  0
    9.7620   42.6405  133.6536 C   0  0  0  0  0  0  0  0  0  0  0  0
    9.5439   42.3425  132.3181 F   0  0  0  0  0  0  0  0  0  0  0  0
    7.2016   46.8198  129.4933 C   0  0  0  0  0  0  0  0  0  0  0  0
    7.3347   48.2487  129.0048 C   0  0  0  0  0  0  0  0  0  0  0  0
    7.3952   48.4214  127.6634 F   0  0  0  0  0  0  0  0  0  0  0  0
    8.5716   48.8774  129.6624 C   0  0  0  0  0  0  0  0  0  0  0  0
    7.8470   50.0557  129.7738 O   0  0  0  0  0  0  0  0  0  0  0  0
    6.6802   49.3011  129.8306 C   0  0  0  0  0  0  0  0  0  0  0  0
  1  2  1  0  0  0
  2  3  1  0  0  0
  3  4  1  0  0  0
  4  5  2  0  0  0
  5  6  1  0  0  0
  6  7  1  0  0  0
  7  8  2  0  0  0
  8  9  1  0  0  0
  9 10  2  0  0  0
 10 11  1  0  0  0
 11 12  2  0  0  0
  5 13  1  0  0  0
 13 14  1  0  0  0
 14 31  1  0  0  0
 31 32  1  0  0  0
 32 33  1  0  0  0
 32 34  1  0  0  0
 34 35  1  0  0  0
 35 36  1  0  0  0
 13 16  1  0  0  0
 16 17  2  0  0  0
 17 18  1  0  0  0
 18 19  2  0  0  0
 19 22  1  0  0  0
 22 23  1  0  0  0
 23 24  1  0  0  0
 24 25  1  0  0  0
 25 27  1  0  0  0
 27 28  1  0  0  0
 28 29  1  0  0  0
 29 30  1  0  0  0
 19 20  1  0  0  0
 20 21  2  0  0  0
 14  2  1  0  0  0
 36 32  1  0  0  0
 21 16  1  0  0  0
 12  4  1  0  0  0
 12  7  1  0  0  0
  6 15  1  0  0  0
 25 26  1  0  0  0
M  END
> <minimizedAffinity>
3.46904

> <CNNscore>
0.3238353133

> <CNNaffinity>
7.6847724915

> <CNN_VS>
2.4886007309

> <CNNaffinity_variance>
0.2847398818

$$$$
[H]c1nc(OC([H])([H])C([H])([H])N([H])C([H])([H])C([H])([H])C([H])([H])F)c([H])c([H])c1[C@]1([H])c2c(c3c([H])c([H])c([H])c([H])c3n2[H])C([H])([H])[C@@]([H])(C([H])([H])[H])N1C([H])([H])C1(F)C([H])([H])OC1([H])[H]


 36 40  0  0  0  0  0  0  0  0999 V2000
   10.5426   41.7085  130.0067 C   0  0  0  0  0  0  0  0  0  0  0  0
   11.3968   42.4122  131.0607 C   0  0  0  0  0  0  0  0  0  0  0  0
   10.9747   41.8308  132.4002 C   0  0  0  0  0  0  0  0  0  0  0  0
    9.6223   42.3100  132.7112 C   0  0  0  0  0  0  0  0  0  0  0  0
    9.1288   43.4266  132.1216 C   0  0  0  0  0  0  0  0  0  0  0  0
    7.8835   43.6567  132.5654 N   0  0  0  0  0  0  0  0  0  0  0  0
    7.5519   42.6865  133.4541 C   0  0  0  0  0  0  0  0  0  0  0  0
    6.3996   42.4784  134.1830 C   0  0  0  0  0  0  0  0  0  0  0  0
    6.3396   41.3771  135.0387 C   0  0  0  0  0  0  0  0  0  0  0  0
    7.4253   40.5237  135.1393 C   0  0  0  0  0  0  0  0  0  0  0  0
    8.5768   40.7353  134.4081 C   0  0  0  0  0  0  0  0  0  0  0  0
    8.6351   41.8339  133.5553 C   0  0  0  0  0  0  0  0  0  0  0  0
    9.9050   44.2613  131.1206 C   0  0  0  0  0  0  0  0  0  0  0  0
   11.2163   43.8088  130.9724 N   0  0  0  0  0  0  0  0  0  0  0  0
    7.2298   44.4485  132.2965 H   0  0  0  0  0  0  0  0  0  0  0  0
    9.6995   45.6438  131.5466 C   0  0  0  0  0  0  0  0  0  0  0  0
   10.6637   46.3131  132.2536 C   0  0  0  0  0  0  0  0  0  0  0  0
   10.5181   47.6196  132.6645 C   0  0  0  0  0  0  0  0  0  0  0  0
    9.3196   48.2551  132.3250 C   0  0  0  0  0  0  0  0  0  0  0  0
    8.4027   47.5878  131.6410 N   0  0  0  0  0  0  0  0  0  0  0  0
    8.5514   46.3161  131.2450 C   0  0  0  0  0  0  0  0  0  0  0  0
    9.1427   49.5530  132.7208 O   0  0  0  0  0  0  0  0  0  0  0  0
    9.1306   50.6935  131.9394 C   0  0  0  0  0  0  0  0  0  0  0  0
    8.0600   50.6457  130.8841 C   0  0  0  0  0  0  0  0  0  0  0  0
    8.5245   49.8842  129.7211 N   0  0  0  0  0  0  0  0  0  0  0  0
    9.3473   50.3207  129.2853 H   0  0  0  0  0  0  0  0  0  0  0  0
    7.4376   49.7349  128.8041 C   0  0  0  0  0  0  0  0  0  0  0  0
    7.2097   48.3490  128.3063 C   0  0  0  0  0  0  0  0  0  0  0  0
    6.2597   47.5587  129.1840 C   0  0  0  0  0  0  0  0  0  0  0  0
    4.9865   47.5783  128.6376 F   0  0  0  0  0  0  0  0  0  0  0  0
   12.2490   44.6182  130.5124 C   0  0  0  0  0  0  0  0  0  0  0  0
   12.2451   44.9405  129.0310 C   0  0  0  0  0  0  0  0  0  0  0  0
   13.4569   45.0634  128.4402 F   0  0  0  0  0  0  0  0  0  0  0  0
   11.4313   46.2240  128.8117 C   0  0  0  0  0  0  0  0  0  0  0  0
   10.9333   45.6460  127.6525 O   0  0  0  0  0  0  0  0  0  0  0  0
   11.1137   44.3944  128.2311 C   0  0  0  0  0  0  0  0  0  0  0  0
  1  2  1  0  0  0
  2  3  1  0  0  0
  3  4  1  0  0  0
  4  5  2  0  0  0
  5  6  1  0  0  0
  6  7  1  0  0  0
  7  8  2  0  0  0
  8  9  1  0  0  0
  9 10  2  0  0  0
 10 11  1  0  0  0
 11 12  2  0  0  0
  5 13  1  0  0  0
 13 14  1  0  0  0
 14 31  1  0  0  0
 31 32  1  0  0  0
 32 33  1  0  0  0
 32 34  1  0  0  0
 34 35  1  0  0  0
 35 36  1  0  0  0
 13 16  1  0  0  0
 16 17  2  0  0  0
 17 18  1  0  0  0
 18 19  2  0  0  0
 19 22  1  0  0  0
 22 23  1  0  0  0
 23 24  1  0  0  0
 24 25  1  0  0  0
 25 27  1  0  0  0
 27 28  1  0  0  0
 28 29  1  0  0  0
 29 30  1  0  0  0
 19 20  1  0  0  0
 20 21  2  0  0  0
 14  2  1  0  0  0
 36 32  1  0  0  0
 21 16  1  0  0  0
 12  4  1  0  0  0
 12  7  1  0  0  0
  6 15  1  0  0  0
 25 26  1  0  0  0
M  END
> <minimizedAffinity>
11.26388

> <CNNscore>
0.3099526167

> <CNNaffinity>
7.5169935226

> <CNN_VS>
2.3299117088

> <CNNaffinity_variance>
0.3027615249

$$$$
[H]c1nc(OC([H])([H])C([H])([H])N([H])C([H])([H])C([H])([H])C([H])([H])F)c([H])c([H])c1[C@]1([H])c2c(c3c([H])c([H])c([H])c([H])c3n2[H])C([H])([H])[C@@]([H])(C([H])([H])[H])N1C([H])([H])C1(F)C([H])([H])OC1([H])[H]


 36 40  0  0  0  0  0  0  0  0999 V2000
   12.8337   43.8583  133.2048 C   0  0  0  0  0  0  0  0  0  0  0  0
   11.9446   44.7766  134.0426 C   0  0  0  0  0  0  0  0  0  0  0  0
   10.6723   43.9921  134.3187 C   0  0  0  0  0  0  0  0  0  0  0  0
    9.9176   43.8714  133.0652 C   0  0  0  0  0  0  0  0  0  0  0  0
   10.1313   44.7331  132.0406 C   0  0  0  0  0  0  0  0  0  0  0  0
    9.3269   44.4190  131.0135 N   0  0  0  0  0  0  0  0  0  0  0  0
    8.5767   43.3432  131.3613 C   0  0  0  0  0  0  0  0  0  0  0  0
    7.6102   42.6473  130.6657 C   0  0  0  0  0  0  0  0  0  0  0  0
    6.9902   41.5621  131.2874 C   0  0  0  0  0  0  0  0  0  0  0  0
    7.3523   41.2082  132.5761 C   0  0  0  0  0  0  0  0  0  0  0  0
    8.3202   41.9070  133.2691 C   0  0  0  0  0  0  0  0  0  0  0  0
    8.9375   42.9890  132.6477 C   0  0  0  0  0  0  0  0  0  0  0  0
   11.1350   45.8693  132.0937 C   0  0  0  0  0  0  0  0  0  0  0  0
   11.7198   45.9878  133.3546 N   0  0  0  0  0  0  0  0  0  0  0  0
    9.2540   44.8994  130.0699 H   0  0  0  0  0  0  0  0  0  0  0  0
   10.4207   47.0253  131.5564 C   0  0  0  0  0  0  0  0  0  0  0  0
    9.1220   47.2780  131.9127 C   0  0  0  0  0  0  0  0  0  0  0  0
    8.4146   48.3616  131.4411 C   0  0  0  0  0  0  0  0  0  0  0  0
    9.0872   49.2170  130.5629 C   0  0  0  0  0  0  0  0  0  0  0  0
   10.3423   48.9523  130.2334 N   0  0  0  0  0  0  0  0  0  0  0  0
   11.0241   47.8953  130.6961 C   0  0  0  0  0  0  0  0  0  0  0  0
    8.4112   50.3017  130.0742 O   0  0  0  0  0  0  0  0  0  0  0  0
    7.0519   50.5518  130.1091 C   0  0  0  0  0  0  0  0  0  0  0  0
    6.3462   50.0172  128.8934 C   0  0  0  0  0  0  0  0  0  0  0  0
    5.1388   49.2847  129.2859 N   0  0  0  0  0  0  0  0  0  0  0  0
    4.9860   49.3216  130.3021 H   0  0  0  0  0  0  0  0  0  0  0  0
    5.2342   47.9441  128.7979 C   0  0  0  0  0  0  0  0  0  0  0  0
    6.2137   47.0752  129.5094 C   0  0  0  0  0  0  0  0  0  0  0  0
    7.4602   46.8033  128.6910 C   0  0  0  0  0  0  0  0  0  0  0  0
    8.0649   45.6355  129.1272 F   0  0  0  0  0  0  0  0  0  0  0  0
   12.2886   47.1692  133.8174 C   0  0  0  0  0  0  0  0  0  0  0  0
   11.4000   48.0599  134.6631 C   0  0  0  0  0  0  0  0  0  0  0  0
   11.9629   48.5863  135.7762 F   0  0  0  0  0  0  0  0  0  0  0  0
   10.1391   47.2716  135.0457 C   0  0  0  0  0  0  0  0  0  0  0  0
    9.4173   48.4431  134.8659 O   0  0  0  0  0  0  0  0  0  0  0  0
   10.3696   48.8560  133.9403 C   0  0  0  0  0  0  0  0  0  0  0  0
  1  2  1  0  0  0
  2  3  1  0  0  0
  3  4  1  0  0  0
  4  5  2  0  0  0
  5  6  1  0  0  0
  6  7  1  0  0  0
  7  8  2  0  0  0
  8  9  1  0  0  0
  9 10  2  0  0  0
 10 11  1  0  0  0
 11 12  2  0  0  0
  5 13  1  0  0  0
 13 14  1  0  0  0
 14 31  1  0  0  0
 31 32  1  0  0  0
 32 33  1  0  0  0
 32 34  1  0  0  0
 34 35  1  0  0  0
 35 36  1  0  0  0
 13 16  1  0  0  0
 16 17  2  0  0  0
 17 18  1  0  0  0
 18 19  2  0  0  0
 19 22  1  0  0  0
 22 23  1  0  0  0
 23 24  1  0  0  0
 24 25  1  0  0  0
 25 27  1  0  0  0
 27 28  1  0  0  0
 28 29  1  0  0  0
 29 30  1  0  0  0
 19 20  1  0  0  0
 20 21  2  0  0  0
 14  2  1  0  0  0
 36 32  1  0  0  0
 21 16  1  0  0  0
 12  4  1  0  0  0
 12  7  1  0  0  0
  6 15  1  0  0  0
 25 26  1  0  0  0
M  END
> <minimizedAffinity>
6.20437

> <CNNscore>
0.2993708849

> <CNNaffinity>
7.4477338791

> <CNN_VS>
2.2296347618

> <CNNaffinity_variance>
0.3336538672

$$$$
[H]c1nc(OC([H])([H])C([H])([H])N([H])C([H])([H])C([H])([H])C([H])([H])F)c([H])c([H])c1[C@]1([H])c2c(c3c([H])c([H])c([H])c([H])c3n2[H])C([H])([H])[C@@]([H])(C([H])([H])[H])N1C([H])([H])C1(F)C([H])([H])OC1([H])[H]


 36 40  0  0  0  0  0  0  0  0999 V2000
   11.3968   43.1931  134.8075 C   0  0  0  0  0  0  0  0  0  0  0  0
    9.9917   43.6538  134.4214 C   0  0  0  0  0  0  0  0  0  0  0  0
    9.7975   43.2404  132.9716 C   0  0  0  0  0  0  0  0  0  0  0  0
   10.6543   44.0827  132.1278 C   0  0  0  0  0  0  0  0  0  0  0  0
   11.1071   45.2799  132.5747 C   0  0  0  0  0  0  0  0  0  0  0  0
   11.8646   45.8559  131.6287 N   0  0  0  0  0  0  0  0  0  0  0  0
   11.9128   45.0346  130.5497 C   0  0  0  0  0  0  0  0  0  0  0  0
   12.5493   45.1698  129.3336 C   0  0  0  0  0  0  0  0  0  0  0  0
   12.4184   44.1465  128.3932 C   0  0  0  0  0  0  0  0  0  0  0  0
   11.6607   43.0275  128.6946 C   0  0  0  0  0  0  0  0  0  0  0  0
   11.0252   42.8958  129.9129 C   0  0  0  0  0  0  0  0  0  0  0  0
   11.1567   43.9171  130.8495 C   0  0  0  0  0  0  0  0  0  0  0  0
   10.7773   45.8452  133.9433 C   0  0  0  0  0  0  0  0  0  0  0  0
    9.8661   45.0435  134.6311 N   0  0  0  0  0  0  0  0  0  0  0  0
   12.3626   46.7922  131.6707 H   0  0  0  0  0  0  0  0  0  0  0  0
   10.4154   47.2390  133.6953 C   0  0  0  0  0  0  0  0  0  0  0  0
   11.2771   48.0855  133.0484 C   0  0  0  0  0  0  0  0  0  0  0  0
   10.9729   49.4022  132.7825 C   0  0  0  0  0  0  0  0  0  0  0  0
    9.7203   49.8559  133.2075 C   0  0  0  0  0  0  0  0  0  0  0  0
    8.9045   49.0191  133.8305 N   0  0  0  0  0  0  0  0  0  0  0  0
    9.2077   47.7389  134.0862 C   0  0  0  0  0  0  0  0  0  0  0  0
    9.3886   51.1603  132.9608 O   0  0  0  0  0  0  0  0  0  0  0  0
   10.2294   52.2183  132.6692 C   0  0  0  0  0  0  0  0  0  0  0  0
   10.1227   53.3231  133.6841 C   0  0  0  0  0  0  0  0  0  0  0  0
   11.1649   53.1800  134.7046 N   0  0  0  0  0  0  0  0  0  0  0  0
   10.7770   52.8580  135.6009 H   0  0  0  0  0  0  0  0  0  0  0  0
   11.8624   54.4220  134.8280 C   0  0  0  0  0  0  0  0  0  0  0  0
   13.3414   54.3412  134.6646 C   0  0  0  0  0  0  0  0  0  0  0  0
   13.8350   52.9199  134.4810 C   0  0  0  0  0  0  0  0  0  0  0  0
   15.1332   52.9306  133.9968 F   0  0  0  0  0  0  0  0  0  0  0  0
    9.0550   45.5246  135.6528 C   0  0  0  0  0  0  0  0  0  0  0  0
    7.6705   45.9936  135.2512 C   0  0  0  0  0  0  0  0  0  0  0  0
    6.8397   46.3457  136.2604 F   0  0  0  0  0  0  0  0  0  0  0  0
    7.0118   44.8999  134.3981 C   0  0  0  0  0  0  0  0  0  0  0  0
    6.4747   45.9107  133.6135 O   0  0  0  0  0  0  0  0  0  0  0  0
    7.5591   46.7128  133.9519 C   0  0  0  0  0  0  0  0  0  0  0  0
  1  2  1  0  0  0
  2  3  1  0  0  0
  3  4  1  0  0  0
  4  5  2  0  0  0
  5  6  1  0  0  0
  6  7  1  0  0  0
  7  8  2  0  0  0
  8  9  1  0  0  0
  9 10  2  0  0  0
 10 11  1  0  0  0
 11 12  2  0  0  0
  5 13  1  0  0  0
 13 14  1  0  0  0
 14 31  1  0  0  0
 31 32  1  0  0  0
 32 33  1  0  0  0
 32 34  1  0  0  0
 34 35  1  0  0  0
 35 36  1  0  0  0
 13 16  1  0  0  0
 16 17  2  0  0  0
 17 18  1  0  0  0
 18 19  2  0  0  0
 19 22  1  0  0  0
 22 23  1  0  0  0
 23 24  1  0  0  0
 24 25  1  0  0  0
 25 27  1  0  0  0
 27 28  1  0  0  0
 28 29  1  0  0  0
 29 30  1  0  0  0
 19 20  1  0  0  0
 20 21  2  0  0  0
 14  2  1  0  0  0
 36 32  1  0  0  0
 21 16  1  0  0  0
 12  4  1  0  0  0
 12  7  1  0  0  0
  6 15  1  0  0  0
 25 26  1  0  0  0
M  END
> <minimizedAffinity>
28.37871

> <CNNscore>
0.2754281759

> <CNNaffinity>
6.9149994850

> <CNN_VS>
1.9045857191

> <CNNaffinity_variance>
0.8010665774

$$$$
[H]Oc1c([H])c([H])c2c(c1[H])C([H])([H])C([H])([H])C([H])([H])C(C1=C([H])C([H])([H])OC([H])([H])C1([H])[H])=C2c1c([H])c([H])c(O[C@]2([H])C([H])([H])N(C([H])([H])C([H])([H])C([H])([H])F)C([H])([H])C2([H])[H])c([H])c1[H]


 35 39  0  0  0  0  0  0  0  0999 V2000
   14.5208   48.2494  136.4000 O   0  0  0  0  0  0  0  0  0  0  0  0
   13.6249   47.5898  135.5337 C   0  0  0  0  0  0  0  0  0  0  0  0
   12.4994   48.2688  135.1501 C   0  0  0  0  0  0  0  0  0  0  0  0
   11.6183   47.6249  134.3005 C   0  0  0  0  0  0  0  0  0  0  0  0
   11.8521   46.3488  133.8513 C   0  0  0  0  0  0  0  0  0  0  0  0
   12.9938   45.6451  134.2331 C   0  0  0  0  0  0  0  0  0  0  0  0
   13.5359   44.3030  133.9064 C   0  0  0  0  0  0  0  0  0  0  0  0
   12.5835   43.3997  133.2101 C   0  0  0  0  0  0  0  0  0  0  0  0
   11.1860   43.4847  133.7120 C   0  0  0  0  0  0  0  0  0  0  0  0
   10.4566   44.4924  132.8151 C   0  0  0  0  0  0  0  0  0  0  0  0
   10.8111   45.7960  132.9299 C   0  0  0  0  0  0  0  0  0  0  0  0
   13.8682   46.3159  135.0900 C   0  0  0  0  0  0  0  0  0  0  0  0
   15.3395   47.7665  136.6830 H   0  0  0  0  0  0  0  0  0  0  0  0
    9.4491   44.0635  131.9592 C   0  0  0  0  0  0  0  0  0  0  0  0
    9.9119   43.5780  130.7526 C   0  0  0  0  0  0  0  0  0  0  0  0
    8.9884   43.0785  129.7151 C   0  0  0  0  0  0  0  0  0  0  0  0
    7.8584   42.4340  130.0826 O   0  0  0  0  0  0  0  0  0  0  0  0
    7.7206   42.4183  131.4520 C   0  0  0  0  0  0  0  0  0  0  0  0
    7.9948   43.8913  131.8996 C   0  0  0  0  0  0  0  0  0  0  0  0
   10.2832   46.7655  132.0381 C   0  0  0  0  0  0  0  0  0  0  0  0
   10.3994   46.8076  130.6831 C   0  0  0  0  0  0  0  0  0  0  0  0
    9.7727   47.7282  129.8851 C   0  0  0  0  0  0  0  0  0  0  0  0
    8.9692   48.6839  130.4700 C   0  0  0  0  0  0  0  0  0  0  0  0
    8.8369   48.6616  131.8641 C   0  0  0  0  0  0  0  0  0  0  0  0
    9.4746   47.7311  132.6209 C   0  0  0  0  0  0  0  0  0  0  0  0
    8.3410   49.6030  129.6567 O   0  0  0  0  0  0  0  0  0  0  0  0
    7.1170   49.4897  129.0180 C   0  0  0  0  0  0  0  0  0  0  0  0
    7.2115   48.4565  127.9204 C   0  0  0  0  0  0  0  0  0  0  0  0
    6.3285   47.3180  128.4189 C   0  0  0  0  0  0  0  0  0  0  0  0
    5.4632   47.8395  129.3692 N   0  0  0  0  0  0  0  0  0  0  0  0
    6.0917   48.9349  130.0237 C   0  0  0  0  0  0  0  0  0  0  0  0
    4.1044   47.6736  129.4253 C   0  0  0  0  0  0  0  0  0  0  0  0
    3.4750   46.3438  129.5812 C   0  0  0  0  0  0  0  0  0  0  0  0
    2.0873   46.3347  130.1688 C   0  0  0  0  0  0  0  0  0  0  0  0
    1.7629   45.1077  130.7118 F   0  0  0  0  0  0  0  0  0  0  0  0
  1  2  1  0  0  0
  2  3  2  0  0  0
  3  4  1  0  0  0
  4  5  2  0  0  0
  5  6  1  0  0  0
  6  7  1  0  0  0
  7  8  1  0  0  0
  8  9  1  0  0  0
  9 10  1  0  0  0
 10 14  1  0  0  0
 14 15  2  0  0  0
 15 16  1  0  0  0
 16 17  1  0  0  0
 17 18  1  0  0  0
 18 19  1  0  0  0
 10 11  2  0  0  0
 11 20  1  0  0  0
 20 21  2  0  0  0
 21 22  1  0  0  0
 22 23  2  0  0  0
 23 26  1  0  0  0
 26 27  1  0  0  0
 27 28  1  0  0  0
 28 29  1  0  0  0
 29 30  1  0  0  0
 30 32  1  0  0  0
 32 33  1  0  0  0
 33 34  1  0  0  0
 34 35  1  0  0  0
 30 31  1  0  0  0
 23 24  1  0  0  0
 24 25  2  0  0  0
  6 12  2  0  0  0
 12  2  1  0  0  0
 11  5  1  0  0  0
 25 20  1  0  0  0
 19 14  1  0  0  0
 31 27  1  0  0  0
  1 13  1  0  0  0
M  END
> <minimizedAffinity>
10.68276

> <CNNscore>
0.4608319104

> <CNNaffinity>
7.8287520409

> <CNN_VS>
3.6077387333

> <CNNaffinity_variance>
0.5817996264

$$$$
[H]Oc1c([H])c([H])c2c(c1[H])C([H])([H])C([H])([H])C([H])([H])C(C1=C([H])C([H])([H])OC([H])([H])C1([H])[H])=C2c1c([H])c([H])c(O[C@]2([H])C([H])([H])N(C([H])([H])C([H])([H])C([H])([H])F)C([H])([H])C2([H])[H])c([H])c1[H]


 35 39  0  0  0  0  0  0  0  0999 V2000
   10.2933   44.7951  137.7767 O   0  0  0  0  0  0  0  0  0  0  0  0
   10.4084   44.7629  136.3717 C   0  0  0  0  0  0  0  0  0  0  0  0
    9.3827   45.2991  135.6400 C   0  0  0  0  0  0  0  0  0  0  0  0
    9.4922   45.2692  134.2616 C   0  0  0  0  0  0  0  0  0  0  0  0
   10.5855   44.7226  133.6367 C   0  0  0  0  0  0  0  0  0  0  0  0
   11.6377   44.1731  134.3685 C   0  0  0  0  0  0  0  0  0  0  0  0
   12.9348   43.5521  134.0031 C   0  0  0  0  0  0  0  0  0  0  0  0
   13.0826   43.2213  132.5621 C   0  0  0  0  0  0  0  0  0  0  0  0
   11.8482   42.6819  131.9316 C   0  0  0  0  0  0  0  0  0  0  0  0
   11.1195   43.8741  131.2995 C   0  0  0  0  0  0  0  0  0  0  0  0
   10.5595   44.7770  132.1418 C   0  0  0  0  0  0  0  0  0  0  0  0
   11.5049   44.2158  135.7576 C   0  0  0  0  0  0  0  0  0  0  0  0
   11.0314   44.4101  138.3158 H   0  0  0  0  0  0  0  0  0  0  0  0
   11.0175   43.9768  129.9173 C   0  0  0  0  0  0  0  0  0  0  0  0
   10.0296   43.1823  129.3707 C   0  0  0  0  0  0  0  0  0  0  0  0
    9.7738   43.1574  127.9172 C   0  0  0  0  0  0  0  0  0  0  0  0
    9.9251   44.2894  127.1940 O   0  0  0  0  0  0  0  0  0  0  0  0
   10.3922   45.3193  127.9786 C   0  0  0  0  0  0  0  0  0  0  0  0
   11.5864   44.7040  128.7789 C   0  0  0  0  0  0  0  0  0  0  0  0
    9.9919   45.9755  131.6366 C   0  0  0  0  0  0  0  0  0  0  0  0
   10.6233   47.1481  131.3579 C   0  0  0  0  0  0  0  0  0  0  0  0
   10.0161   48.2300  130.7766 C   0  0  0  0  0  0  0  0  0  0  0  0
    8.6800   48.1495  130.4456 C   0  0  0  0  0  0  0  0  0  0  0  0
    8.0088   46.9528  130.7258 C   0  0  0  0  0  0  0  0  0  0  0  0
    8.6469   45.9014  131.3027 C   0  0  0  0  0  0  0  0  0  0  0  0
    8.0805   49.2433  129.8581 O   0  0  0  0  0  0  0  0  0  0  0  0
    6.7937   49.3514  129.3568 C   0  0  0  0  0  0  0  0  0  0  0  0
    6.7354   48.7456  127.9745 C   0  0  0  0  0  0  0  0  0  0  0  0
    5.8666   47.5065  128.1594 C   0  0  0  0  0  0  0  0  0  0  0  0
    5.1243   47.6801  129.3181 N   0  0  0  0  0  0  0  0  0  0  0  0
    5.8578   48.4923  130.2267 C   0  0  0  0  0  0  0  0  0  0  0  0
    3.7734   47.5059  129.4649 C   0  0  0  0  0  0  0  0  0  0  0  0
    3.1433   46.1674  129.4660 C   0  0  0  0  0  0  0  0  0  0  0  0
    1.7708   46.0839  130.0828 C   0  0  0  0  0  0  0  0  0  0  0  0
    1.7642   46.5199  131.3925 F   0  0  0  0  0  0  0  0  0  0  0  0
  1  2  1  0  0  0
  2  3  2  0  0  0
  3  4  1  0  0  0
  4  5  2  0  0  0
  5  6  1  0  0  0
  6  7  1  0  0  0
  7  8  1  0  0  0
  8  9  1  0  0  0
  9 10  1  0  0  0
 10 14  1  0  0  0
 14 15  2  0  0  0
 15 16  1  0  0  0
 16 17  1  0  0  0
 17 18  1  0  0  0
 18 19  1  0  0  0
 10 11  2  0  0  0
 11 20  1  0  0  0
 20 21  2  0  0  0
 21 22  1  0  0  0
 22 23  2  0  0  0
 23 26  1  0  0  0
 26 27  1  0  0  0
 27 28  1  0  0  0
 28 29  1  0  0  0
 29 30  1  0  0  0
 30 32  1  0  0  0
 32 33  1  0  0  0
 33 34  1  0  0  0
 34 35  1  0  0  0
 30 31  1  0  0  0
 23 24  1  0  0  0
 24 25  2  0  0  0
  6 12  2  0  0  0
 12  2  1  0  0  0
 11  5  1  0  0  0
 25 20  1  0  0  0
 19 14  1  0  0  0
 31 27  1  0  0  0
  1 13  1  0  0  0
M  END
> <minimizedAffinity>
6.76371

> <CNNscore>
0.4508258104

> <CNNaffinity>
7.9128770828

> <CNN_VS>
3.5673291683

> <CNNaffinity_variance>
0.5751449466

$$$$
[H]Oc1c([H])c([H])c2c(c1[H])C([H])([H])C([H])([H])C([H])([H])C(C1=C([H])C([H])([H])OC([H])([H])C1([H])[H])=C2c1c([H])c([H])c(O[C@]2([H])C([H])([H])N(C([H])([H])C([H])([H])C([H])([H])F)C([H])([H])C2([H])[H])c([H])c1[H]


 35 39  0  0  0  0  0  0  0  0999 V2000
    3.1565   46.0499  128.5831 O   0  0  0  0  0  0  0  0  0  0  0  0
    4.3231   46.6429  129.1080 C   0  0  0  0  0  0  0  0  0  0  0  0
    5.0605   45.9094  129.9987 C   0  0  0  0  0  0  0  0  0  0  0  0
    6.2054   46.4878  130.5157 C   0  0  0  0  0  0  0  0  0  0  0  0
    6.5991   47.7532  130.1572 C   0  0  0  0  0  0  0  0  0  0  0  0
    5.8587   48.5120  129.2513 C   0  0  0  0  0  0  0  0  0  0  0  0
    6.0283   49.8591  128.6529 C   0  0  0  0  0  0  0  0  0  0  0  0
    7.0700   50.7000  129.2978 C   0  0  0  0  0  0  0  0  0  0  0  0
    7.1145   50.5838  130.7799 C   0  0  0  0  0  0  0  0  0  0  0  0
    8.1664   49.5166  131.1066 C   0  0  0  0  0  0  0  0  0  0  0  0
    7.8651   48.2321  130.7944 C   0  0  0  0  0  0  0  0  0  0  0  0
    4.7081   47.9066  128.7426 C   0  0  0  0  0  0  0  0  0  0  0  0
    2.6160   46.5727  127.9365 H   0  0  0  0  0  0  0  0  0  0  0  0
    9.3531   49.8755  131.7345 C   0  0  0  0  0  0  0  0  0  0  0  0
    9.1859   50.7689  132.7736 C   0  0  0  0  0  0  0  0  0  0  0  0
   10.3334   51.2659  133.5577 C   0  0  0  0  0  0  0  0  0  0  0  0
   11.3792   50.4452  133.8029 O   0  0  0  0  0  0  0  0  0  0  0  0
   11.2132   49.2313  133.1756 C   0  0  0  0  0  0  0  0  0  0  0  0
   10.7906   49.5899  131.7134 C   0  0  0  0  0  0  0  0  0  0  0  0
    8.8398   47.2105  130.9365 C   0  0  0  0  0  0  0  0  0  0  0  0
    9.2205   46.5694  132.0746 C   0  0  0  0  0  0  0  0  0  0  0  0
   10.1019   45.5210  132.1094 C   0  0  0  0  0  0  0  0  0  0  0  0
   10.6526   45.0705  130.9283 C   0  0  0  0  0  0  0  0  0  0  0  0
   10.2772   45.7172  129.7442 C   0  0  0  0  0  0  0  0  0  0  0  0
    9.3989   46.7535  129.7513 C   0  0  0  0  0  0  0  0  0  0  0  0
   11.5356   44.0127  130.9752 O   0  0  0  0  0  0  0  0  0  0  0  0
   11.4730   42.8759  131.7642 C   0  0  0  0  0  0  0  0  0  0  0  0
   12.1615   43.1353  133.0831 C   0  0  0  0  0  0  0  0  0  0  0  0
   11.0218   43.1166  134.0956 C   0  0  0  0  0  0  0  0  0  0  0  0
    9.9597   42.4324  133.5234 N   0  0  0  0  0  0  0  0  0  0  0  0
    9.9978   42.6044  132.1119 C   0  0  0  0  0  0  0  0  0  0  0  0
    9.2346   41.4161  134.0877 C   0  0  0  0  0  0  0  0  0  0  0  0
    7.8799   41.6247  134.6446 C   0  0  0  0  0  0  0  0  0  0  0  0
    6.7375   41.0874  133.8215 C   0  0  0  0  0  0  0  0  0  0  0  0
    5.8982   40.2816  134.5643 F   0  0  0  0  0  0  0  0  0  0  0  0
  1  2  1  0  0  0
  2  3  2  0  0  0
  3  4  1  0  0  0
  4  5  2  0  0  0
  5  6  1  0  0  0
  6  7  1  0  0  0
  7  8  1  0  0  0
  8  9  1  0  0  0
  9 10  1  0  0  0
 10 14  1  0  0  0
 14 15  2  0  0  0
 15 16  1  0  0  0
 16 17  1  0  0  0
 17 18  1  0  0  0
 18 19  1  0  0  0
 10 11  2  0  0  0
 11 20  1  0  0  0
 20 21  2  0  0  0
 21 22  1  0  0  0
 22 23  2  0  0  0
 23 26  1  0  0  0
 26 27  1  0  0  0
 27 28  1  0  0  0
 28 29  1  0  0  0
 29 30  1  0  0  0
 30 32  1  0  0  0
 32 33  1  0  0  0
 33 34  1  0  0  0
 34 35  1  0  0  0
 30 31  1  0  0  0
 23 24  1  0  0  0
 24 25  2  0  0  0
  6 12  2  0  0  0
 12  2  1  0  0  0
 11  5  1  0  0  0
 25 20  1  0  0  0
 19 14  1  0  0  0
 31 27  1  0  0  0
  1 13  1  0  0  0
M  END
> <minimizedAffinity>
18.11841

> <CNNscore>
0.4319057465

> <CNNaffinity>
7.7845230103

> <CNN_VS>
3.3621802330

> <CNNaffinity_variance>
2.9493300915

$$$$
[H]Oc1c([H])c([H])c2c(c1[H])C([H])([H])C([H])([H])C([H])([H])C(C1=C([H])C([H])([H])OC([H])([H])C1([H])[H])=C2c1c([H])c([H])c(O[C@]2([H])C([H])([H])N(C([H])([H])C([H])([H])C([H])([H])F)C([H])([H])C2([H])[H])c([H])c1[H]


 35 39  0  0  0  0  0  0  0  0999 V2000
    6.3070   52.1410  128.4344 O   0  0  0  0  0  0  0  0  0  0  0  0
    6.8207   51.1644  129.3124 C   0  0  0  0  0  0  0  0  0  0  0  0
    6.3206   49.8939  129.2085 C   0  0  0  0  0  0  0  0  0  0  0  0
    6.8221   48.9334  130.0681 C   0  0  0  0  0  0  0  0  0  0  0  0
    7.7868   49.2311  130.9984 C   0  0  0  0  0  0  0  0  0  0  0  0
    8.3056   50.5202  131.1157 C   0  0  0  0  0  0  0  0  0  0  0  0
    9.3466   51.1393  131.9729 C   0  0  0  0  0  0  0  0  0  0  0  0
    9.7949   50.2985  133.1130 C   0  0  0  0  0  0  0  0  0  0  0  0
    8.7008   49.5427  133.7793 C   0  0  0  0  0  0  0  0  0  0  0  0
    8.6649   48.1545  133.1284 C   0  0  0  0  0  0  0  0  0  0  0  0
    8.2329   48.0815  131.8454 C   0  0  0  0  0  0  0  0  0  0  0  0
    7.7848   51.4718  130.2369 C   0  0  0  0  0  0  0  0  0  0  0  0
    6.6634   53.0641  128.5010 H   0  0  0  0  0  0  0  0  0  0  0  0
    9.0268   47.0305  133.8613 C   0  0  0  0  0  0  0  0  0  0  0  0
   10.2838   46.5477  133.5571 C   0  0  0  0  0  0  0  0  0  0  0  0
   10.8395   45.3589  134.2329 C   0  0  0  0  0  0  0  0  0  0  0  0
   10.5482   45.1342  135.5337 O   0  0  0  0  0  0  0  0  0  0  0  0
    9.6671   46.0766  136.0135 C   0  0  0  0  0  0  0  0  0  0  0  0
    8.5393   46.1578  134.9333 C   0  0  0  0  0  0  0  0  0  0  0  0
    8.3038   46.8568  131.1319 C   0  0  0  0  0  0  0  0  0  0  0  0
    8.7623   46.6501  129.8676 C   0  0  0  0  0  0  0  0  0  0  0  0
    8.8892   45.4155  129.2871 C   0  0  0  0  0  0  0  0  0  0  0  0
    8.5340   44.2965  130.0103 C   0  0  0  0  0  0  0  0  0  0  0  0
    8.0567   44.4854  131.3133 C   0  0  0  0  0  0  0  0  0  0  0  0
    7.9463   45.7268  131.8539 C   0  0  0  0  0  0  0  0  0  0  0  0
    8.6691   43.0593  129.4171 O   0  0  0  0  0  0  0  0  0  0  0  0
    9.7865   42.5191  128.8019 C   0  0  0  0  0  0  0  0  0  0  0  0
    9.8054   42.9167  127.3450 C   0  0  0  0  0  0  0  0  0  0  0  0
   11.0012   43.8569  127.2425 C   0  0  0  0  0  0  0  0  0  0  0  0
   11.8291   43.6072  128.3269 N   0  0  0  0  0  0  0  0  0  0  0  0
   11.0419   43.1582  129.4233 C   0  0  0  0  0  0  0  0  0  0  0  0
   13.1816   43.3906  128.2980 C   0  0  0  0  0  0  0  0  0  0  0  0
   14.1514   44.3678  128.8397 C   0  0  0  0  0  0  0  0  0  0  0  0
   14.0413   44.6599  130.3140 C   0  0  0  0  0  0  0  0  0  0  0  0
   12.9103   44.0971  130.8704 F   0  0  0  0  0  0  0  0  0  0  0  0
  1  2  1  0  0  0
  2  3  2  0  0  0
  3  4  1  0  0  0
  4  5  2  0  0  0
  5  6  1  0  0  0
  6  7  1  0  0  0
  7  8  1  0  0  0
  8  9  1  0  0  0
  9 10  1  0  0  0
 10 14  1  0  0  0
 14 15  2  0  0  0
 15 16  1  0  0  0
 16 17  1  0  0  0
 17 18  1  0  0  0
 18 19  1  0  0  0
 10 11  2  0  0  0
 11 20  1  0  0  0
 20 21  2  0  0  0
 21 22  1  0  0  0
 22 23  2  0  0  0
 23 26  1  0  0  0
 26 27  1  0  0  0
 27 28  1  0  0  0
 28 29  1  0  0  0
 29 30  1  0  0  0
 30 32  1  0  0  0
 32 33  1  0  0  0
 33 34  1  0  0  0
 34 35  1  0  0  0
 30 31  1  0  0  0
 23 24  1  0  0  0
 24 25  2  0  0  0
  6 12  2  0  0  0
 12  2  1  0  0  0
 11  5  1  0  0  0
 25 20  1  0  0  0
 19 14  1  0  0  0
 31 27  1  0  0  0
  1 13  1  0  0  0
M  END
> <minimizedAffinity>
6.96477

> <CNNscore>
0.4197857380

> <CNNaffinity>
7.8495545387

> <CNN_VS>
3.2951309681

> <CNNaffinity_variance>
0.9612795711

$$$$
[H]Oc1c([H])c([H])c2c(c1[H])C([H])([H])C([H])([H])C([H])([H])C(C1=C([H])C([H])([H])OC([H])([H])C1([H])[H])=C2c1c([H])c([H])c(O[C@]2([H])C([H])([H])N(C([H])([H])C([H])([H])C([H])([H])F)C([H])([H])C2([H])[H])c([H])c1[H]


 35 39  0  0  0  0  0  0  0  0999 V2000
   11.1583   39.6661  131.1514 O   0  0  0  0  0  0  0  0  0  0  0  0
   10.8290   41.0070  131.4379 C   0  0  0  0  0  0  0  0  0  0  0  0
   10.8159   41.8927  130.3937 C   0  0  0  0  0  0  0  0  0  0  0  0
   10.4934   43.2087  130.6709 C   0  0  0  0  0  0  0  0  0  0  0  0
   10.1962   43.6254  131.9448 C   0  0  0  0  0  0  0  0  0  0  0  0
   10.2052   42.7350  133.0180 C   0  0  0  0  0  0  0  0  0  0  0  0
    9.9084   42.8618  134.4662 C   0  0  0  0  0  0  0  0  0  0  0  0
    9.7938   44.2592  134.9581 C   0  0  0  0  0  0  0  0  0  0  0  0
   10.7836   45.1969  134.3637 C   0  0  0  0  0  0  0  0  0  0  0  0
   10.0980   45.8567  133.1610 C   0  0  0  0  0  0  0  0  0  0  0  0
    9.8570   45.0763  132.0788 C   0  0  0  0  0  0  0  0  0  0  0  0
   10.5326   41.4125  132.7132 C   0  0  0  0  0  0  0  0  0  0  0  0
   11.1696   39.0166  131.9007 H   0  0  0  0  0  0  0  0  0  0  0  0
    9.7856   47.2105  133.1918 C   0  0  0  0  0  0  0  0  0  0  0  0
   10.8901   48.0361  133.2581 C   0  0  0  0  0  0  0  0  0  0  0  0
   10.7553   49.5053  133.3004 C   0  0  0  0  0  0  0  0  0  0  0  0
    9.7579   50.1037  132.6117 O   0  0  0  0  0  0  0  0  0  0  0  0
    8.9439   49.1713  132.0092 C   0  0  0  0  0  0  0  0  0  0  0  0
    8.6395   48.1220  133.1279 C   0  0  0  0  0  0  0  0  0  0  0  0
    9.1031   45.5767  130.9855 C   0  0  0  0  0  0  0  0  0  0  0  0
    7.7508   45.6845  130.8811 C   0  0  0  0  0  0  0  0  0  0  0  0
    7.1048   46.2732  129.8260 C   0  0  0  0  0  0  0  0  0  0  0  0
    7.8518   46.7955  128.7913 C   0  0  0  0  0  0  0  0  0  0  0  0
    9.2460   46.6934  128.8761 C   0  0  0  0  0  0  0  0  0  0  0  0
    9.8492   46.1026  129.9402 C   0  0  0  0  0  0  0  0  0  0  0  0
    7.1911   47.3885  127.7365 O   0  0  0  0  0  0  0  0  0  0  0  0
    6.6797   48.6734  127.6565 C   0  0  0  0  0  0  0  0  0  0  0  0
    5.2280   48.6683  128.0732 C   0  0  0  0  0  0  0  0  0  0  0  0
    5.2262   49.4430  129.3863 C   0  0  0  0  0  0  0  0  0  0  0  0
    6.3807   50.2108  129.4253 N   0  0  0  0  0  0  0  0  0  0  0  0
    7.4059   49.5524  128.6913 C   0  0  0  0  0  0  0  0  0  0  0  0
    6.4723   51.5464  129.7163 C   0  0  0  0  0  0  0  0  0  0  0  0
    5.7613   52.1579  130.8605 C   0  0  0  0  0  0  0  0  0  0  0  0
    4.3063   51.7932  131.0053 C   0  0  0  0  0  0  0  0  0  0  0  0
    3.8351   52.0385  132.2794 F   0  0  0  0  0  0  0  0  0  0  0  0
  1  2  1  0  0  0
  2  3  2  0  0  0
  3  4  1  0  0  0
  4  5  2  0  0  0
  5  6  1  0  0  0
  6  7  1  0  0  0
  7  8  1  0  0  0
  8  9  1  0  0  0
  9 10  1  0  0  0
 10 14  1  0  0  0
 14 15  2  0  0  0
 15 16  1  0  0  0
 16 17  1  0  0  0
 17 18  1  0  0  0
 18 19  1  0  0  0
 10 11  2  0  0  0
 11 20  1  0  0  0
 20 21  2  0  0  0
 21 22  1  0  0  0
 22 23  2  0  0  0
 23 26  1  0  0  0
 26 27  1  0  0  0
 27 28  1  0  0  0
 28 29  1  0  0  0
 29 30  1  0  0  0
 30 32  1  0  0  0
 32 33  1  0  0  0
 33 34  1  0  0  0
 34 35  1  0  0  0
 30 31  1  0  0  0
 23 24  1  0  0  0
 24 25  2  0  0  0
  6 12  2  0  0  0
 12  2  1  0  0  0
 11  5  1  0  0  0
 25 20  1  0  0  0
 19 14  1  0  0  0
 31 27  1  0  0  0
  1 13  1  0  0  0
M  END
> <minimizedAffinity>
15.98785

> <CNNscore>
0.4178941250

> <CNNaffinity>
7.9174294472

> <CNN_VS>
3.3086471558

> <CNNaffinity_variance>
1.1907936335

$$$$
[H]Oc1c([H])c([H])c2c(c1[H])C([H])([H])C([H])([H])C([H])([H])C(C1=C([H])C([H])([H])OC([H])([H])C1([H])[H])=C2c1c([H])c([H])c(O[C@]2([H])C([H])([H])N(C([H])([H])C([H])([H])C([H])([H])F)C([H])([H])C2([H])[H])c([H])c1[H]


 35 39  0  0  0  0  0  0  0  0999 V2000
    6.5214   52.3950  128.5948 O   0  0  0  0  0  0  0  0  0  0  0  0
    7.0995   51.3846  129.3906 C   0  0  0  0  0  0  0  0  0  0  0  0
    6.7976   50.0852  129.0819 C   0  0  0  0  0  0  0  0  0  0  0  0
    7.3628   49.0915  129.8603 C   0  0  0  0  0  0  0  0  0  0  0  0
    8.1980   49.3847  130.9096 C   0  0  0  0  0  0  0  0  0  0  0  0
    8.5148   50.7030  131.2357 C   0  0  0  0  0  0  0  0  0  0  0  0
    9.3848   51.3320  132.2601 C   0  0  0  0  0  0  0  0  0  0  0  0
    9.8582   50.4105  133.3253 C   0  0  0  0  0  0  0  0  0  0  0  0
    8.8353   49.4326  133.7832 C   0  0  0  0  0  0  0  0  0  0  0  0
    9.0513   48.1537  132.9648 C   0  0  0  0  0  0  0  0  0  0  0  0
    8.7369   48.1997  131.6468 C   0  0  0  0  0  0  0  0  0  0  0  0
    7.9333   51.6881  130.4354 C   0  0  0  0  0  0  0  0  0  0  0  0
    6.7347   53.3394  128.8097 H   0  0  0  0  0  0  0  0  0  0  0  0
    9.5124   46.9983  133.5843 C   0  0  0  0  0  0  0  0  0  0  0  0
    8.5060   46.1581  134.0167 C   0  0  0  0  0  0  0  0  0  0  0  0
    8.8032   44.8833  134.6989 C   0  0  0  0  0  0  0  0  0  0  0  0
    9.8915   44.1694  134.3337 O   0  0  0  0  0  0  0  0  0  0  0  0
   10.6214   44.8353  133.3754 C   0  0  0  0  0  0  0  0  0  0  0  0
   10.7554   46.2963  133.9166 C   0  0  0  0  0  0  0  0  0  0  0  0
    9.0397   47.1041  130.7971 C   0  0  0  0  0  0  0  0  0  0  0  0
    8.2466   46.0437  130.4840 C   0  0  0  0  0  0  0  0  0  0  0  0
    8.5799   45.0757  129.5735 C   0  0  0  0  0  0  0  0  0  0  0  0
    9.7920   45.1594  128.9215 C   0  0  0  0  0  0  0  0  0  0  0  0
   10.6261   46.2412  129.2300 C   0  0  0  0  0  0  0  0  0  0  0  0
   10.2590   47.1816  130.1389 C   0  0  0  0  0  0  0  0  0  0  0  0
   10.1152   44.1815  128.0050 O   0  0  0  0  0  0  0  0  0  0  0  0
   10.1820   42.8114  128.1983 C   0  0  0  0  0  0  0  0  0  0  0  0
   11.1254   42.5053  129.3373 C   0  0  0  0  0  0  0  0  0  0  0  0
   10.2096   41.9642  130.4295 C   0  0  0  0  0  0  0  0  0  0  0  0
    9.0379   41.5348  129.8240 N   0  0  0  0  0  0  0  0  0  0  0  0
    8.7990   42.3162  128.6597 C   0  0  0  0  0  0  0  0  0  0  0  0
    8.4141   40.3278  130.0000 C   0  0  0  0  0  0  0  0  0  0  0  0
    9.0828   39.0410  129.7072 C   0  0  0  0  0  0  0  0  0  0  0  0
    8.2282   37.8070  129.8414 C   0  0  0  0  0  0  0  0  0  0  0  0
    7.1934   37.7918  128.9280 F   0  0  0  0  0  0  0  0  0  0  0  0
  1  2  1  0  0  0
  2  3  2  0  0  0
  3  4  1  0  0  0
  4  5  2  0  0  0
  5  6  1  0  0  0
  6  7  1  0  0  0
  7  8  1  0  0  0
  8  9  1  0  0  0
  9 10  1  0  0  0
 10 14  1  0  0  0
 14 15  2  0  0  0
 15 16  1  0  0  0
 16 17  1  0  0  0
 17 18  1  0  0  0
 18 19  1  0  0  0
 10 11  2  0  0  0
 11 20  1  0  0  0
 20 21  2  0  0  0
 21 22  1  0  0  0
 22 23  2  0  0  0
 23 26  1  0  0  0
 26 27  1  0  0  0
 27 28  1  0  0  0
 28 29  1  0  0  0
 29 30  1  0  0  0
 30 32  1  0  0  0
 32 33  1  0  0  0
 33 34  1  0  0  0
 34 35  1  0  0  0
 30 31  1  0  0  0
 23 24  1  0  0  0
 24 25  2  0  0  0
  6 12  2  0  0  0
 12  2  1  0  0  0
 11  5  1  0  0  0
 25 20  1  0  0  0
 19 14  1  0  0  0
 31 27  1  0  0  0
  1 13  1  0  0  0
M  END
> <minimizedAffinity>
14.46391

> <CNNscore>
0.3944557011

> <CNNaffinity>
7.7122559547

> <CNN_VS>
3.0421433449

> <CNNaffinity_variance>
1.0790851116

$$$$
[H]Oc1c([H])c([H])c2c(c1[H])C([H])([H])C([H])([H])C([H])([H])C(C1=C([H])C([H])([H])OC([H])([H])C1([H])[H])=C2c1c([H])c([H])c(O[C@]2([H])C([H])([H])N(C([H])([H])C([H])([H])C([H])([H])F)C([H])([H])C2([H])[H])c([H])c1[H]


 35 39  0  0  0  0  0  0  0  0999 V2000
    6.2656   52.9335  130.0714 O   0  0  0  0  0  0  0  0  0  0  0  0
    6.7315   51.6055  129.9838 C   0  0  0  0  0  0  0  0  0  0  0  0
    8.0456   51.3739  130.2914 C   0  0  0  0  0  0  0  0  0  0  0  0
    8.5060   50.0726  130.2065 C   0  0  0  0  0  0  0  0  0  0  0  0
    7.6845   49.0402  129.8271 C   0  0  0  0  0  0  0  0  0  0  0  0
    6.3442   49.2606  129.5113 C   0  0  0  0  0  0  0  0  0  0  0  0
    5.2207   48.3790  129.1085 C   0  0  0  0  0  0  0  0  0  0  0  0
    5.6177   46.9977  128.7313 C   0  0  0  0  0  0  0  0  0  0  0  0
    6.8811   46.9193  127.9503 C   0  0  0  0  0  0  0  0  0  0  0  0
    8.0084   46.6715  128.9602 C   0  0  0  0  0  0  0  0  0  0  0  0
    8.3290   47.6905  129.7951 C   0  0  0  0  0  0  0  0  0  0  0  0
    5.9026   50.5816  129.6051 C   0  0  0  0  0  0  0  0  0  0  0  0
    5.3151   53.1115  129.8516 H   0  0  0  0  0  0  0  0  0  0  0  0
    8.6836   45.4568  128.9683 C   0  0  0  0  0  0  0  0  0  0  0  0
    8.1259   44.5147  129.8093 C   0  0  0  0  0  0  0  0  0  0  0  0
    8.7065   43.1651  129.9511 C   0  0  0  0  0  0  0  0  0  0  0  0
    9.2727   42.5667  128.8794 O   0  0  0  0  0  0  0  0  0  0  0  0
    9.2739   43.4051  127.7877 C   0  0  0  0  0  0  0  0  0  0  0  0
    9.8105   44.7698  128.3307 C   0  0  0  0  0  0  0  0  0  0  0  0
    9.2615   47.4920  130.8463 C   0  0  0  0  0  0  0  0  0  0  0  0
    9.0695   47.6743  132.1809 C   0  0  0  0  0  0  0  0  0  0  0  0
    9.9958   47.3633  133.1413 C   0  0  0  0  0  0  0  0  0  0  0  0
   11.2080   46.8321  132.7545 C   0  0  0  0  0  0  0  0  0  0  0  0
   11.4289   46.6381  131.3852 C   0  0  0  0  0  0  0  0  0  0  0  0
   10.4841   46.9586  130.4633 C   0  0  0  0  0  0  0  0  0  0  0  0
   12.1310   46.5200  133.7299 O   0  0  0  0  0  0  0  0  0  0  0  0
   12.1942   45.3845  134.5208 C   0  0  0  0  0  0  0  0  0  0  0  0
   11.3025   45.5567  135.7275 C   0  0  0  0  0  0  0  0  0  0  0  0
   10.1827   44.5482  135.4962 C   0  0  0  0  0  0  0  0  0  0  0  0
   10.6468   43.6008  134.5958 N   0  0  0  0  0  0  0  0  0  0  0  0
   11.5993   44.2053  133.7294 C   0  0  0  0  0  0  0  0  0  0  0  0
   10.5815   42.2386  134.7265 C   0  0  0  0  0  0  0  0  0  0  0  0
    9.6799   41.4064  133.8998 C   0  0  0  0  0  0  0  0  0  0  0  0
    8.3484   42.0205  133.5518 C   0  0  0  0  0  0  0  0  0  0  0  0
    8.4902   43.2175  132.8791 F   0  0  0  0  0  0  0  0  0  0  0  0
  1  2  1  0  0  0
  2  3  2  0  0  0
  3  4  1  0  0  0
  4  5  2  0  0  0
  5  6  1  0  0  0
  6  7  1  0  0  0
  7  8  1  0  0  0
  8  9  1  0  0  0
  9 10  1  0  0  0
 10 14  1  0  0  0
 14 15  2  0  0  0
 15 16  1  0  0  0
 16 17  1  0  0  0
 17 18  1  0  0  0
 18 19  1  0  0  0
 10 11  2  0  0  0
 11 20  1  0  0  0
 20 21  2  0  0  0
 21 22  1  0  0  0
 22 23  2  0  0  0
 23 26  1  0  0  0
 26 27  1  0  0  0
 27 28  1  0  0  0
 28 29  1  0  0  0
 29 30  1  0  0  0
 30 32  1  0  0  0
 32 33  1  0  0  0
 33 34  1  0  0  0
 34 35  1  0  0  0
 30 31  1  0  0  0
 23 24  1  0  0  0
 24 25  2  0  0  0
  6 12  2  0  0  0
 12  2  1  0  0  0
 11  5  1  0  0  0
 25 20  1  0  0  0
 19 14  1  0  0  0
 31 27  1  0  0  0
  1 13  1  0  0  0
M  END
> <minimizedAffinity>
9.20580

> <CNNscore>
0.3932695687

> <CNNaffinity>
7.9575567245

> <CNN_VS>
3.1294648647

> <CNNaffinity_variance>
1.3726115227

$$$$
[H]Oc1c([H])c([H])c2c(c1[H])C([H])([H])C([H])([H])C([H])([H])C(C1=C([H])C([H])([H])OC([H])([H])C1([H])[H])=C2c1c([H])c([H])c(O[C@]2([H])C([H])([H])N(C([H])([H])C([H])([H])C([H])([H])F)C([H])([H])C2([H])[H])c([H])c1[H]


 35 39  0  0  0  0  0  0  0  0999 V2000
    6.5264   51.4547  128.9352 O   0  0  0  0  0  0  0  0  0  0  0  0
    7.1695   50.3710  129.5679 C   0  0  0  0  0  0  0  0  0  0  0  0
    6.8139   49.1078  129.1767 C   0  0  0  0  0  0  0  0  0  0  0  0
    7.4426   48.0424  129.7951 C   0  0  0  0  0  0  0  0  0  0  0  0
    8.3909   48.2315  130.7696 C   0  0  0  0  0  0  0  0  0  0  0  0
    8.7634   49.5117  131.1782 C   0  0  0  0  0  0  0  0  0  0  0  0
    9.7492   50.0370  132.1549 C   0  0  0  0  0  0  0  0  0  0  0  0
   10.3188   49.0177  133.0738 C   0  0  0  0  0  0  0  0  0  0  0  0
    9.3346   48.0089  133.5492 C   0  0  0  0  0  0  0  0  0  0  0  0
    9.4394   46.8096  132.5989 C   0  0  0  0  0  0  0  0  0  0  0  0
    8.9858   46.9795  131.3327 C   0  0  0  0  0  0  0  0  0  0  0  0
    8.1159   50.5706  130.5390 C   0  0  0  0  0  0  0  0  0  0  0  0
    6.7775   52.3736  129.2108 H   0  0  0  0  0  0  0  0  0  0  0  0
    9.9448   45.5986  133.0566 C   0  0  0  0  0  0  0  0  0  0  0  0
   11.2987   45.4411  132.8375 C   0  0  0  0  0  0  0  0  0  0  0  0
   12.0119   44.2179  133.2544 C   0  0  0  0  0  0  0  0  0  0  0  0
   11.6385   43.5815  134.3870 O   0  0  0  0  0  0  0  0  0  0  0  0
   10.5383   44.1841  134.9536 C   0  0  0  0  0  0  0  0  0  0  0  0
    9.5367   44.3848  133.7697 C   0  0  0  0  0  0  0  0  0  0  0  0
    9.1765   45.9651  130.3588 C   0  0  0  0  0  0  0  0  0  0  0  0
   10.1725   45.8663  129.4371 C   0  0  0  0  0  0  0  0  0  0  0  0
   10.3392   44.7982  128.5954 C   0  0  0  0  0  0  0  0  0  0  0  0
    9.4523   43.7449  128.6675 C   0  0  0  0  0  0  0  0  0  0  0  0
    8.4171   43.8260  129.6073 C   0  0  0  0  0  0  0  0  0  0  0  0
    8.2861   44.9026  130.4252 C   0  0  0  0  0  0  0  0  0  0  0  0
    9.6319   42.6740  127.8179 O   0  0  0  0  0  0  0  0  0  0  0  0
   10.5315   41.6271  127.9338 C   0  0  0  0  0  0  0  0  0  0  0  0
    9.9520   40.5571  128.8284 C   0  0  0  0  0  0  0  0  0  0  0  0
    9.7051   39.3885  127.8809 C   0  0  0  0  0  0  0  0  0  0  0  0
   10.5037   39.5756  126.7624 N   0  0  0  0  0  0  0  0  0  0  0  0
   10.6948   40.9693  126.5514 C   0  0  0  0  0  0  0  0  0  0  0  0
   11.3385   38.6566  126.1832 C   0  0  0  0  0  0  0  0  0  0  0  0
   12.7486   38.9630  125.8570 C   0  0  0  0  0  0  0  0  0  0  0  0
   12.9734   39.8195  124.6375 C   0  0  0  0  0  0  0  0  0  0  0  0
   13.6153   41.0019  124.9463 F   0  0  0  0  0  0  0  0  0  0  0  0
  1  2  1  0  0  0
  2  3  2  0  0  0
  3  4  1  0  0  0
  4  5  2  0  0  0
  5  6  1  0  0  0
  6  7  1  0  0  0
  7  8  1  0  0  0
  8  9  1  0  0  0
  9 10  1  0  0  0
 10 14  1  0  0  0
 14 15  2  0  0  0
 15 16  1  0  0  0
 16 17  1  0  0  0
 17 18  1  0  0  0
 18 19  1  0  0  0
 10 11  2  0  0  0
 11 20  1  0  0  0
 20 21  2  0  0  0
 21 22  1  0  0  0
 22 23  2  0  0  0
 23 26  1  0  0  0
 26 27  1  0  0  0
 27 28  1  0  0  0
 28 29  1  0  0  0
 29 30  1  0  0  0
 30 32  1  0  0  0
 32 33  1  0  0  0
 33 34  1  0  0  0
 34 35  1  0  0  0
 30 31  1  0  0  0
 23 24  1  0  0  0
 24 25  2  0  0  0
  6 12  2  0  0  0
 12  2  1  0  0  0
 11  5  1  0  0  0
 25 20  1  0  0  0
 19 14  1  0  0  0
 31 27  1  0  0  0
  1 13  1  0  0  0
M  END
> <minimizedAffinity>
10.31627

> <CNNscore>
0.3924968243

> <CNNaffinity>
8.0903968811

> <CNN_VS>
3.1754550934

> <CNNaffinity_variance>
0.7818538547

$$$$
[H]Oc1c([H])c([H])c2c(c1[H])C([H])([H])C([H])([H])C([H])([H])C(C1=C([H])C([H])([H])OC([H])([H])C1([H])[H])=C2c1c([H])c([H])c(O[C@]2([H])C([H])([H])N(C([H])([H])C([H])([H])C([H])([H])F)C([H])([H])C2([H])[H])c([H])c1[H]


 35 39  0  0  0  0  0  0  0  0999 V2000
    4.6979   47.8846  127.1084 O   0  0  0  0  0  0  0  0  0  0  0  0
    5.6125   48.0182  128.1733 C   0  0  0  0  0  0  0  0  0  0  0  0
    5.8563   46.9109  128.9412 C   0  0  0  0  0  0  0  0  0  0  0  0
    6.7529   47.0382  129.9865 C   0  0  0  0  0  0  0  0  0  0  0  0
    7.3822   48.2282  130.2560 C   0  0  0  0  0  0  0  0  0  0  0  0
    7.1442   49.3640  129.4827 C   0  0  0  0  0  0  0  0  0  0  0  0
    7.6729   50.7503  129.4958 C   0  0  0  0  0  0  0  0  0  0  0  0
    8.4508   51.1084  130.7101 C   0  0  0  0  0  0  0  0  0  0  0  0
    7.8898   50.5633  131.9751 C   0  0  0  0  0  0  0  0  0  0  0  0
    8.6112   49.2364  132.2410 C   0  0  0  0  0  0  0  0  0  0  0  0
    8.3312   48.2006  131.4122 C   0  0  0  0  0  0  0  0  0  0  0  0
    6.2365   49.2106  128.4332 C   0  0  0  0  0  0  0  0  0  0  0  0
    4.5152   48.6806  126.5457 H   0  0  0  0  0  0  0  0  0  0  0  0
    9.4796   49.1180  133.3197 C   0  0  0  0  0  0  0  0  0  0  0  0
    9.0637   48.2101  134.2729 C   0  0  0  0  0  0  0  0  0  0  0  0
    9.8562   47.9508  135.4909 C   0  0  0  0  0  0  0  0  0  0  0  0
   11.2061   47.9865  135.4284 O   0  0  0  0  0  0  0  0  0  0  0  0
   11.6338   48.3542  134.1727 C   0  0  0  0  0  0  0  0  0  0  0  0
   10.7726   49.6070  133.8066 C   0  0  0  0  0  0  0  0  0  0  0  0
    9.0603   46.9868  131.5072 C   0  0  0  0  0  0  0  0  0  0  0  0
   10.2870   46.7047  130.9906 C   0  0  0  0  0  0  0  0  0  0  0  0
   10.9658   45.5357  131.2136 C   0  0  0  0  0  0  0  0  0  0  0  0
   10.3881   44.5676  132.0076 C   0  0  0  0  0  0  0  0  0  0  0  0
    9.1241   44.8351  132.5481 C   0  0  0  0  0  0  0  0  0  0  0  0
    8.4834   46.0079  132.3040 C   0  0  0  0  0  0  0  0  0  0  0  0
   11.0819   43.3967  132.2278 O   0  0  0  0  0  0  0  0  0  0  0  0
   10.8335   42.1394  131.7021 C   0  0  0  0  0  0  0  0  0  0  0  0
    9.4960   41.6392  132.1941 C   0  0  0  0  0  0  0  0  0  0  0  0
    8.6311   41.6260  130.9386 C   0  0  0  0  0  0  0  0  0  0  0  0
    9.4794   41.6045  129.8415 N   0  0  0  0  0  0  0  0  0  0  0  0
   10.6924   42.2688  130.1744 C   0  0  0  0  0  0  0  0  0  0  0  0
    9.4148   40.7575  128.7666 C   0  0  0  0  0  0  0  0  0  0  0  0
   10.0862   39.4392  128.7560 C   0  0  0  0  0  0  0  0  0  0  0  0
   10.9119   39.1088  129.9726 C   0  0  0  0  0  0  0  0  0  0  0  0
   10.6941   37.8182  130.4113 F   0  0  0  0  0  0  0  0  0  0  0  0
  1  2  1  0  0  0
  2  3  2  0  0  0
  3  4  1  0  0  0
  4  5  2  0  0  0
  5  6  1  0  0  0
  6  7  1  0  0  0
  7  8  1  0  0  0
  8  9  1  0  0  0
  9 10  1  0  0  0
 10 14  1  0  0  0
 14 15  2  0  0  0
 15 16  1  0  0  0
 16 17  1  0  0  0
 17 18  1  0  0  0
 18 19  1  0  0  0
 10 11  2  0  0  0
 11 20  1  0  0  0
 20 21  2  0  0  0
 21 22  1  0  0  0
 22 23  2  0  0  0
 23 26  1  0  0  0
 26 27  1  0  0  0
 27 28  1  0  0  0
 28 29  1  0  0  0
 29 30  1  0  0  0
 30 32  1  0  0  0
 32 33  1  0  0  0
 33 34  1  0  0  0
 34 35  1  0  0  0
 30 31  1  0  0  0
 23 24  1  0  0  0
 24 25  2  0  0  0
  6 12  2  0  0  0
 12  2  1  0  0  0
 11  5  1  0  0  0
 25 20  1  0  0  0
 19 14  1  0  0  0
 31 27  1  0  0  0
  1 13  1  0  0  0
M  END
> <minimizedAffinity>
23.75030

> <CNNscore>
0.3891012073

> <CNNaffinity>
7.6942496300

> <CNN_VS>
2.9938418865

> <CNNaffinity_variance>
2.2317950726

$$$$
[H]Oc1c([H])c([H])c([C@@]2([H])Sc3c([H])c(O[H])c([H])c([H])c3O[C@@]2([H])c2c([H])c([H])c(OC([H])([H])C([H])([H])N3C([H])([H])C([H])([H])C([H])(F)C([H])([H])C3([H])[H])c([H])c2[H])c([H])c1[H]


 36 40  0  0  0  0  0  0  0  0999 V2000
   11.0243   45.8686  132.2681 C   0  0  0  0  0  0  0  0  0  0  0  0
   12.5429   44.8986  132.2813 S   0  0  0  0  0  0  0  0  0  0  0  0
   13.0395   44.6468  130.5867 C   0  0  0  0  0  0  0  0  0  0  0  0
   14.1990   43.9138  130.3998 C   0  0  0  0  0  0  0  0  0  0  0  0
   14.6549   43.6717  129.1221 C   0  0  0  0  0  0  0  0  0  0  0  0
   15.8132   42.9408  128.8985 O   0  0  0  0  0  0  0  0  0  0  0  0
   13.9364   44.1710  128.0594 C   0  0  0  0  0  0  0  0  0  0  0  0
   12.7658   44.9107  128.2589 C   0  0  0  0  0  0  0  0  0  0  0  0
   12.3114   45.1519  129.5349 C   0  0  0  0  0  0  0  0  0  0  0  0
   11.1512   45.8819  129.8174 O   0  0  0  0  0  0  0  0  0  0  0  0
   10.9720   46.6174  130.9776 C   0  0  0  0  0  0  0  0  0  0  0  0
   16.1644   42.7514  127.9912 H   0  0  0  0  0  0  0  0  0  0  0  0
    6.4698   42.7325  133.5944 O   0  0  0  0  0  0  0  0  0  0  0  0
    7.5932   43.5192  133.2702 C   0  0  0  0  0  0  0  0  0  0  0  0
    7.8029   44.7378  133.8804 C   0  0  0  0  0  0  0  0  0  0  0  0
    8.9072   45.5133  133.5633 C   0  0  0  0  0  0  0  0  0  0  0  0
    9.8396   45.0992  132.6267 C   0  0  0  0  0  0  0  0  0  0  0  0
    9.6035   43.8807  132.0359 C   0  0  0  0  0  0  0  0  0  0  0  0
    8.5080   43.0989  132.3426 C   0  0  0  0  0  0  0  0  0  0  0  0
    6.6136   42.0683  134.3686 H   0  0  0  0  0  0  0  0  0  0  0  0
    9.7768   47.4680  130.8498 C   0  0  0  0  0  0  0  0  0  0  0  0
    9.8415   48.8242  131.0860 C   0  0  0  0  0  0  0  0  0  0  0  0
    8.7619   49.6443  130.9714 C   0  0  0  0  0  0  0  0  0  0  0  0
    7.5058   49.1613  130.6039 C   0  0  0  0  0  0  0  0  0  0  0  0
    7.4312   47.8046  130.3644 C   0  0  0  0  0  0  0  0  0  0  0  0
    8.5388   46.9849  130.4859 C   0  0  0  0  0  0  0  0  0  0  0  0
    6.4728   50.0531  130.5081 O   0  0  0  0  0  0  0  0  0  0  0  0
    6.1266   50.9159  129.4894 C   0  0  0  0  0  0  0  0  0  0  0  0
    7.0850   50.8827  128.3752 C   0  0  0  0  0  0  0  0  0  0  0  0
    7.4251   52.1298  127.7782 N   0  0  0  0  0  0  0  0  0  0  0  0
    6.7565   53.1982  128.4492 C   0  0  0  0  0  0  0  0  0  0  0  0
    6.4996   54.3949  127.5774 C   0  0  0  0  0  0  0  0  0  0  0  0
    7.7009   54.6488  126.6750 C   0  0  0  0  0  0  0  0  0  0  0  0
    8.8249   54.6519  127.4781 F   0  0  0  0  0  0  0  0  0  0  0  0
    7.8052   53.4554  125.7508 C   0  0  0  0  0  0  0  0  0  0  0  0
    7.1858   52.2287  126.3711 C   0  0  0  0  0  0  0  0  0  0  0  0
 13 14  1  0  0  0
 14 15  2  0  0  0
 15 16  1  0  0  0
 16 17  2  0  0  0
 17 18  1  0  0  0
 18 19  2  0  0  0
 17  1  1  0  0  0
  1  2  1  0  0  0
  2  3  1  0  0  0
  3  4  2  0  0  0
  4  5  1  0  0  0
  5  6  1  0  0  0
  5  7  2  0  0  0
  7  8  1  0  0  0
  8  9  2  0  0  0
  9 10  1  0  0  0
 10 11  1  0  0  0
 11 21  1  0  0  0
 21 22  2  0  0  0
 22 23  1  0  0  0
 23 24  2  0  0  0
 24 27  1  0  0  0
 27 28  1  0  0  0
 28 29  1  0  0  0
 29 30  1  0  0  0
 30 31  1  0  0  0
 31 32  1  0  0  0
 32 33  1  0  0  0
 33 34  1  0  0  0
 33 35  1  0  0  0
 35 36  1  0  0  0
 24 25  1  0  0  0
 25 26  2  0  0  0
 19 14  1  0  0  0
 11  1  1  0  0  0
 26 21  1  0  0  0
  9  3  1  0  0  0
 36 30  1  0  0  0
 13 20  1  0  0  0
  6 12  1  0  0  0
M  END
> <minimizedAffinity>
17.28547

> <CNNscore>
0.3997558951

> <CNNaffinity>
7.1907439232

> <CNN_VS>
2.8745422363

> <CNNaffinity_variance>
1.8216035366

$$$$
[H]Oc1c([H])c([H])c([C@@]2([H])Sc3c([H])c(O[H])c([H])c([H])c3O[C@@]2([H])c2c([H])c([H])c(OC([H])([H])C([H])([H])N3C([H])([H])C([H])([H])C([H])(F)C([H])([H])C3([H])[H])c([H])c2[H])c([H])c1[H]


 36 40  0  0  0  0  0  0  0  0999 V2000
   11.5945   44.4571  132.3945 C   0  0  0  0  0  0  0  0  0  0  0  0
   12.9658   43.3279  132.0921 S   0  0  0  0  0  0  0  0  0  0  0  0
   13.6801   43.7538  130.5141 C   0  0  0  0  0  0  0  0  0  0  0  0
   14.7581   42.9838  130.1117 C   0  0  0  0  0  0  0  0  0  0  0  0
   15.3703   43.2444  128.9050 C   0  0  0  0  0  0  0  0  0  0  0  0
   16.4529   42.4925  128.4708 O   0  0  0  0  0  0  0  0  0  0  0  0
   14.8868   44.2728  128.1282 C   0  0  0  0  0  0  0  0  0  0  0  0
   13.7968   45.0452  128.5439 C   0  0  0  0  0  0  0  0  0  0  0  0
   13.1863   44.7842  129.7488 C   0  0  0  0  0  0  0  0  0  0  0  0
   12.0927   45.5101  130.2346 O   0  0  0  0  0  0  0  0  0  0  0  0
   11.8290   45.6880  131.5830 C   0  0  0  0  0  0  0  0  0  0  0  0
   16.9125   42.6572  127.6083 H   0  0  0  0  0  0  0  0  0  0  0  0
    6.5211   41.9730  131.7398 O   0  0  0  0  0  0  0  0  0  0  0  0
    7.7755   42.5916  131.9130 C   0  0  0  0  0  0  0  0  0  0  0  0
    8.2655   42.8553  133.1747 C   0  0  0  0  0  0  0  0  0  0  0  0
    9.4991   43.4635  133.3475 C   0  0  0  0  0  0  0  0  0  0  0  0
   10.2852   43.8292  132.2677 C   0  0  0  0  0  0  0  0  0  0  0  0
    9.7702   43.5536  131.0235 C   0  0  0  0  0  0  0  0  0  0  0  0
    8.5436   42.9484  130.8375 C   0  0  0  0  0  0  0  0  0  0  0  0
    6.5460   40.9438  131.7019 H   0  0  0  0  0  0  0  0  0  0  0  0
   10.7780   46.7047  131.7562 C   0  0  0  0  0  0  0  0  0  0  0  0
   10.6855   47.7832  130.9032 C   0  0  0  0  0  0  0  0  0  0  0  0
    9.7250   48.7391  131.0257 C   0  0  0  0  0  0  0  0  0  0  0  0
    8.7613   48.6900  132.0331 C   0  0  0  0  0  0  0  0  0  0  0  0
    8.8452   47.6132  132.8917 C   0  0  0  0  0  0  0  0  0  0  0  0
    9.8285   46.6503  132.7532 C   0  0  0  0  0  0  0  0  0  0  0  0
    7.8282   49.6891  132.0845 O   0  0  0  0  0  0  0  0  0  0  0  0
    7.6425   50.7836  131.2661 C   0  0  0  0  0  0  0  0  0  0  0  0
    7.2872   50.4030  129.8913 C   0  0  0  0  0  0  0  0  0  0  0  0
    6.7505   49.0981  129.7005 N   0  0  0  0  0  0  0  0  0  0  0  0
    7.4024   48.4499  128.6080 C   0  0  0  0  0  0  0  0  0  0  0  0
    6.5483   47.4272  127.9131 C   0  0  0  0  0  0  0  0  0  0  0  0
    5.7400   46.6412  128.9382 C   0  0  0  0  0  0  0  0  0  0  0  0
    6.6198   46.2086  129.9114 F   0  0  0  0  0  0  0  0  0  0  0  0
    4.7925   47.6266  129.5867 C   0  0  0  0  0  0  0  0  0  0  0  0
    5.3334   49.0321  129.5152 C   0  0  0  0  0  0  0  0  0  0  0  0
 13 14  1  0  0  0
 14 15  2  0  0  0
 15 16  1  0  0  0
 16 17  2  0  0  0
 17 18  1  0  0  0
 18 19  2  0  0  0
 17  1  1  0  0  0
  1  2  1  0  0  0
  2  3  1  0  0  0
  3  4  2  0  0  0
  4  5  1  0  0  0
  5  6  1  0  0  0
  5  7  2  0  0  0
  7  8  1  0  0  0
  8  9  2  0  0  0
  9 10  1  0  0  0
 10 11  1  0  0  0
 11 21  1  0  0  0
 21 22  2  0  0  0
 22 23  1  0  0  0
 23 24  2  0  0  0
 24 27  1  0  0  0
 27 28  1  0  0  0
 28 29  1  0  0  0
 29 30  1  0  0  0
 30 31  1  0  0  0
 31 32  1  0  0  0
 32 33  1  0  0  0
 33 34  1  0  0  0
 33 35  1  0  0  0
 35 36  1  0  0  0
 24 25  1  0  0  0
 25 26  2  0  0  0
 19 14  1  0  0  0
 11  1  1  0  0  0
 26 21  1  0  0  0
  9  3  1  0  0  0
 36 30  1  0  0  0
 13 20  1  0  0  0
  6 12  1  0  0  0
M  END
> <minimizedAffinity>
13.62955

> <CNNscore>
0.3730390370

> <CNNaffinity>
7.5040001869

> <CNN_VS>
2.7992849350

> <CNNaffinity_variance>
0.8871410489

$$$$
[H]Oc1c([H])c([H])c([C@@]2([H])Sc3c([H])c(O[H])c([H])c([H])c3O[C@@]2([H])c2c([H])c([H])c(OC([H])([H])C([H])([H])N3C([H])([H])C([H])([H])C([H])(F)C([H])([H])C3([H])[H])c([H])c2[H])c([H])c1[H]


 36 40  0  0  0  0  0  0  0  0999 V2000
    8.6936   44.1832  130.6473 C   0  0  0  0  0  0  0  0  0  0  0  0
    8.6795   42.4150  130.3006 S   0  0  0  0  0  0  0  0  0  0  0  0
   10.0705   41.6861  131.1465 C   0  0  0  0  0  0  0  0  0  0  0  0
   10.2215   40.3185  130.9930 C   0  0  0  0  0  0  0  0  0  0  0  0
   11.2702   39.6738  131.6124 C   0  0  0  0  0  0  0  0  0  0  0  0
   11.4514   38.3044  131.4798 O   0  0  0  0  0  0  0  0  0  0  0  0
   12.1448   40.4166  132.3727 C   0  0  0  0  0  0  0  0  0  0  0  0
   11.9834   41.7983  132.5216 C   0  0  0  0  0  0  0  0  0  0  0  0
   10.9362   42.4410  131.9029 C   0  0  0  0  0  0  0  0  0  0  0  0
   10.7066   43.8180  132.0026 O   0  0  0  0  0  0  0  0  0  0  0  0
    9.4492   44.3935  131.9176 C   0  0  0  0  0  0  0  0  0  0  0  0
   12.1959   37.8146  131.9135 H   0  0  0  0  0  0  0  0  0  0  0  0
   10.3607   47.2366  126.1489 O   0  0  0  0  0  0  0  0  0  0  0  0
    9.9406   46.4888  127.2671 C   0  0  0  0  0  0  0  0  0  0  0  0
    8.7837   46.8159  127.9424 C   0  0  0  0  0  0  0  0  0  0  0  0
    8.3685   46.0818  129.0424 C   0  0  0  0  0  0  0  0  0  0  0  0
    9.0934   44.9966  129.5058 C   0  0  0  0  0  0  0  0  0  0  0  0
   10.2413   44.6951  128.8124 C   0  0  0  0  0  0  0  0  0  0  0  0
   10.6659   45.4179  127.7157 C   0  0  0  0  0  0  0  0  0  0  0  0
   10.0025   46.9016  125.2430 H   0  0  0  0  0  0  0  0  0  0  0  0
    9.5190   45.8074  132.3226 C   0  0  0  0  0  0  0  0  0  0  0  0
   10.6113   46.5847  132.0032 C   0  0  0  0  0  0  0  0  0  0  0  0
   10.7099   47.8960  132.3528 C   0  0  0  0  0  0  0  0  0  0  0  0
    9.7019   48.5462  133.0650 C   0  0  0  0  0  0  0  0  0  0  0  0
    8.6037   47.7763  133.3887 C   0  0  0  0  0  0  0  0  0  0  0  0
    8.5197   46.4442  133.0258 C   0  0  0  0  0  0  0  0  0  0  0  0
    9.8777   49.8672  133.3742 O   0  0  0  0  0  0  0  0  0  0  0  0
    9.3870   51.0024  132.7638 C   0  0  0  0  0  0  0  0  0  0  0  0
    9.3090   50.8651  131.3022 C   0  0  0  0  0  0  0  0  0  0  0  0
    8.1763   50.1805  130.7773 N   0  0  0  0  0  0  0  0  0  0  0  0
    8.5143   49.5331  129.5504 C   0  0  0  0  0  0  0  0  0  0  0  0
    7.3510   49.3629  128.6144 C   0  0  0  0  0  0  0  0  0  0  0  0
    6.1029   48.9795  129.4000 C   0  0  0  0  0  0  0  0  0  0  0  0
    6.4430   47.9226  130.2220 F   0  0  0  0  0  0  0  0  0  0  0  0
    5.7737   50.1593  130.2883 C   0  0  0  0  0  0  0  0  0  0  0  0
    7.0040   50.9782  130.5865 C   0  0  0  0  0  0  0  0  0  0  0  0
 13 14  1  0  0  0
 14 15  2  0  0  0
 15 16  1  0  0  0
 16 17  2  0  0  0
 17 18  1  0  0  0
 18 19  2  0  0  0
 17  1  1  0  0  0
  1  2  1  0  0  0
  2  3  1  0  0  0
  3  4  2  0  0  0
  4  5  1  0  0  0
  5  6  1  0  0  0
  5  7  2  0  0  0
  7  8  1  0  0  0
  8  9  2  0  0  0
  9 10  1  0  0  0
 10 11  1  0  0  0
 11 21  1  0  0  0
 21 22  2  0  0  0
 22 23  1  0  0  0
 23 24  2  0  0  0
 24 27  1  0  0  0
 27 28  1  0  0  0
 28 29  1  0  0  0
 29 30  1  0  0  0
 30 31  1  0  0  0
 31 32  1  0  0  0
 32 33  1  0  0  0
 33 34  1  0  0  0
 33 35  1  0  0  0
 35 36  1  0  0  0
 24 25  1  0  0  0
 25 26  2  0  0  0
 19 14  1  0  0  0
 11  1  1  0  0  0
 26 21  1  0  0  0
  9  3  1  0  0  0
 36 30  1  0  0  0
 13 20  1  0  0  0
  6 12  1  0  0  0
M  END
> <minimizedAffinity>
17.96799

> <CNNscore>
0.3568262756

> <CNNaffinity>
7.3398451805

> <CNN_VS>
2.6190495491

> <CNNaffinity_variance>
0.7576721907

$$$$
[H]Oc1c([H])c([H])c([C@@]2([H])Sc3c([H])c(O[H])c([H])c([H])c3O[C@@]2([H])c2c([H])c([H])c(OC([H])([H])C([H])([H])N3C([H])([H])C([H])([H])C([H])(F)C([H])([H])C3([H])[H])c([H])c2[H])c([H])c1[H]


 36 40  0  0  0  0  0  0  0  0999 V2000
   11.2504   46.1771  132.5799 C   0  0  0  0  0  0  0  0  0  0  0  0
   12.0083   44.6436  133.1467 S   0  0  0  0  0  0  0  0  0  0  0  0
   11.3209   43.3106  132.1811 C   0  0  0  0  0  0  0  0  0  0  0  0
   11.7912   42.0433  132.4804 C   0  0  0  0  0  0  0  0  0  0  0  0
   11.3132   40.9554  131.7826 C   0  0  0  0  0  0  0  0  0  0  0  0
   11.7626   39.6714  132.0566 O   0  0  0  0  0  0  0  0  0  0  0  0
   10.3729   41.1637  130.7990 C   0  0  0  0  0  0  0  0  0  0  0  0
    9.9041   42.4485  130.5041 C   0  0  0  0  0  0  0  0  0  0  0  0
   10.3820   43.5339  131.2014 C   0  0  0  0  0  0  0  0  0  0  0  0
    9.9640   44.8488  130.9665 O   0  0  0  0  0  0  0  0  0  0  0  0
   10.7645   45.9581  131.1854 C   0  0  0  0  0  0  0  0  0  0  0  0
   11.4368   38.8711  131.5712 H   0  0  0  0  0  0  0  0  0  0  0  0
    7.4553   48.2092  136.2955 O   0  0  0  0  0  0  0  0  0  0  0  0
    8.3995   47.7165  135.3726 C   0  0  0  0  0  0  0  0  0  0  0  0
    9.4783   48.4839  134.9871 C   0  0  0  0  0  0  0  0  0  0  0  0
   10.4084   48.0014  134.0795 C   0  0  0  0  0  0  0  0  0  0  0  0
   10.2935   46.7372  133.5259 C   0  0  0  0  0  0  0  0  0  0  0  0
    9.2082   45.9964  133.9294 C   0  0  0  0  0  0  0  0  0  0  0  0
    8.2750   46.4649  134.8323 C   0  0  0  0  0  0  0  0  0  0  0  0
    7.6674   48.0073  137.2833 H   0  0  0  0  0  0  0  0  0  0  0  0
   10.1344   47.1521  130.5975 C   0  0  0  0  0  0  0  0  0  0  0  0
   10.0906   48.3445  131.2871 C   0  0  0  0  0  0  0  0  0  0  0  0
    9.5242   49.4710  130.7756 C   0  0  0  0  0  0  0  0  0  0  0  0
    8.9445   49.4930  129.5070 C   0  0  0  0  0  0  0  0  0  0  0  0
    8.9842   48.3039  128.8084 C   0  0  0  0  0  0  0  0  0  0  0  0
    9.5637   47.1677  129.3435 C   0  0  0  0  0  0  0  0  0  0  0  0
    8.3993   50.6676  129.0655 O   0  0  0  0  0  0  0  0  0  0  0  0
    7.0812   51.0606  128.9647 C   0  0  0  0  0  0  0  0  0  0  0  0
    6.2334   50.4537  130.0010 C   0  0  0  0  0  0  0  0  0  0  0  0
    5.7612   49.1327  129.7575 N   0  0  0  0  0  0  0  0  0  0  0  0
    6.2654   48.2365  130.7481 C   0  0  0  0  0  0  0  0  0  0  0  0
    6.4013   46.8185  130.2697 C   0  0  0  0  0  0  0  0  0  0  0  0
    5.2110   46.4489  129.3929 C   0  0  0  0  0  0  0  0  0  0  0  0
    4.0672   46.8013  130.0827 F   0  0  0  0  0  0  0  0  0  0  0  0
    5.2911   47.3288  128.1647 C   0  0  0  0  0  0  0  0  0  0  0  0
    6.0368   48.6063  128.4560 C   0  0  0  0  0  0  0  0  0  0  0  0
 13 14  1  0  0  0
 14 15  2  0  0  0
 15 16  1  0  0  0
 16 17  2  0  0  0
 17 18  1  0  0  0
 18 19  2  0  0  0
 17  1  1  0  0  0
  1  2  1  0  0  0
  2  3  1  0  0  0
  3  4  2  0  0  0
  4  5  1  0  0  0
  5  6  1  0  0  0
  5  7  2  0  0  0
  7  8  1  0  0  0
  8  9  2  0  0  0
  9 10  1  0  0  0
 10 11  1  0  0  0
 11 21  1  0  0  0
 21 22  2  0  0  0
 22 23  1  0  0  0
 23 24  2  0  0  0
 24 27  1  0  0  0
 27 28  1  0  0  0
 28 29  1  0  0  0
 29 30  1  0  0  0
 30 31  1  0  0  0
 31 32  1  0  0  0
 32 33  1  0  0  0
 33 34  1  0  0  0
 33 35  1  0  0  0
 35 36  1  0  0  0
 24 25  1  0  0  0
 25 26  2  0  0  0
 19 14  1  0  0  0
 11  1  1  0  0  0
 26 21  1  0  0  0
  9  3  1  0  0  0
 36 30  1  0  0  0
 13 20  1  0  0  0
  6 12  1  0  0  0
M  END
> <minimizedAffinity>
8.07670

> <CNNscore>
0.3418011963

> <CNNaffinity>
7.5070877075

> <CNN_VS>
2.5659315586

> <CNNaffinity_variance>
0.5988940001

$$$$
[H]Oc1c([H])c([H])c([C@@]2([H])Sc3c([H])c(O[H])c([H])c([H])c3O[C@@]2([H])c2c([H])c([H])c(OC([H])([H])C([H])([H])N3C([H])([H])C([H])([H])C([H])(F)C([H])([H])C3([H])[H])c([H])c2[H])c([H])c1[H]


 36 40  0  0  0  0  0  0  0  0999 V2000
   10.5586   47.0800  129.1617 C   0  0  0  0  0  0  0  0  0  0  0  0
    9.7370   48.3393  128.1685 S   0  0  0  0  0  0  0  0  0  0  0  0
    8.4618   49.0761  129.1749 C   0  0  0  0  0  0  0  0  0  0  0  0
    7.7178   50.0752  128.5708 C   0  0  0  0  0  0  0  0  0  0  0  0
    6.7116   50.6984  129.2767 C   0  0  0  0  0  0  0  0  0  0  0  0
    5.9465   51.7036  128.7021 O   0  0  0  0  0  0  0  0  0  0  0  0
    6.4742   50.3047  130.5741 C   0  0  0  0  0  0  0  0  0  0  0  0
    7.2318   49.2939  131.1755 C   0  0  0  0  0  0  0  0  0  0  0  0
    8.2361   48.6723  130.4700 C   0  0  0  0  0  0  0  0  0  0  0  0
    9.0373   47.6543  130.9997 O   0  0  0  0  0  0  0  0  0  0  0  0
   10.3427   47.4197  130.5994 C   0  0  0  0  0  0  0  0  0  0  0  0
    5.2171   52.1689  129.1856 H   0  0  0  0  0  0  0  0  0  0  0  0
    9.4673   41.7342  127.5588 O   0  0  0  0  0  0  0  0  0  0  0  0
    9.7262   43.0612  127.9566 C   0  0  0  0  0  0  0  0  0  0  0  0
    8.7512   43.8180  128.5714 C   0  0  0  0  0  0  0  0  0  0  0  0
    9.0036   45.1234  128.9636 C   0  0  0  0  0  0  0  0  0  0  0  0
   10.2370   45.7177  128.7557 C   0  0  0  0  0  0  0  0  0  0  0  0
   11.1881   44.9385  128.1410 C   0  0  0  0  0  0  0  0  0  0  0  0
   10.9498   43.6377  127.7456 C   0  0  0  0  0  0  0  0  0  0  0  0
    9.6757   41.0191  128.2704 H   0  0  0  0  0  0  0  0  0  0  0  0
   10.9842   46.4680  131.5219 C   0  0  0  0  0  0  0  0  0  0  0  0
   11.7000   46.9096  132.6136 C   0  0  0  0  0  0  0  0  0  0  0  0
   12.3008   46.0623  133.4925 C   0  0  0  0  0  0  0  0  0  0  0  0
   12.2313   44.6769  133.3445 C   0  0  0  0  0  0  0  0  0  0  0  0
   11.5160   44.2250  132.2547 C   0  0  0  0  0  0  0  0  0  0  0  0
   10.9116   45.1004  131.3705 C   0  0  0  0  0  0  0  0  0  0  0  0
   12.8604   43.8950  134.2742 O   0  0  0  0  0  0  0  0  0  0  0  0
   12.4594   43.5051  135.5349 C   0  0  0  0  0  0  0  0  0  0  0  0
   10.9967   43.4993  135.6822 C   0  0  0  0  0  0  0  0  0  0  0  0
   10.2929   44.6332  135.1860 N   0  0  0  0  0  0  0  0  0  0  0  0
   10.0900   45.5855  136.2303 C   0  0  0  0  0  0  0  0  0  0  0  0
    8.8713   46.4438  136.0395 C   0  0  0  0  0  0  0  0  0  0  0  0
    8.7308   46.8289  134.5719 C   0  0  0  0  0  0  0  0  0  0  0  0
    9.9524   47.3235  134.1578 F   0  0  0  0  0  0  0  0  0  0  0  0
    8.4784   45.5451  133.8120 C   0  0  0  0  0  0  0  0  0  0  0  0
    9.0436   44.3559  134.5464 C   0  0  0  0  0  0  0  0  0  0  0  0
 13 14  1  0  0  0
 14 15  2  0  0  0
 15 16  1  0  0  0
 16 17  2  0  0  0
 17 18  1  0  0  0
 18 19  2  0  0  0
 17  1  1  0  0  0
  1  2  1  0  0  0
  2  3  1  0  0  0
  3  4  2  0  0  0
  4  5  1  0  0  0
  5  6  1  0  0  0
  5  7  2  0  0  0
  7  8  1  0  0  0
  8  9  2  0  0  0
  9 10  1  0  0  0
 10 11  1  0  0  0
 11 21  1  0  0  0
 21 22  2  0  0  0
 22 23  1  0  0  0
 23 24  2  0  0  0
 24 27  1  0  0  0
 27 28  1  0  0  0
 28 29  1  0  0  0
 29 30  1  0  0  0
 30 31  1  0  0  0
 31 32  1  0  0  0
 32 33  1  0  0  0
 33 34  1  0  0  0
 33 35  1  0  0  0
 35 36  1  0  0  0
 24 25  1  0  0  0
 25 26  2  0  0  0
 19 14  1  0  0  0
 11  1  1  0  0  0
 26 21  1  0  0  0
  9  3  1  0  0  0
 36 30  1  0  0  0
 13 20  1  0  0  0
  6 12  1  0  0  0
M  END
> <minimizedAffinity>
7.75094

> <CNNscore>
0.3357793689

> <CNNaffinity>
7.5046067238

> <CNN_VS>
2.5198922157

> <CNNaffinity_variance>
0.4443839490

$$$$
[H]Oc1c([H])c([H])c([C@@]2([H])Sc3c([H])c(O[H])c([H])c([H])c3O[C@@]2([H])c2c([H])c([H])c(OC([H])([H])C([H])([H])N3C([H])([H])C([H])([H])C([H])(F)C([H])([H])C3([H])[H])c([H])c2[H])c([H])c1[H]


 36 40  0  0  0  0  0  0  0  0999 V2000
    8.7484   44.8692  131.8471 C   0  0  0  0  0  0  0  0  0  0  0  0
    9.0423   43.4751  132.9504 S   0  0  0  0  0  0  0  0  0  0  0  0
   10.3405   43.9432  134.0805 C   0  0  0  0  0  0  0  0  0  0  0  0
   10.7044   42.9859  135.0121 C   0  0  0  0  0  0  0  0  0  0  0  0
   11.6996   43.2642  135.9237 C   0  0  0  0  0  0  0  0  0  0  0  0
   12.0892   42.3279  136.8710 O   0  0  0  0  0  0  0  0  0  0  0  0
   12.3082   44.4981  135.8801 C   0  0  0  0  0  0  0  0  0  0  0  0
   11.9332   45.4587  134.9346 C   0  0  0  0  0  0  0  0  0  0  0  0
   10.9395   45.1800  134.0250 C   0  0  0  0  0  0  0  0  0  0  0  0
   10.5078   46.0861  133.0495 O   0  0  0  0  0  0  0  0  0  0  0  0
    9.2205   46.1057  132.5378 C   0  0  0  0  0  0  0  0  0  0  0  0
   12.8014   42.5004  137.5384 H   0  0  0  0  0  0  0  0  0  0  0  0
   10.8014   43.9847  126.6183 O   0  0  0  0  0  0  0  0  0  0  0  0
   10.2822   44.2068  127.9094 C   0  0  0  0  0  0  0  0  0  0  0  0
    8.9213   44.2284  128.1302 C   0  0  0  0  0  0  0  0  0  0  0  0
    8.4083   44.4466  129.3993 C   0  0  0  0  0  0  0  0  0  0  0  0
    9.2356   44.6505  130.4910 C   0  0  0  0  0  0  0  0  0  0  0  0
   10.5867   44.6232  130.2396 C   0  0  0  0  0  0  0  0  0  0  0  0
   11.1105   44.4071  128.9809 C   0  0  0  0  0  0  0  0  0  0  0  0
   10.9732   42.9965  126.3833 H   0  0  0  0  0  0  0  0  0  0  0  0
    9.0189   47.3271  131.7406 C   0  0  0  0  0  0  0  0  0  0  0  0
    8.3434   48.4105  132.2594 C   0  0  0  0  0  0  0  0  0  0  0  0
    8.1430   49.5588  131.5576 C   0  0  0  0  0  0  0  0  0  0  0  0
    8.6126   49.7164  130.2534 C   0  0  0  0  0  0  0  0  0  0  0  0
    9.2910   48.6372  129.7255 C   0  0  0  0  0  0  0  0  0  0  0  0
    9.4856   47.4768  130.4528 C   0  0  0  0  0  0  0  0  0  0  0  0
    8.3719   50.9041  129.6186 O   0  0  0  0  0  0  0  0  0  0  0  0
    7.3118   51.2986  128.8295 C   0  0  0  0  0  0  0  0  0  0  0  0
    6.0170   50.8540  129.3652 C   0  0  0  0  0  0  0  0  0  0  0  0
    5.8146   49.4496  129.4835 N   0  0  0  0  0  0  0  0  0  0  0  0
    6.5645   48.7560  128.4859 C   0  0  0  0  0  0  0  0  0  0  0  0
    5.9654   47.4374  128.0849 C   0  0  0  0  0  0  0  0  0  0  0  0
    5.4181   46.7198  129.3127 C   0  0  0  0  0  0  0  0  0  0  0  0
    6.4147   46.7232  130.2692 F   0  0  0  0  0  0  0  0  0  0  0  0
    4.2811   47.5694  129.8370 C   0  0  0  0  0  0  0  0  0  0  0  0
    4.4524   49.0143  129.4424 C   0  0  0  0  0  0  0  0  0  0  0  0
 13 14  1  0  0  0
 14 15  2  0  0  0
 15 16  1  0  0  0
 16 17  2  0  0  0
 17 18  1  0  0  0
 18 19  2  0  0  0
 17  1  1  0  0  0
  1  2  1  0  0  0
  2  3  1  0  0  0
  3  4  2  0  0  0
  4  5  1  0  0  0
  5  6  1  0  0  0
  5  7  2  0  0  0
  7  8  1  0  0  0
  8  9  2  0  0  0
  9 10  1  0  0  0
 10 11  1  0  0  0
 11 21  1  0  0  0
 21 22  2  0  0  0
 22 23  1  0  0  0
 23 24  2  0  0  0
 24 27  1  0  0  0
 27 28  1  0  0  0
 28 29  1  0  0  0
 29 30  1  0  0  0
 30 31  1  0  0  0
 31 32  1  0  0  0
 32 33  1  0  0  0
 33 34  1  0  0  0
 33 35  1  0  0  0
 35 36  1  0  0  0
 24 25  1  0  0  0
 25 26  2  0  0  0
 19 14  1  0  0  0
 11  1  1  0  0  0
 26 21  1  0  0  0
  9  3  1  0  0  0
 36 30  1  0  0  0
 13 20  1  0  0  0
  6 12  1  0  0  0
M  END
> <minimizedAffinity>
8.66025

> <CNNscore>
0.3189269006

> <CNNaffinity>
7.5890579224

> <CNN_VS>
2.4203546047

> <CNNaffinity_variance>
0.4919580519

$$$$
[H]Oc1c([H])c([H])c([C@@]2([H])Sc3c([H])c(O[H])c([H])c([H])c3O[C@@]2([H])c2c([H])c([H])c(OC([H])([H])C([H])([H])N3C([H])([H])C([H])([H])C([H])(F)C([H])([H])C3([H])[H])c([H])c2[H])c([H])c1[H]


 36 40  0  0  0  0  0  0  0  0999 V2000
    8.3049   45.2539  131.1040 C   0  0  0  0  0  0  0  0  0  0  0  0
    8.7669   43.8381  132.1186 S   0  0  0  0  0  0  0  0  0  0  0  0
    9.8410   44.4282  133.4147 C   0  0  0  0  0  0  0  0  0  0  0  0
   10.3007   43.4693  134.3013 C   0  0  0  0  0  0  0  0  0  0  0  0
   11.1359   43.8385  135.3333 C   0  0  0  0  0  0  0  0  0  0  0  0
   11.6153   42.9035  136.2398 O   0  0  0  0  0  0  0  0  0  0  0  0
   11.4916   45.1629  135.4528 C   0  0  0  0  0  0  0  0  0  0  0  0
   11.0215   46.1243  134.5517 C   0  0  0  0  0  0  0  0  0  0  0  0
   10.1877   45.7548  133.5217 C   0  0  0  0  0  0  0  0  0  0  0  0
    9.6757   46.6552  132.5804 O   0  0  0  0  0  0  0  0  0  0  0  0
    8.4609   46.4830  131.9370 C   0  0  0  0  0  0  0  0  0  0  0  0
   12.2168   43.1401  136.9911 H   0  0  0  0  0  0  0  0  0  0  0  0
   10.7066   45.1692  125.9501 O   0  0  0  0  0  0  0  0  0  0  0  0
   10.1188   45.1986  127.2306 C   0  0  0  0  0  0  0  0  0  0  0  0
   10.2876   46.2863  128.0612 C   0  0  0  0  0  0  0  0  0  0  0  0
    9.7104   46.3176  129.3211 C   0  0  0  0  0  0  0  0  0  0  0  0
    8.9454   45.2649  129.7948 C   0  0  0  0  0  0  0  0  0  0  0  0
    8.7952   44.1955  128.9445 C   0  0  0  0  0  0  0  0  0  0  0  0
    9.3645   44.1517  127.6877 C   0  0  0  0  0  0  0  0  0  0  0  0
   10.1215   45.5545  125.1948 H   0  0  0  0  0  0  0  0  0  0  0  0
    8.0955   47.7173  131.2219 C   0  0  0  0  0  0  0  0  0  0  0  0
    8.6274   48.9346  131.5885 C   0  0  0  0  0  0  0  0  0  0  0  0
    8.3205   50.0955  130.9486 C   0  0  0  0  0  0  0  0  0  0  0  0
    7.4381   50.1301  129.8688 C   0  0  0  0  0  0  0  0  0  0  0  0
    6.9008   48.9159  129.4937 C   0  0  0  0  0  0  0  0  0  0  0  0
    7.2234   47.7449  130.1555 C   0  0  0  0  0  0  0  0  0  0  0  0
    7.1855   51.3383  129.2786 O   0  0  0  0  0  0  0  0  0  0  0  0
    6.9372   51.6558  127.9597 C   0  0  0  0  0  0  0  0  0  0  0  0
    7.2931   53.0459  127.6401 C   0  0  0  0  0  0  0  0  0  0  0  0
    7.3251   53.4041  126.2624 N   0  0  0  0  0  0  0  0  0  0  0  0
    8.6657   53.6762  125.8530 C   0  0  0  0  0  0  0  0  0  0  0  0
    8.7651   54.6467  124.7099 C   0  0  0  0  0  0  0  0  0  0  0  0
    7.6628   54.3698  123.6949 C   0  0  0  0  0  0  0  0  0  0  0  0
    7.6946   53.0181  123.4119 F   0  0  0  0  0  0  0  0  0  0  0  0
    6.3519   54.6578  124.3934 C   0  0  0  0  0  0  0  0  0  0  0  0
    6.4823   54.4976  125.8868 C   0  0  0  0  0  0  0  0  0  0  0  0
 13 14  1  0  0  0
 14 15  2  0  0  0
 15 16  1  0  0  0
 16 17  2  0  0  0
 17 18  1  0  0  0
 18 19  2  0  0  0
 17  1  1  0  0  0
  1  2  1  0  0  0
  2  3  1  0  0  0
  3  4  2  0  0  0
  4  5  1  0  0  0
  5  6  1  0  0  0
  5  7  2  0  0  0
  7  8  1  0  0  0
  8  9  2  0  0  0
  9 10  1  0  0  0
 10 11  1  0  0  0
 11 21  1  0  0  0
 21 22  2  0  0  0
 22 23  1  0  0  0
 23 24  2  0  0  0
 24 27  1  0  0  0
 27 28  1  0  0  0
 28 29  1  0  0  0
 29 30  1  0  0  0
 30 31  1  0  0  0
 31 32  1  0  0  0
 32 33  1  0  0  0
 33 34  1  0  0  0
 33 35  1  0  0  0
 35 36  1  0  0  0
 24 25  1  0  0  0
 25 26  2  0  0  0
 19 14  1  0  0  0
 11  1  1  0  0  0
 26 21  1  0  0  0
  9  3  1  0  0  0
 36 30  1  0  0  0
 13 20  1  0  0  0
  6 12  1  0  0  0
M  END
> <minimizedAffinity>
2.16963

> <CNNscore>
0.2813467681

> <CNNaffinity>
7.1082773209

> <CNN_VS>
1.9998908043

> <CNNaffinity_variance>
0.6615689397

$$$$
[H]Oc1c([H])c([H])c([C@@]2([H])Sc3c([H])c(O[H])c([H])c([H])c3O[C@@]2([H])c2c([H])c([H])c(OC([H])([H])C([H])([H])N3C([H])([H])C([H])([H])C([H])(F)C([H])([H])C3([H])[H])c([H])c2[H])c([H])c1[H]


 36 40  0  0  0  0  0  0  0  0999 V2000
    8.7748   44.3899  130.1571 C   0  0  0  0  0  0  0  0  0  0  0  0
    9.0080   42.6094  130.3080 S   0  0  0  0  0  0  0  0  0  0  0  0
   10.3777   42.3347  131.4171 C   0  0  0  0  0  0  0  0  0  0  0  0
   10.7057   41.0109  131.6552 C   0  0  0  0  0  0  0  0  0  0  0  0
   11.7516   40.7082  132.4998 C   0  0  0  0  0  0  0  0  0  0  0  0
   12.1074   39.3925  132.7607 O   0  0  0  0  0  0  0  0  0  0  0  0
   12.4458   41.7416  133.0873 C   0  0  0  0  0  0  0  0  0  0  0  0
   12.1063   43.0762  132.8402 C   0  0  0  0  0  0  0  0  0  0  0  0
   11.0620   43.3774  131.9968 C   0  0  0  0  0  0  0  0  0  0  0  0
   10.6610   44.6849  131.6990 O   0  0  0  0  0  0  0  0  0  0  0  0
    9.3604   45.0317  131.3712 C   0  0  0  0  0  0  0  0  0  0  0  0
   12.8545   39.1454  133.3633 H   0  0  0  0  0  0  0  0  0  0  0  0
   10.4610   46.6146  125.2028 O   0  0  0  0  0  0  0  0  0  0  0  0
   10.0391   46.0539  126.4249 C   0  0  0  0  0  0  0  0  0  0  0  0
    9.7776   44.7041  126.5306 C   0  0  0  0  0  0  0  0  0  0  0  0
    9.3626   44.1503  127.7317 C   0  0  0  0  0  0  0  0  0  0  0  0
    9.1943   44.9243  128.8676 C   0  0  0  0  0  0  0  0  0  0  0  0
    9.4625   46.2655  128.7311 C   0  0  0  0  0  0  0  0  0  0  0  0
    9.8764   46.8295  127.5411 C   0  0  0  0  0  0  0  0  0  0  0  0
   11.4815   46.6334  125.0631 H   0  0  0  0  0  0  0  0  0  0  0  0
    9.2181   46.4973  131.3772 C   0  0  0  0  0  0  0  0  0  0  0  0
    8.0398   47.0950  131.7692 C   0  0  0  0  0  0  0  0  0  0  0  0
    7.8716   48.4449  131.7954 C   0  0  0  0  0  0  0  0  0  0  0  0
    8.8909   49.3215  131.4230 C   0  0  0  0  0  0  0  0  0  0  0  0
   10.0749   48.7324  131.0296 C   0  0  0  0  0  0  0  0  0  0  0  0
   10.2289   47.3579  131.0085 C   0  0  0  0  0  0  0  0  0  0  0  0
    8.6414   50.6653  131.4809 O   0  0  0  0  0  0  0  0  0  0  0  0
    8.0717   51.5110  130.5522 C   0  0  0  0  0  0  0  0  0  0  0  0
    6.6546   51.2050  130.3088 C   0  0  0  0  0  0  0  0  0  0  0  0
    6.3692   50.1310  129.4187 N   0  0  0  0  0  0  0  0  0  0  0  0
    5.4195   49.2409  130.0057 C   0  0  0  0  0  0  0  0  0  0  0  0
    5.5318   47.8251  129.5148 C   0  0  0  0  0  0  0  0  0  0  0  0
    5.8139   47.8144  128.0174 C   0  0  0  0  0  0  0  0  0  0  0  0
    4.8862   48.6444  127.4183 F   0  0  0  0  0  0  0  0  0  0  0  0
    7.1764   48.4456  127.8313 C   0  0  0  0  0  0  0  0  0  0  0  0
    7.5024   49.3848  128.9647 C   0  0  0  0  0  0  0  0  0  0  0  0
 13 14  1  0  0  0
 14 15  2  0  0  0
 15 16  1  0  0  0
 16 17  2  0  0  0
 17 18  1  0  0  0
 18 19  2  0  0  0
 17  1  1  0  0  0
  1  2  1  0  0  0
  2  3  1  0  0  0
  3  4  2  0  0  0
  4  5  1  0  0  0
  5  6  1  0  0  0
  5  7  2  0  0  0
  7  8  1  0  0  0
  8  9  2  0  0  0
  9 10  1  0  0  0
 10 11  1  0  0  0
 11 21  1  0  0  0
 21 22  2  0  0  0
 22 23  1  0  0  0
 23 24  2  0  0  0
 24 27  1  0  0  0
 27 28  1  0  0  0
 28 29  1  0  0  0
 29 30  1  0  0  0
 30 31  1  0  0  0
 31 32  1  0  0  0
 32 33  1  0  0  0
 33 34  1  0  0  0
 33 35  1  0  0  0
 35 36  1  0  0  0
 24 25  1  0  0  0
 25 26  2  0  0  0
 19 14  1  0  0  0
 11  1  1  0  0  0
 26 21  1  0  0  0
  9  3  1  0  0  0
 36 30  1  0  0  0
 13 20  1  0  0  0
  6 12  1  0  0  0
M  END
> <minimizedAffinity>
17.76971

> <CNNscore>
0.2622176111

> <CNNaffinity>
7.2130060196

> <CNN_VS>
1.8913772106

> <CNNaffinity_variance>
0.5912818909

$$$$
[H]Oc1c([H])c([H])c([C@@]2([H])Sc3c([H])c(O[H])c([H])c([H])c3O[C@@]2([H])c2c([H])c([H])c(OC([H])([H])C([H])([H])N3C([H])([H])C([H])([H])C([H])(F)C([H])([H])C3([H])[H])c([H])c2[H])c([H])c1[H]


 36 40  0  0  0  0  0  0  0  0999 V2000
    9.4660   48.7103  131.3913 C   0  0  0  0  0  0  0  0  0  0  0  0
    8.9814   49.6722  132.8360 S   0  0  0  0  0  0  0  0  0  0  0  0
    8.8968   48.5571  134.2256 C   0  0  0  0  0  0  0  0  0  0  0  0
    8.5354   49.1258  135.4350 C   0  0  0  0  0  0  0  0  0  0  0  0
    8.4454   48.3362  136.5608 C   0  0  0  0  0  0  0  0  0  0  0  0
    8.0859   48.8733  137.7888 O   0  0  0  0  0  0  0  0  0  0  0  0
    8.7203   46.9922  136.4477 C   0  0  0  0  0  0  0  0  0  0  0  0
    9.0848   46.4271  135.2208 C   0  0  0  0  0  0  0  0  0  0  0  0
    9.1744   47.2162  134.0975 C   0  0  0  0  0  0  0  0  0  0  0  0
    9.5320   46.7275  132.8357 O   0  0  0  0  0  0  0  0  0  0  0  0
   10.1755   47.4883  131.8733 C   0  0  0  0  0  0  0  0  0  0  0  0
    8.0133   48.3298  138.6144 H   0  0  0  0  0  0  0  0  0  0  0  0
    5.1660   47.8007  127.7829 O   0  0  0  0  0  0  0  0  0  0  0  0
    6.2368   48.0331  128.6692 C   0  0  0  0  0  0  0  0  0  0  0  0
    7.0767   49.1128  128.4956 C   0  0  0  0  0  0  0  0  0  0  0  0
    8.1305   49.3434  129.3661 C   0  0  0  0  0  0  0  0  0  0  0  0
    8.3819   48.5047  130.4390 C   0  0  0  0  0  0  0  0  0  0  0  0
    7.5280   47.4377  130.5859 C   0  0  0  0  0  0  0  0  0  0  0  0
    6.4751   47.1967  129.7263 C   0  0  0  0  0  0  0  0  0  0  0  0
    4.2777   48.2501  128.0479 H   0  0  0  0  0  0  0  0  0  0  0  0
   10.6410   46.6196  130.7793 C   0  0  0  0  0  0  0  0  0  0  0  0
   11.3988   45.4977  131.0365 C   0  0  0  0  0  0  0  0  0  0  0  0
   11.8414   44.6665  130.0544 C   0  0  0  0  0  0  0  0  0  0  0  0
   11.5547   44.8980  128.7090 C   0  0  0  0  0  0  0  0  0  0  0  0
   10.7956   46.0186  128.4414 C   0  0  0  0  0  0  0  0  0  0  0  0
   10.3539   46.8534  129.4521 C   0  0  0  0  0  0  0  0  0  0  0  0
   12.0347   44.0119  127.7838 O   0  0  0  0  0  0  0  0  0  0  0  0
   11.4378   42.9124  127.2033 C   0  0  0  0  0  0  0  0  0  0  0  0
    9.9991   42.8349  127.4954 C   0  0  0  0  0  0  0  0  0  0  0  0
    9.6053   43.0066  128.8528 N   0  0  0  0  0  0  0  0  0  0  0  0
    9.4300   41.7367  129.4816 C   0  0  0  0  0  0  0  0  0  0  0  0
    8.4383   41.7511  130.6106 C   0  0  0  0  0  0  0  0  0  0  0  0
    8.5968   43.0286  131.4259 C   0  0  0  0  0  0  0  0  0  0  0  0
    9.9381   43.1587  131.7298 F   0  0  0  0  0  0  0  0  0  0  0  0
    8.2246   44.1735  130.5094 C   0  0  0  0  0  0  0  0  0  0  0  0
    8.4375   43.8061  129.0628 C   0  0  0  0  0  0  0  0  0  0  0  0
 13 14  1  0  0  0
 14 15  2  0  0  0
 15 16  1  0  0  0
 16 17  2  0  0  0
 17 18  1  0  0  0
 18 19  2  0  0  0
 17  1  1  0  0  0
  1  2  1  0  0  0
  2  3  1  0  0  0
  3  4  2  0  0  0
  4  5  1  0  0  0
  5  6  1  0  0  0
  5  7  2  0  0  0
  7  8  1  0  0  0
  8  9  2  0  0  0
  9 10  1  0  0  0
 10 11  1  0  0  0
 11 21  1  0  0  0
 21 22  2  0  0  0
 22 23  1  0  0  0
 23 24  2  0  0  0
 24 27  1  0  0  0
 27 28  1  0  0  0
 28 29  1  0  0  0
 29 30  1  0  0  0
 30 31  1  0  0  0
 31 32  1  0  0  0
 32 33  1  0  0  0
 33 34  1  0  0  0
 33 35  1  0  0  0
 35 36  1  0  0  0
 24 25  1  0  0  0
 25 26  2  0  0  0
 19 14  1  0  0  0
 11  1  1  0  0  0
 26 21  1  0  0  0
  9  3  1  0  0  0
 36 30  1  0  0  0
 13 20  1  0  0  0
  6 12  1  0  0  0
M  END
> <minimizedAffinity>
10.67336

> <CNNscore>
0.2600642741

> <CNNaffinity>
7.4445695877

> <CNN_VS>
1.9360666275

> <CNNaffinity_variance>
0.3641447425

$$$$
[H]c1c([H])c([H])c(C2=C(c3c([H])c([H])c(OC([H])([H])C([H])([H])N4C([H])([H])C([H])([H])C4([H])[H])c([H])c3[H])c3c([H])c([H])c([H])c([H])c3OC([H])([H])C2([H])[H])c([H])c1[H]


 30 34  0  0  0  0  0  0  0  0999 V2000
    9.5729   45.0381  131.3239 C   0  0  0  0  0  0  0  0  0  0  0  0
    9.6390   44.4921  132.5121 C   0  0  0  0  0  0  0  0  0  0  0  0
    9.8248   43.0149  132.8174 C   0  0  0  0  0  0  0  0  0  0  0  0
   11.0798   42.4654  132.2263 C   0  0  0  0  0  0  0  0  0  0  0  0
   11.0528   42.3616  130.8094 O   0  0  0  0  0  0  0  0  0  0  0  0
   10.3274   43.0551  129.8631 C   0  0  0  0  0  0  0  0  0  0  0  0
   10.3043   42.4615  128.6315 C   0  0  0  0  0  0  0  0  0  0  0  0
    9.6103   43.0659  127.6181 C   0  0  0  0  0  0  0  0  0  0  0  0
    8.9431   44.2508  127.8242 C   0  0  0  0  0  0  0  0  0  0  0  0
    8.9425   44.8854  129.0615 C   0  0  0  0  0  0  0  0  0  0  0  0
    9.6601   44.2393  130.0645 C   0  0  0  0  0  0  0  0  0  0  0  0
    8.7868   49.1878  131.0122 C   0  0  0  0  0  0  0  0  0  0  0  0
    7.9139   48.3231  131.6363 C   0  0  0  0  0  0  0  0  0  0  0  0
    8.2097   46.9834  131.6946 C   0  0  0  0  0  0  0  0  0  0  0  0
    9.3877   46.4652  131.1311 C   0  0  0  0  0  0  0  0  0  0  0  0
   10.2452   47.3200  130.5179 C   0  0  0  0  0  0  0  0  0  0  0  0
    9.9570   48.6609  130.4548 C   0  0  0  0  0  0  0  0  0  0  0  0
    8.4997   50.5355  130.9472 O   0  0  0  0  0  0  0  0  0  0  0  0
    7.3580   50.9643  130.2579 C   0  0  0  0  0  0  0  0  0  0  0  0
    7.2235   50.4809  128.8602 C   0  0  0  0  0  0  0  0  0  0  0  0
    6.3123   49.4507  128.5847 N   0  0  0  0  0  0  0  0  0  0  0  0
    6.9534   48.1530  128.4380 C   0  0  0  0  0  0  0  0  0  0  0  0
    5.5958   47.5514  128.7963 C   0  0  0  0  0  0  0  0  0  0  0  0
    5.4606   48.8896  129.5574 C   0  0  0  0  0  0  0  0  0  0  0  0
    9.5952   45.3508  133.6606 C   0  0  0  0  0  0  0  0  0  0  0  0
   10.7730   46.0210  134.0252 C   0  0  0  0  0  0  0  0  0  0  0  0
   10.8017   46.9145  135.0751 C   0  0  0  0  0  0  0  0  0  0  0  0
    9.6347   47.1417  135.7710 C   0  0  0  0  0  0  0  0  0  0  0  0
    8.4919   46.4903  135.4152 C   0  0  0  0  0  0  0  0  0  0  0  0
    8.4565   45.5908  134.3602 C   0  0  0  0  0  0  0  0  0  0  0  0
 19 20  1  0  0  0
 20 21  1  0  0  0
 21 22  1  0  0  0
 22 23  1  0  0  0
 23 24  1  0  0  0
 19 18  1  0  0  0
 18 12  1  0  0  0
 12 13  2  0  0  0
 13 14  1  0  0  0
 14 15  2  0  0  0
 15 16  1  0  0  0
 16 17  2  0  0  0
 15  1  1  0  0  0
  1  2  2  0  0  0
  2  3  1  0  0  0
  3  4  1  0  0  0
  4  5  1  0  0  0
  5  6  1  0  0  0
  6  7  2  0  0  0
  7  8  1  0  0  0
  8  9  2  0  0  0
  9 10  1  0  0  0
 10 11  2  0  0  0
  2 25  1  0  0  0
 25 26  2  0  0  0
 26 27  1  0  0  0
 27 28  2  0  0  0
 28 29  1  0  0  0
 29 30  2  0  0  0
 24 21  1  0  0  0
 17 12  1  0  0  0
 11  1  1  0  0  0
 30 25  1  0  0  0
 11  6  1  0  0  0
M  END
> <minimizedAffinity>
-2.40705

> <CNNscore>
0.4664470851

> <CNNaffinity>
7.6636190414

> <CNN_VS>
3.5746726990

> <CNNaffinity_variance>
0.3052047193

$$$$
[H]c1c([H])c([H])c(C2=C(c3c([H])c([H])c(OC([H])([H])C([H])([H])N4C([H])([H])C([H])([H])C4([H])[H])c([H])c3[H])c3c([H])c([H])c([H])c([H])c3OC([H])([H])C2([H])[H])c([H])c1[H]


 30 34  0  0  0  0  0  0  0  0999 V2000
   10.4551   44.7680  132.2776 C   0  0  0  0  0  0  0  0  0  0  0  0
   11.5968   44.4682  132.8442 C   0  0  0  0  0  0  0  0  0  0  0  0
   12.2325   43.0897  132.9190 C   0  0  0  0  0  0  0  0  0  0  0  0
   12.4666   42.4973  131.5698 C   0  0  0  0  0  0  0  0  0  0  0  0
   11.2768   42.1180  130.8919 O   0  0  0  0  0  0  0  0  0  0  0  0
    9.9813   42.5774  131.0079 C   0  0  0  0  0  0  0  0  0  0  0  0
    9.0445   41.7546  130.4467 C   0  0  0  0  0  0  0  0  0  0  0  0
    7.7252   42.1153  130.5072 C   0  0  0  0  0  0  0  0  0  0  0  0
    7.3372   43.2837  131.1202 C   0  0  0  0  0  0  0  0  0  0  0  0
    8.2592   44.1465  131.7024 C   0  0  0  0  0  0  0  0  0  0  0  0
    9.5894   43.7442  131.6188 C   0  0  0  0  0  0  0  0  0  0  0  0
    8.8901   48.6831  131.8796 C   0  0  0  0  0  0  0  0  0  0  0  0
    9.4350   48.0015  130.8129 C   0  0  0  0  0  0  0  0  0  0  0  0
    9.9440   46.7401  131.0009 C   0  0  0  0  0  0  0  0  0  0  0  0
    9.9244   46.1194  132.2611 C   0  0  0  0  0  0  0  0  0  0  0  0
    9.3863   46.7935  133.3090 C   0  0  0  0  0  0  0  0  0  0  0  0
    8.8756   48.0553  133.1299 C   0  0  0  0  0  0  0  0  0  0  0  0
    8.3763   49.9510  131.7026 O   0  0  0  0  0  0  0  0  0  0  0  0
    8.4813   50.5682  130.4494 C   0  0  0  0  0  0  0  0  0  0  0  0
    7.7689   49.8964  129.3329 C   0  0  0  0  0  0  0  0  0  0  0  0
    6.3747   50.0235  129.2453 N   0  0  0  0  0  0  0  0  0  0  0  0
    5.7100   48.7649  128.9443 C   0  0  0  0  0  0  0  0  0  0  0  0
    4.4655   49.3834  129.5783 C   0  0  0  0  0  0  0  0  0  0  0  0
    5.5379   50.1649  130.3706 C   0  0  0  0  0  0  0  0  0  0  0  0
   12.3789   45.5311  133.4068 C   0  0  0  0  0  0  0  0  0  0  0  0
   12.0449   45.9831  134.6927 C   0  0  0  0  0  0  0  0  0  0  0  0
   12.7849   46.9547  135.3329 C   0  0  0  0  0  0  0  0  0  0  0  0
   13.8757   47.4824  134.6777 C   0  0  0  0  0  0  0  0  0  0  0  0
   14.1987   47.0419  133.4292 C   0  0  0  0  0  0  0  0  0  0  0  0
   13.4588   46.0649  132.7800 C   0  0  0  0  0  0  0  0  0  0  0  0
 19 20  1  0  0  0
 20 21  1  0  0  0
 21 22  1  0  0  0
 22 23  1  0  0  0
 23 24  1  0  0  0
 19 18  1  0  0  0
 18 12  1  0  0  0
 12 13  2  0  0  0
 13 14  1  0  0  0
 14 15  2  0  0  0
 15 16  1  0  0  0
 16 17  2  0  0  0
 15  1  1  0  0  0
  1  2  2  0  0  0
  2  3  1  0  0  0
  3  4  1  0  0  0
  4  5  1  0  0  0
  5  6  1  0  0  0
  6  7  2  0  0  0
  7  8  1  0  0  0
  8  9  2  0  0  0
  9 10  1  0  0  0
 10 11  2  0  0  0
  2 25  1  0  0  0
 25 26  2  0  0  0
 26 27  1  0  0  0
 27 28  2  0  0  0
 28 29  1  0  0  0
 29 30  2  0  0  0
 24 21  1  0  0  0
 17 12  1  0  0  0
 11  1  1  0  0  0
 30 25  1  0  0  0
 11  6  1  0  0  0
M  END
> <minimizedAffinity>
12.74826

> <CNNscore>
0.4491762519

> <CNNaffinity>
7.7496857643

> <CNN_VS>
3.4809749126

> <CNNaffinity_variance>
1.8641102314

$$$$
[H]c1c([H])c([H])c(C2=C(c3c([H])c([H])c(OC([H])([H])C([H])([H])N4C([H])([H])C([H])([H])C4([H])[H])c([H])c3[H])c3c([H])c([H])c([H])c([H])c3OC([H])([H])C2([H])[H])c([H])c1[H]


 30 34  0  0  0  0  0  0  0  0999 V2000
    9.8906   45.0450  132.2663 C   0  0  0  0  0  0  0  0  0  0  0  0
   10.7786   44.1268  131.9790 C   0  0  0  0  0  0  0  0  0  0  0  0
   10.8988   42.7550  132.6220 C   0  0  0  0  0  0  0  0  0  0  0  0
    9.6541   41.9459  132.4728 C   0  0  0  0  0  0  0  0  0  0  0  0
    8.5613   42.4203  133.2472 O   0  0  0  0  0  0  0  0  0  0  0  0
    8.2731   43.6787  133.7334 C   0  0  0  0  0  0  0  0  0  0  0  0
    7.3219   43.6937  134.7155 C   0  0  0  0  0  0  0  0  0  0  0  0
    6.9615   44.8924  135.2698 C   0  0  0  0  0  0  0  0  0  0  0  0
    7.5405   46.0684  134.8535 C   0  0  0  0  0  0  0  0  0  0  0  0
    8.5110   46.0949  133.8582 C   0  0  0  0  0  0  0  0  0  0  0  0
    8.8485   44.8560  133.3200 C   0  0  0  0  0  0  0  0  0  0  0  0
    9.5281   48.6816  130.1264 C   0  0  0  0  0  0  0  0  0  0  0  0
    8.9594   47.5093  129.6776 C   0  0  0  0  0  0  0  0  0  0  0  0
    9.1218   46.3542  130.4021 C   0  0  0  0  0  0  0  0  0  0  0  0
    9.8580   46.3339  131.5986 C   0  0  0  0  0  0  0  0  0  0  0  0
   10.4159   47.4905  132.0377 C   0  0  0  0  0  0  0  0  0  0  0  0
   10.2587   48.6499  131.3193 C   0  0  0  0  0  0  0  0  0  0  0  0
    9.3718   49.8480  129.4066 O   0  0  0  0  0  0  0  0  0  0  0  0
    8.1048   50.4393  129.3195 C   0  0  0  0  0  0  0  0  0  0  0  0
    7.1302   49.7582  128.4297 C   0  0  0  0  0  0  0  0  0  0  0  0
    6.6062   48.5178  128.8227 N   0  0  0  0  0  0  0  0  0  0  0  0
    5.6523   48.6276  129.9156 C   0  0  0  0  0  0  0  0  0  0  0  0
    5.0899   47.2935  129.4287 C   0  0  0  0  0  0  0  0  0  0  0  0
    5.6340   47.8176  128.0805 C   0  0  0  0  0  0  0  0  0  0  0  0
   11.7070   44.3849  130.9160 C   0  0  0  0  0  0  0  0  0  0  0  0
   12.0054   45.7226  130.6146 C   0  0  0  0  0  0  0  0  0  0  0  0
   12.9352   46.0574  129.6529 C   0  0  0  0  0  0  0  0  0  0  0  0
   13.5768   45.0393  128.9826 C   0  0  0  0  0  0  0  0  0  0  0  0
   13.2860   43.7410  129.2771 C   0  0  0  0  0  0  0  0  0  0  0  0
   12.3521   43.3976  130.2432 C   0  0  0  0  0  0  0  0  0  0  0  0
 19 20  1  0  0  0
 20 21  1  0  0  0
 21 22  1  0  0  0
 22 23  1  0  0  0
 23 24  1  0  0  0
 19 18  1  0  0  0
 18 12  1  0  0  0
 12 13  2  0  0  0
 13 14  1  0  0  0
 14 15  2  0  0  0
 15 16  1  0  0  0
 16 17  2  0  0  0
 15  1  1  0  0  0
  1  2  2  0  0  0
  2  3  1  0  0  0
  3  4  1  0  0  0
  4  5  1  0  0  0
  5  6  1  0  0  0
  6  7  2  0  0  0
  7  8  1  0  0  0
  8  9  2  0  0  0
  9 10  1  0  0  0
 10 11  2  0  0  0
  2 25  1  0  0  0
 25 26  2  0  0  0
 26 27  1  0  0  0
 27 28  2  0  0  0
 28 29  1  0  0  0
 29 30  2  0  0  0
 24 21  1  0  0  0
 17 12  1  0  0  0
 11  1  1  0  0  0
 30 25  1  0  0  0
 11  6  1  0  0  0
M  END
> <minimizedAffinity>
11.88969

> <CNNscore>
0.4441242814

> <CNNaffinity>
7.9864745140

> <CNN_VS>
3.5469872952

> <CNNaffinity_variance>
3.2354788780

$$$$
[H]c1c([H])c([H])c(C2=C(c3c([H])c([H])c(OC([H])([H])C([H])([H])N4C([H])([H])C([H])([H])C4([H])[H])c([H])c3[H])c3c([H])c([H])c([H])c([H])c3OC([H])([H])C2([H])[H])c([H])c1[H]


 30 34  0  0  0  0  0  0  0  0999 V2000
    9.9393   45.0806  132.0966 C   0  0  0  0  0  0  0  0  0  0  0  0
   10.3424   45.7269  133.1615 C   0  0  0  0  0  0  0  0  0  0  0  0
   11.2132   45.1734  134.2773 C   0  0  0  0  0  0  0  0  0  0  0  0
   12.5298   44.6787  133.7791 C   0  0  0  0  0  0  0  0  0  0  0  0
   12.4439   43.4919  133.0026 O   0  0  0  0  0  0  0  0  0  0  0  0
   11.4089   42.9709  132.2541 C   0  0  0  0  0  0  0  0  0  0  0  0
   11.5674   41.6540  131.9222 C   0  0  0  0  0  0  0  0  0  0  0  0
   10.5961   41.0366  131.1809 C   0  0  0  0  0  0  0  0  0  0  0  0
    9.4750   41.7201  130.7715 C   0  0  0  0  0  0  0  0  0  0  0  0
    9.2772   43.0594  131.0887 C   0  0  0  0  0  0  0  0  0  0  0  0
   10.2877   43.6503  131.8424 C   0  0  0  0  0  0  0  0  0  0  0  0
    7.2356   46.8789  129.3778 C   0  0  0  0  0  0  0  0  0  0  0  0
    6.8086   46.2654  130.5356 C   0  0  0  0  0  0  0  0  0  0  0  0
    7.7266   45.6828  131.3744 C   0  0  0  0  0  0  0  0  0  0  0  0
    9.1009   45.6949  131.0828 C   0  0  0  0  0  0  0  0  0  0  0  0
    9.5176   46.3007  129.9420 C   0  0  0  0  0  0  0  0  0  0  0  0
    8.6064   46.8853  129.0975 C   0  0  0  0  0  0  0  0  0  0  0  0
    6.3224   47.4670  128.5275 O   0  0  0  0  0  0  0  0  0  0  0  0
    5.1676   48.0567  129.0579 C   0  0  0  0  0  0  0  0  0  0  0  0
    5.0828   49.5350  128.9449 C   0  0  0  0  0  0  0  0  0  0  0  0
    6.1415   50.3135  129.4358 N   0  0  0  0  0  0  0  0  0  0  0  0
    6.6759   49.8129  130.6928 C   0  0  0  0  0  0  0  0  0  0  0  0
    7.9612   50.5535  130.3282 C   0  0  0  0  0  0  0  0  0  0  0  0
    7.4439   50.2762  128.8985 C   0  0  0  0  0  0  0  0  0  0  0  0
    9.9959   47.1132  133.2898 C   0  0  0  0  0  0  0  0  0  0  0  0
   10.6887   48.0398  132.4955 C   0  0  0  0  0  0  0  0  0  0  0  0
   10.3738   49.3822  132.5086 C   0  0  0  0  0  0  0  0  0  0  0  0
    9.3505   49.8048  133.3283 C   0  0  0  0  0  0  0  0  0  0  0  0
    8.6787   48.9035  134.0984 C   0  0  0  0  0  0  0  0  0  0  0  0
    8.9902   47.5521  134.0896 C   0  0  0  0  0  0  0  0  0  0  0  0
 19 20  1  0  0  0
 20 21  1  0  0  0
 21 22  1  0  0  0
 22 23  1  0  0  0
 23 24  1  0  0  0
 19 18  1  0  0  0
 18 12  1  0  0  0
 12 13  2  0  0  0
 13 14  1  0  0  0
 14 15  2  0  0  0
 15 16  1  0  0  0
 16 17  2  0  0  0
 15  1  1  0  0  0
  1  2  2  0  0  0
  2  3  1  0  0  0
  3  4  1  0  0  0
  4  5  1  0  0  0
  5  6  1  0  0  0
  6  7  2  0  0  0
  7  8  1  0  0  0
  8  9  2  0  0  0
  9 10  1  0  0  0
 10 11  2  0  0  0
  2 25  1  0  0  0
 25 26  2  0  0  0
 26 27  1  0  0  0
 27 28  2  0  0  0
 28 29  1  0  0  0
 29 30  2  0  0  0
 24 21  1  0  0  0
 17 12  1  0  0  0
 11  1  1  0  0  0
 30 25  1  0  0  0
 11  6  1  0  0  0
M  END
> <minimizedAffinity>
-2.51598

> <CNNscore>
0.4204099774

> <CNNaffinity>
7.6392312050

> <CNN_VS>
3.2116091251

> <CNNaffinity_variance>
0.3528913558

$$$$
[H]c1c([H])c([H])c(C2=C(c3c([H])c([H])c(OC([H])([H])C([H])([H])N4C([H])([H])C([H])([H])C4([H])[H])c([H])c3[H])c3c([H])c([H])c([H])c([H])c3OC([H])([H])C2([H])[H])c([H])c1[H]


 30 34  0  0  0  0  0  0  0  0999 V2000
   10.1436   45.4306  132.1619 C   0  0  0  0  0  0  0  0  0  0  0  0
   10.5253   44.3340  131.5569 C   0  0  0  0  0  0  0  0  0  0  0  0
   10.9846   43.0481  132.2244 C   0  0  0  0  0  0  0  0  0  0  0  0
    9.9480   42.4774  133.1332 C   0  0  0  0  0  0  0  0  0  0  0  0
    9.7361   43.2365  134.3155 O   0  0  0  0  0  0  0  0  0  0  0  0
    9.9400   44.5743  134.5828 C   0  0  0  0  0  0  0  0  0  0  0  0
    9.9489   44.8828  135.9149 C   0  0  0  0  0  0  0  0  0  0  0  0
   10.1456   46.1840  136.2918 C   0  0  0  0  0  0  0  0  0  0  0  0
   10.3326   47.1730  135.3545 C   0  0  0  0  0  0  0  0  0  0  0  0
   10.3305   46.8998  133.9911 C   0  0  0  0  0  0  0  0  0  0  0  0
   10.1265   45.5656  133.6497 C   0  0  0  0  0  0  0  0  0  0  0  0
    8.7327   48.9766  130.3261 C   0  0  0  0  0  0  0  0  0  0  0  0
    8.1248   48.4379  131.4394 C   0  0  0  0  0  0  0  0  0  0  0  0
    8.6132   47.2763  131.9852 C   0  0  0  0  0  0  0  0  0  0  0  0
    9.7250   46.6161  131.4357 C   0  0  0  0  0  0  0  0  0  0  0  0
   10.3213   47.1501  130.3398 C   0  0  0  0  0  0  0  0  0  0  0  0
    9.8393   48.3110  129.7874 C   0  0  0  0  0  0  0  0  0  0  0  0
    8.2505   50.1428  129.7690 O   0  0  0  0  0  0  0  0  0  0  0  0
    7.3260   50.0738  128.7188 C   0  0  0  0  0  0  0  0  0  0  0  0
    7.1729   48.7445  128.0747 C   0  0  0  0  0  0  0  0  0  0  0  0
    6.0465   47.9678  128.3842 N   0  0  0  0  0  0  0  0  0  0  0  0
    6.3704   46.7939  129.1800 C   0  0  0  0  0  0  0  0  0  0  0  0
    4.9143   46.8254  129.6405 C   0  0  0  0  0  0  0  0  0  0  0  0
    5.0978   48.3340  129.3601 C   0  0  0  0  0  0  0  0  0  0  0  0
   10.4587   44.2868  130.1246 C   0  0  0  0  0  0  0  0  0  0  0  0
   11.6127   44.6260  129.4016 C   0  0  0  0  0  0  0  0  0  0  0  0
   11.6546   44.5441  128.0257 C   0  0  0  0  0  0  0  0  0  0  0  0
   10.5256   44.1163  127.3625 C   0  0  0  0  0  0  0  0  0  0  0  0
    9.4062   43.7869  128.0663 C   0  0  0  0  0  0  0  0  0  0  0  0
    9.3576   43.8668  129.4500 C   0  0  0  0  0  0  0  0  0  0  0  0
 19 20  1  0  0  0
 20 21  1  0  0  0
 21 22  1  0  0  0
 22 23  1  0  0  0
 23 24  1  0  0  0
 19 18  1  0  0  0
 18 12  1  0  0  0
 12 13  2  0  0  0
 13 14  1  0  0  0
 14 15  2  0  0  0
 15 16  1  0  0  0
 16 17  2  0  0  0
 15  1  1  0  0  0
  1  2  2  0  0  0
  2  3  1  0  0  0
  3  4  1  0  0  0
  4  5  1  0  0  0
  5  6  1  0  0  0
  6  7  2  0  0  0
  7  8  1  0  0  0
  8  9  2  0  0  0
  9 10  1  0  0  0
 10 11  2  0  0  0
  2 25  1  0  0  0
 25 26  2  0  0  0
 26 27  1  0  0  0
 27 28  2  0  0  0
 28 29  1  0  0  0
 29 30  2  0  0  0
 24 21  1  0  0  0
 17 12  1  0  0  0
 11  1  1  0  0  0
 30 25  1  0  0  0
 11  6  1  0  0  0
M  END
> <minimizedAffinity>
-2.21806

> <CNNscore>
0.3951410949

> <CNNaffinity>
7.6698036194

> <CNN_VS>
3.0306546688

> <CNNaffinity_variance>
0.2860099375

$$$$
[H]c1c([H])c([H])c(C2=C(c3c([H])c([H])c(OC([H])([H])C([H])([H])N4C([H])([H])C([H])([H])C4([H])[H])c([H])c3[H])c3c([H])c([H])c([H])c([H])c3OC([H])([H])C2([H])[H])c([H])c1[H]


 30 34  0  0  0  0  0  0  0  0999 V2000
    8.2990   47.6841  130.8782 C   0  0  0  0  0  0  0  0  0  0  0  0
    9.2942   48.4508  131.2469 C   0  0  0  0  0  0  0  0  0  0  0  0
    9.4638   49.9265  130.9253 C   0  0  0  0  0  0  0  0  0  0  0  0
    8.3236   50.7513  131.4209 C   0  0  0  0  0  0  0  0  0  0  0  0
    7.1100   50.5436  130.7117 O   0  0  0  0  0  0  0  0  0  0  0  0
    6.6542   49.4579  129.9931 C   0  0  0  0  0  0  0  0  0  0  0  0
    5.5985   49.7364  129.1699 C   0  0  0  0  0  0  0  0  0  0  0  0
    5.0688   48.7292  128.4089 C   0  0  0  0  0  0  0  0  0  0  0  0
    5.5825   47.4545  128.4633 C   0  0  0  0  0  0  0  0  0  0  0  0
    6.6550   47.1316  129.2872 C   0  0  0  0  0  0  0  0  0  0  0  0
    7.1638   48.1829  130.0449 C   0  0  0  0  0  0  0  0  0  0  0  0
    8.2706   43.5138  131.6150 C   0  0  0  0  0  0  0  0  0  0  0  0
    8.5735   44.0353  130.3758 C   0  0  0  0  0  0  0  0  0  0  0  0
    8.5517   45.3953  130.1870 C   0  0  0  0  0  0  0  0  0  0  0  0
    8.2265   46.2775  131.2309 C   0  0  0  0  0  0  0  0  0  0  0  0
    7.9295   45.7602  132.4500 C   0  0  0  0  0  0  0  0  0  0  0  0
    7.9485   44.4016  132.6473 C   0  0  0  0  0  0  0  0  0  0  0  0
    8.2889   42.1492  131.8161 O   0  0  0  0  0  0  0  0  0  0  0  0
    9.4324   41.5479  132.3579 C   0  0  0  0  0  0  0  0  0  0  0  0
   10.7338   42.0985  131.9014 C   0  0  0  0  0  0  0  0  0  0  0  0
   11.3204   43.1432  132.6310 N   0  0  0  0  0  0  0  0  0  0  0  0
   10.8851   43.1777  134.0187 C   0  0  0  0  0  0  0  0  0  0  0  0
   12.1815   43.9334  134.3041 C   0  0  0  0  0  0  0  0  0  0  0  0
   12.6565   43.1197  133.0791 C   0  0  0  0  0  0  0  0  0  0  0  0
   10.3117   47.8898  132.0885 C   0  0  0  0  0  0  0  0  0  0  0  0
   11.2278   46.9995  131.5076 C   0  0  0  0  0  0  0  0  0  0  0  0
   12.2753   46.4663  132.2287 C   0  0  0  0  0  0  0  0  0  0  0  0
   12.4091   46.8290  133.5509 C   0  0  0  0  0  0  0  0  0  0  0  0
   11.5188   47.6940  134.1131 C   0  0  0  0  0  0  0  0  0  0  0  0
   10.4635   48.2339  133.3932 C   0  0  0  0  0  0  0  0  0  0  0  0
 19 20  1  0  0  0
 20 21  1  0  0  0
 21 22  1  0  0  0
 22 23  1  0  0  0
 23 24  1  0  0  0
 19 18  1  0  0  0
 18 12  1  0  0  0
 12 13  2  0  0  0
 13 14  1  0  0  0
 14 15  2  0  0  0
 15 16  1  0  0  0
 16 17  2  0  0  0
 15  1  1  0  0  0
  1  2  2  0  0  0
  2  3  1  0  0  0
  3  4  1  0  0  0
  4  5  1  0  0  0
  5  6  1  0  0  0
  6  7  2  0  0  0
  7  8  1  0  0  0
  8  9  2  0  0  0
  9 10  1  0  0  0
 10 11  2  0  0  0
  2 25  1  0  0  0
 25 26  2  0  0  0
 26 27  1  0  0  0
 27 28  2  0  0  0
 28 29  1  0  0  0
 29 30  2  0  0  0
 24 21  1  0  0  0
 17 12  1  0  0  0
 11  1  1  0  0  0
 30 25  1  0  0  0
 11  6  1  0  0  0
M  END
> <minimizedAffinity>
0.09263

> <CNNscore>
0.3665549159

> <CNNaffinity>
7.6301794052

> <CNN_VS>
2.7968797684

> <CNNaffinity_variance>
0.8815127611

$$$$
[H]c1c([H])c([H])c(C2=C(c3c([H])c([H])c(OC([H])([H])C([H])([H])N4C([H])([H])C([H])([H])C4([H])[H])c([H])c3[H])c3c([H])c([H])c([H])c([H])c3OC([H])([H])C2([H])[H])c([H])c1[H]


 30 34  0  0  0  0  0  0  0  0999 V2000
    9.9133   45.7640  131.7999 C   0  0  0  0  0  0  0  0  0  0  0  0
   10.4868   44.7027  131.2910 C   0  0  0  0  0  0  0  0  0  0  0  0
   11.0960   43.5465  132.0669 C   0  0  0  0  0  0  0  0  0  0  0  0
   10.1085   42.8825  132.9669 C   0  0  0  0  0  0  0  0  0  0  0  0
    9.7218   43.6731  134.0824 O   0  0  0  0  0  0  0  0  0  0  0  0
    9.7088   45.0406  134.2637 C   0  0  0  0  0  0  0  0  0  0  0  0
    9.5992   45.4298  135.5698 C   0  0  0  0  0  0  0  0  0  0  0  0
    9.5786   46.7670  135.8627 C   0  0  0  0  0  0  0  0  0  0  0  0
    9.6664   47.7120  134.8672 C   0  0  0  0  0  0  0  0  0  0  0  0
    9.7791   47.3565  133.5277 C   0  0  0  0  0  0  0  0  0  0  0  0
    9.7955   45.9880  133.2722 C   0  0  0  0  0  0  0  0  0  0  0  0
    7.9889   48.7157  129.4506 C   0  0  0  0  0  0  0  0  0  0  0  0
    7.3658   47.5364  129.7974 C   0  0  0  0  0  0  0  0  0  0  0  0
    8.0418   46.6055  130.5471 C   0  0  0  0  0  0  0  0  0  0  0  0
    9.3623   46.8237  130.9744 C   0  0  0  0  0  0  0  0  0  0  0  0
    9.9723   47.9866  130.6315 C   0  0  0  0  0  0  0  0  0  0  0  0
    9.3038   48.9226  129.8817 C   0  0  0  0  0  0  0  0  0  0  0  0
    7.3197   49.6579  128.6973 O   0  0  0  0  0  0  0  0  0  0  0  0
    7.3587   51.0038  129.0843 C   0  0  0  0  0  0  0  0  0  0  0  0
    6.6619   51.9584  128.1852 C   0  0  0  0  0  0  0  0  0  0  0  0
    7.3293   53.1275  127.7907 N   0  0  0  0  0  0  0  0  0  0  0  0
    7.7313   53.1048  126.3928 C   0  0  0  0  0  0  0  0  0  0  0  0
    7.7407   54.6302  126.4724 C   0  0  0  0  0  0  0  0  0  0  0  0
    6.6723   54.3517  127.5537 C   0  0  0  0  0  0  0  0  0  0  0  0
   10.5058   44.5559  129.8640 C   0  0  0  0  0  0  0  0  0  0  0  0
    9.6786   43.5765  129.2931 C   0  0  0  0  0  0  0  0  0  0  0  0
    9.5872   43.4134  127.9269 C   0  0  0  0  0  0  0  0  0  0  0  0
   10.3340   44.2423  127.1190 C   0  0  0  0  0  0  0  0  0  0  0  0
   11.1363   45.1931  127.6752 C   0  0  0  0  0  0  0  0  0  0  0  0
   11.2325   45.3624  129.0483 C   0  0  0  0  0  0  0  0  0  0  0  0
 19 20  1  0  0  0
 20 21  1  0  0  0
 21 22  1  0  0  0
 22 23  1  0  0  0
 23 24  1  0  0  0
 19 18  1  0  0  0
 18 12  1  0  0  0
 12 13  2  0  0  0
 13 14  1  0  0  0
 14 15  2  0  0  0
 15 16  1  0  0  0
 16 17  2  0  0  0
 15  1  1  0  0  0
  1  2  2  0  0  0
  2  3  1  0  0  0
  3  4  1  0  0  0
  4  5  1  0  0  0
  5  6  1  0  0  0
  6  7  2  0  0  0
  7  8  1  0  0  0
  8  9  2  0  0  0
  9 10  1  0  0  0
 10 11  2  0  0  0
  2 25  1  0  0  0
 25 26  2  0  0  0
 26 27  1  0  0  0
 27 28  2  0  0  0
 28 29  1  0  0  0
 29 30  2  0  0  0
 24 21  1  0  0  0
 17 12  1  0  0  0
 11  1  1  0  0  0
 30 25  1  0  0  0
 11  6  1  0  0  0
M  END
> <minimizedAffinity>
-1.31133

> <CNNscore>
0.3565400541

> <CNNaffinity>
7.2997980118

> <CNN_VS>
2.6026704311

> <CNNaffinity_variance>
0.3763156533

$$$$
[H]c1c([H])c([H])c(C2=C(c3c([H])c([H])c(OC([H])([H])C([H])([H])N4C([H])([H])C([H])([H])C4([H])[H])c([H])c3[H])c3c([H])c([H])c([H])c([H])c3OC([H])([H])C2([H])[H])c([H])c1[H]


 30 34  0  0  0  0  0  0  0  0999 V2000
    9.9618   45.9108  131.0148 C   0  0  0  0  0  0  0  0  0  0  0  0
   10.1884   45.5008  132.2374 C   0  0  0  0  0  0  0  0  0  0  0  0
   11.0856   44.3456  132.6502 C   0  0  0  0  0  0  0  0  0  0  0  0
   12.4930   44.5253  132.1883 C   0  0  0  0  0  0  0  0  0  0  0  0
   12.6596   44.3987  130.7829 O   0  0  0  0  0  0  0  0  0  0  0  0
   11.7736   44.5928  129.7436 C   0  0  0  0  0  0  0  0  0  0  0  0
   12.1807   44.0543  128.5546 C   0  0  0  0  0  0  0  0  0  0  0  0
   11.3741   44.1880  127.4565 C   0  0  0  0  0  0  0  0  0  0  0  0
   10.1716   44.8508  127.5368 C   0  0  0  0  0  0  0  0  0  0  0  0
    9.7226   45.4118  128.7272 C   0  0  0  0  0  0  0  0  0  0  0  0
   10.5718   45.2549  129.8192 C   0  0  0  0  0  0  0  0  0  0  0  0
    7.6788   49.3556  130.0893 C   0  0  0  0  0  0  0  0  0  0  0  0
    9.0199   49.4285  130.3982 C   0  0  0  0  0  0  0  0  0  0  0  0
    9.7094   48.2819  130.7072 C   0  0  0  0  0  0  0  0  0  0  0  0
    9.0804   47.0256  130.7173 C   0  0  0  0  0  0  0  0  0  0  0  0
    7.7598   46.9578  130.4119 C   0  0  0  0  0  0  0  0  0  0  0  0
    7.0628   48.0994  130.1021 C   0  0  0  0  0  0  0  0  0  0  0  0
    6.9760   50.5010  129.7777 O   0  0  0  0  0  0  0  0  0  0  0  0
    7.2062   51.1385  128.5516 C   0  0  0  0  0  0  0  0  0  0  0  0
    6.9763   52.6055  128.5293 C   0  0  0  0  0  0  0  0  0  0  0  0
    6.8968   53.2597  127.2909 N   0  0  0  0  0  0  0  0  0  0  0  0
    7.2832   54.6602  127.3655 C   0  0  0  0  0  0  0  0  0  0  0  0
    7.5825   54.5557  125.8713 C   0  0  0  0  0  0  0  0  0  0  0  0
    7.8408   53.0823  126.2596 C   0  0  0  0  0  0  0  0  0  0  0  0
    9.5946   46.2286  133.3219 C   0  0  0  0  0  0  0  0  0  0  0  0
   10.2173   47.4165  133.7348 C   0  0  0  0  0  0  0  0  0  0  0  0
    9.6772   48.2102  134.7247 C   0  0  0  0  0  0  0  0  0  0  0  0
    8.4963   47.8103  135.3106 C   0  0  0  0  0  0  0  0  0  0  0  0
    7.8929   46.6567  134.9079 C   0  0  0  0  0  0  0  0  0  0  0  0
    8.4308   45.8542  133.9128 C   0  0  0  0  0  0  0  0  0  0  0  0
 19 20  1  0  0  0
 20 21  1  0  0  0
 21 22  1  0  0  0
 22 23  1  0  0  0
 23 24  1  0  0  0
 19 18  1  0  0  0
 18 12  1  0  0  0
 12 13  2  0  0  0
 13 14  1  0  0  0
 14 15  2  0  0  0
 15 16  1  0  0  0
 16 17  2  0  0  0
 15  1  1  0  0  0
  1  2  2  0  0  0
  2  3  1  0  0  0
  3  4  1  0  0  0
  4  5  1  0  0  0
  5  6  1  0  0  0
  6  7  2  0  0  0
  7  8  1  0  0  0
  8  9  2  0  0  0
  9 10  1  0  0  0
 10 11  2  0  0  0
  2 25  1  0  0  0
 25 26  2  0  0  0
 26 27  1  0  0  0
 27 28  2  0  0  0
 28 29  1  0  0  0
 29 30  2  0  0  0
 24 21  1  0  0  0
 17 12  1  0  0  0
 11  1  1  0  0  0
 30 25  1  0  0  0
 11  6  1  0  0  0
M  END
> <minimizedAffinity>
-1.27001

> <CNNscore>
0.3548797369

> <CNNaffinity>
7.2615637779

> <CNN_VS>
2.5769817829

> <CNNaffinity_variance>
0.7943146825

$$$$
[H]c1c([H])c([H])c(C2=C(c3c([H])c([H])c(OC([H])([H])C([H])([H])N4C([H])([H])C([H])([H])C4([H])[H])c([H])c3[H])c3c([H])c([H])c([H])c([H])c3OC([H])([H])C2([H])[H])c([H])c1[H]


 30 34  0  0  0  0  0  0  0  0999 V2000
    9.6664   45.0064  131.0562 C   0  0  0  0  0  0  0  0  0  0  0  0
    8.8022   44.6645  130.1340 C   0  0  0  0  0  0  0  0  0  0  0  0
    8.6243   43.2800  129.5329 C   0  0  0  0  0  0  0  0  0  0  0  0
    8.3025   42.2497  130.5630 C   0  0  0  0  0  0  0  0  0  0  0  0
    9.3866   41.9402  131.4278 O   0  0  0  0  0  0  0  0  0  0  0  0
   10.4875   42.6819  131.8029 C   0  0  0  0  0  0  0  0  0  0  0  0
   11.4880   41.9463  132.3751 C   0  0  0  0  0  0  0  0  0  0  0  0
   12.6285   42.5842  132.7830 C   0  0  0  0  0  0  0  0  0  0  0  0
   12.7764   43.9424  132.6245 C   0  0  0  0  0  0  0  0  0  0  0  0
   11.7824   44.7249  132.0473 C   0  0  0  0  0  0  0  0  0  0  0  0
   10.6390   44.0387  131.6471 C   0  0  0  0  0  0  0  0  0  0  0  0
    9.8388   48.8375  132.8529 C   0  0  0  0  0  0  0  0  0  0  0  0
    9.1156   47.8027  133.4054 C   0  0  0  0  0  0  0  0  0  0  0  0
    9.0799   46.5847  132.7724 C   0  0  0  0  0  0  0  0  0  0  0  0
    9.7660   46.3620  131.5668 C   0  0  0  0  0  0  0  0  0  0  0  0
   10.4776   47.3834  131.0261 C   0  0  0  0  0  0  0  0  0  0  0  0
   10.5184   48.6046  131.6523 C   0  0  0  0  0  0  0  0  0  0  0  0
    9.8815   50.0656  133.4798 O   0  0  0  0  0  0  0  0  0  0  0  0
    9.3189   51.1819  132.8474 C   0  0  0  0  0  0  0  0  0  0  0  0
    9.1694   51.0863  131.3730 C   0  0  0  0  0  0  0  0  0  0  0  0
    8.0151   50.4875  130.8469 N   0  0  0  0  0  0  0  0  0  0  0  0
    7.0042   51.4570  130.4539 C   0  0  0  0  0  0  0  0  0  0  0  0
    6.4689   50.3735  129.5197 C   0  0  0  0  0  0  0  0  0  0  0  0
    7.9507   49.9359  129.5515 C   0  0  0  0  0  0  0  0  0  0  0  0
    7.8766   45.6555  129.6656 C   0  0  0  0  0  0  0  0  0  0  0  0
    6.6969   45.8519  130.3998 C   0  0  0  0  0  0  0  0  0  0  0  0
    5.7853   46.8282  130.0569 C   0  0  0  0  0  0  0  0  0  0  0  0
    6.0575   47.6204  128.9633 C   0  0  0  0  0  0  0  0  0  0  0  0
    7.2038   47.4285  128.2519 C   0  0  0  0  0  0  0  0  0  0  0  0
    8.1247   46.4487  128.5917 C   0  0  0  0  0  0  0  0  0  0  0  0
 19 20  1  0  0  0
 20 21  1  0  0  0
 21 22  1  0  0  0
 22 23  1  0  0  0
 23 24  1  0  0  0
 19 18  1  0  0  0
 18 12  1  0  0  0
 12 13  2  0  0  0
 13 14  1  0  0  0
 14 15  2  0  0  0
 15 16  1  0  0  0
 16 17  2  0  0  0
 15  1  1  0  0  0
  1  2  2  0  0  0
  2  3  1  0  0  0
  3  4  1  0  0  0
  4  5  1  0  0  0
  5  6  1  0  0  0
  6  7  2  0  0  0
  7  8  1  0  0  0
  8  9  2  0  0  0
  9 10  1  0  0  0
 10 11  2  0  0  0
  2 25  1  0  0  0
 25 26  2  0  0  0
 26 27  1  0  0  0
 27 28  2  0  0  0
 28 29  1  0  0  0
 29 30  2  0  0  0
 24 21  1  0  0  0
 17 12  1  0  0  0
 11  1  1  0  0  0
 30 25  1  0  0  0
 11  6  1  0  0  0
M  END
> <minimizedAffinity>
0.37763

> <CNNscore>
0.3522359133

> <CNNaffinity>
7.4332671165

> <CNN_VS>
2.6182637215

> <CNNaffinity_variance>
0.4609638155

$$$$
[H]Oc1c([H])c([H])c(/C(=C(\c2c([H])c([H])c([H])c([H])c2[H])C([H])([H])C([H])([H])[H])c2c([H])c([H])c(OC([H])([H])C([H])([H])N([H])[H])c([H])c2[H])c([H])c1[H]


 30 32  0  0  0  0  0  0  0  0999 V2000
    9.7424   46.7762  132.3001 C   0  0  0  0  0  0  0  0  0  0  0  0
    9.3091   46.7386  131.0788 C   0  0  0  0  0  0  0  0  0  0  0  0
    9.5312   45.6191  130.1425 C   0  0  0  0  0  0  0  0  0  0  0  0
   10.5445   45.5557  129.2247 C   0  0  0  0  0  0  0  0  0  0  0  0
   10.7333   44.5075  128.3614 C   0  0  0  0  0  0  0  0  0  0  0  0
    9.8718   43.4374  128.3897 C   0  0  0  0  0  0  0  0  0  0  0  0
   10.0405   42.3559  127.5210 O   0  0  0  0  0  0  0  0  0  0  0  0
    8.8385   43.4726  129.3048 C   0  0  0  0  0  0  0  0  0  0  0  0
    8.6563   44.5296  130.1692 C   0  0  0  0  0  0  0  0  0  0  0  0
   10.8158   42.3923  126.8787 H   0  0  0  0  0  0  0  0  0  0  0  0
    8.4945   47.8382  130.5008 C   0  0  0  0  0  0  0  0  0  0  0  0
    7.3192   47.6662  129.8310 C   0  0  0  0  0  0  0  0  0  0  0  0
    6.6091   48.7361  129.3292 C   0  0  0  0  0  0  0  0  0  0  0  0
    7.0898   50.0256  129.5020 C   0  0  0  0  0  0  0  0  0  0  0  0
    8.2752   50.2335  130.1734 C   0  0  0  0  0  0  0  0  0  0  0  0
    8.9561   49.1380  130.6611 C   0  0  0  0  0  0  0  0  0  0  0  0
    6.4065   51.1278  129.0137 O   0  0  0  0  0  0  0  0  0  0  0  0
    7.0652   52.3660  128.8813 C   0  0  0  0  0  0  0  0  0  0  0  0
    7.0442   52.8369  127.4438 C   0  0  0  0  0  0  0  0  0  0  0  0
    7.3850   54.2539  127.4305 N   0  0  0  0  0  0  0  0  0  0  0  0
    8.4219   54.3314  127.3343 H   0  0  0  0  0  0  0  0  0  0  0  0
    7.1708   54.6728  128.3785 H   0  0  0  0  0  0  0  0  0  0  0  0
   10.4367   45.6249  132.8916 C   0  0  0  0  0  0  0  0  0  0  0  0
    9.7701   44.5181  133.3491 C   0  0  0  0  0  0  0  0  0  0  0  0
   10.4790   43.4649  133.8989 C   0  0  0  0  0  0  0  0  0  0  0  0
   11.8494   43.4853  134.0060 C   0  0  0  0  0  0  0  0  0  0  0  0
   12.5402   44.5891  133.5525 C   0  0  0  0  0  0  0  0  0  0  0  0
   11.8351   45.6380  133.0052 C   0  0  0  0  0  0  0  0  0  0  0  0
    8.7553   47.5224  134.4752 C   0  0  0  0  0  0  0  0  0  0  0  0
    9.5217   47.9357  133.2521 C   0  0  0  0  0  0  0  0  0  0  0  0
 29 30  1  0  0  0
 30  1  1  0  0  0
  1  2  2  0  0  0
  2  3  1  0  0  0
  3  4  2  0  0  0
  4  5  1  0  0  0
  5  6  2  0  0  0
  6  7  1  0  0  0
  6  8  1  0  0  0
  8  9  2  0  0  0
  2 11  1  0  0  0
 11 12  2  0  0  0
 12 13  1  0  0  0
 13 14  2  0  0  0
 14 17  1  0  0  0
 17 18  1  0  0  0
 18 19  1  0  0  0
 19 20  1  0  0  0
 14 15  1  0  0  0
 15 16  2  0  0  0
  1 23  1  0  0  0
 23 24  2  0  0  0
 24 25  1  0  0  0
 25 26  2  0  0  0
 26 27  1  0  0  0
 27 28  2  0  0  0
  9  3  1  0  0  0
 16 11  1  0  0  0
 28 23  1  0  0  0
  7 10  1  0  0  0
 20 21  1  0  0  0
 20 22  1  0  0  0
M  END
> <minimizedAffinity>
-6.69145

> <CNNscore>
0.5471819639

> <CNNaffinity>
7.7177963257

> <CNN_VS>
4.2230391502

> <CNNaffinity_variance>
0.6932042837

$$$$
[H]Oc1c([H])c([H])c(/C(=C(\c2c([H])c([H])c([H])c([H])c2[H])C([H])([H])C([H])([H])[H])c2c([H])c([H])c(OC([H])([H])C([H])([H])N([H])[H])c([H])c2[H])c([H])c1[H]


 30 32  0  0  0  0  0  0  0  0999 V2000
    9.8414   46.8195  132.2656 C   0  0  0  0  0  0  0  0  0  0  0  0
    9.3386   46.7466  131.0728 C   0  0  0  0  0  0  0  0  0  0  0  0
    9.4827   45.5877  130.1697 C   0  0  0  0  0  0  0  0  0  0  0  0
    8.6878   44.4738  130.1928 C   0  0  0  0  0  0  0  0  0  0  0  0
    8.8387   43.4058  129.3465 C   0  0  0  0  0  0  0  0  0  0  0  0
    9.8391   43.4184  128.4046 C   0  0  0  0  0  0  0  0  0  0  0  0
   10.0159   42.3433  127.5296 O   0  0  0  0  0  0  0  0  0  0  0  0
   10.6584   44.5288  128.3571 C   0  0  0  0  0  0  0  0  0  0  0  0
   10.4995   45.5980  129.2109 C   0  0  0  0  0  0  0  0  0  0  0  0
    9.3826   41.5647  127.6163 H   0  0  0  0  0  0  0  0  0  0  0  0
    8.5168   47.8429  130.4991 C   0  0  0  0  0  0  0  0  0  0  0  0
    7.3247   47.6688  129.8602 C   0  0  0  0  0  0  0  0  0  0  0  0
    6.6089   48.7359  129.3604 C   0  0  0  0  0  0  0  0  0  0  0  0
    7.1010   50.0247  129.5034 C   0  0  0  0  0  0  0  0  0  0  0  0
    8.3035   50.2347  130.1432 C   0  0  0  0  0  0  0  0  0  0  0  0
    8.9896   49.1420  130.6299 C   0  0  0  0  0  0  0  0  0  0  0  0
    6.4126   51.1241  129.0162 O   0  0  0  0  0  0  0  0  0  0  0  0
    7.0681   52.3632  128.8759 C   0  0  0  0  0  0  0  0  0  0  0  0
    7.0462   52.8247  127.4354 C   0  0  0  0  0  0  0  0  0  0  0  0
    7.3821   54.2428  127.4132 N   0  0  0  0  0  0  0  0  0  0  0  0
    8.4187   54.3232  127.3170 H   0  0  0  0  0  0  0  0  0  0  0  0
    7.1659   54.6670  128.3584 H   0  0  0  0  0  0  0  0  0  0  0  0
   10.5429   45.6749  132.8615 C   0  0  0  0  0  0  0  0  0  0  0  0
   11.9088   45.6180  132.9601 C   0  0  0  0  0  0  0  0  0  0  0  0
   12.5131   44.5115  133.5298 C   0  0  0  0  0  0  0  0  0  0  0  0
   11.7848   43.4486  134.0090 C   0  0  0  0  0  0  0  0  0  0  0  0
   10.4093   43.4846  133.9196 C   0  0  0  0  0  0  0  0  0  0  0  0
    9.8071   44.5858  133.3525 C   0  0  0  0  0  0  0  0  0  0  0  0
    8.8168   47.7265  134.3607 C   0  0  0  0  0  0  0  0  0  0  0  0
    9.7005   48.0189  133.1828 C   0  0  0  0  0  0  0  0  0  0  0  0
 29 30  1  0  0  0
 30  1  1  0  0  0
  1  2  2  0  0  0
  2  3  1  0  0  0
  3  4  2  0  0  0
  4  5  1  0  0  0
  5  6  2  0  0  0
  6  7  1  0  0  0
  6  8  1  0  0  0
  8  9  2  0  0  0
  2 11  1  0  0  0
 11 12  2  0  0  0
 12 13  1  0  0  0
 13 14  2  0  0  0
 14 17  1  0  0  0
 17 18  1  0  0  0
 18 19  1  0  0  0
 19 20  1  0  0  0
 14 15  1  0  0  0
 15 16  2  0  0  0
  1 23  1  0  0  0
 23 24  2  0  0  0
 24 25  1  0  0  0
 25 26  2  0  0  0
 26 27  1  0  0  0
 27 28  2  0  0  0
  9  3  1  0  0  0
 16 11  1  0  0  0
 28 23  1  0  0  0
  7 10  1  0  0  0
 20 21  1  0  0  0
 20 22  1  0  0  0
M  END
> <minimizedAffinity>
-6.55178

> <CNNscore>
0.5410093069

> <CNNaffinity>
7.7147779465

> <CNN_VS>
4.1737666130

> <CNNaffinity_variance>
0.7271190882

$$$$
[H]Oc1c([H])c([H])c(/C(=C(\c2c([H])c([H])c([H])c([H])c2[H])C([H])([H])C([H])([H])[H])c2c([H])c([H])c(OC([H])([H])C([H])([H])N([H])[H])c([H])c2[H])c([H])c1[H]


 30 32  0  0  0  0  0  0  0  0999 V2000
    9.9308   45.4181  131.8179 C   0  0  0  0  0  0  0  0  0  0  0  0
    9.2888   45.3323  130.6948 C   0  0  0  0  0  0  0  0  0  0  0  0
    8.2627   46.2903  130.2383 C   0  0  0  0  0  0  0  0  0  0  0  0
    6.9117   46.0817  130.3063 C   0  0  0  0  0  0  0  0  0  0  0  0
    5.9734   46.9834  129.8748 C   0  0  0  0  0  0  0  0  0  0  0  0
    6.3765   48.1807  129.3343 C   0  0  0  0  0  0  0  0  0  0  0  0
    5.4418   49.1179  128.8861 O   0  0  0  0  0  0  0  0  0  0  0  0
    7.7338   48.4201  129.2515 C   0  0  0  0  0  0  0  0  0  0  0  0
    8.6700   47.5087  129.6881 C   0  0  0  0  0  0  0  0  0  0  0  0
    4.4667   48.8816  128.9769 H   0  0  0  0  0  0  0  0  0  0  0  0
    9.5587   44.2468  129.7175 C   0  0  0  0  0  0  0  0  0  0  0  0
    9.1920   42.9436  129.8814 C   0  0  0  0  0  0  0  0  0  0  0  0
    9.4669   41.9888  128.9256 C   0  0  0  0  0  0  0  0  0  0  0  0
   10.1327   42.3477  127.7630 C   0  0  0  0  0  0  0  0  0  0  0  0
   10.5180   43.6563  127.5671 C   0  0  0  0  0  0  0  0  0  0  0  0
   10.2245   44.5822  128.5459 C   0  0  0  0  0  0  0  0  0  0  0  0
   10.4274   41.4190  126.7778 O   0  0  0  0  0  0  0  0  0  0  0  0
   10.5453   40.0539  127.1058 C   0  0  0  0  0  0  0  0  0  0  0  0
   10.8855   39.2327  125.8817 C   0  0  0  0  0  0  0  0  0  0  0  0
   12.3050   38.9070  125.9398 N   0  0  0  0  0  0  0  0  0  0  0  0
   12.4034   38.0011  126.4499 H   0  0  0  0  0  0  0  0  0  0  0  0
   12.8003   39.6150  126.5510 H   0  0  0  0  0  0  0  0  0  0  0  0
    9.7398   46.5679  132.7118 C   0  0  0  0  0  0  0  0  0  0  0  0
   10.3623   47.7717  132.5070 C   0  0  0  0  0  0  0  0  0  0  0  0
   10.1449   48.8183  133.3853 C   0  0  0  0  0  0  0  0  0  0  0  0
    9.3146   48.6961  134.4740 C   0  0  0  0  0  0  0  0  0  0  0  0
    8.6784   47.4937  134.6995 C   0  0  0  0  0  0  0  0  0  0  0  0
    8.8946   46.4513  133.8256 C   0  0  0  0  0  0  0  0  0  0  0  0
   12.3480   44.7711  131.7907 C   0  0  0  0  0  0  0  0  0  0  0  0
   10.9744   44.4226  132.2864 C   0  0  0  0  0  0  0  0  0  0  0  0
 29 30  1  0  0  0
 30  1  1  0  0  0
  1  2  2  0  0  0
  2  3  1  0  0  0
  3  4  2  0  0  0
  4  5  1  0  0  0
  5  6  2  0  0  0
  6  7  1  0  0  0
  6  8  1  0  0  0
  8  9  2  0  0  0
  2 11  1  0  0  0
 11 12  2  0  0  0
 12 13  1  0  0  0
 13 14  2  0  0  0
 14 17  1  0  0  0
 17 18  1  0  0  0
 18 19  1  0  0  0
 19 20  1  0  0  0
 14 15  1  0  0  0
 15 16  2  0  0  0
  1 23  1  0  0  0
 23 24  2  0  0  0
 24 25  1  0  0  0
 25 26  2  0  0  0
 26 27  1  0  0  0
 27 28  2  0  0  0
  9  3  1  0  0  0
 16 11  1  0  0  0
 28 23  1  0  0  0
  7 10  1  0  0  0
 20 21  1  0  0  0
 20 22  1  0  0  0
M  END
> <minimizedAffinity>
3.52712

> <CNNscore>
0.4743777812

> <CNNaffinity>
7.6677451134

> <CNN_VS>
3.6374080181

> <CNNaffinity_variance>
1.7528194189

$$$$
[H]Oc1c([H])c([H])c(/C(=C(\c2c([H])c([H])c([H])c([H])c2[H])C([H])([H])C([H])([H])[H])c2c([H])c([H])c(OC([H])([H])C([H])([H])N([H])[H])c([H])c2[H])c([H])c1[H]


 30 32  0  0  0  0  0  0  0  0999 V2000
   11.0849   45.0228  130.7906 C   0  0  0  0  0  0  0  0  0  0  0  0
   10.3801   45.9761  131.3154 C   0  0  0  0  0  0  0  0  0  0  0  0
    9.1355   46.5180  130.7353 C   0  0  0  0  0  0  0  0  0  0  0  0
    7.8797   46.0357  130.9875 C   0  0  0  0  0  0  0  0  0  0  0  0
    6.7348   46.5515  130.4370 C   0  0  0  0  0  0  0  0  0  0  0  0
    6.8139   47.6177  129.5739 C   0  0  0  0  0  0  0  0  0  0  0  0
    5.6632   48.1630  128.9981 O   0  0  0  0  0  0  0  0  0  0  0  0
    8.0678   48.1262  129.2991 C   0  0  0  0  0  0  0  0  0  0  0  0
    9.2131   47.6023  129.8570 C   0  0  0  0  0  0  0  0  0  0  0  0
    4.7792   47.7459  129.2419 H   0  0  0  0  0  0  0  0  0  0  0  0
   10.7531   46.6083  132.6068 C   0  0  0  0  0  0  0  0  0  0  0  0
   11.0893   45.9259  133.7385 C   0  0  0  0  0  0  0  0  0  0  0  0
   11.4358   46.5798  134.9018 C   0  0  0  0  0  0  0  0  0  0  0  0
   11.4470   47.9662  134.9371 C   0  0  0  0  0  0  0  0  0  0  0  0
   11.1113   48.6857  133.8107 C   0  0  0  0  0  0  0  0  0  0  0  0
   10.7710   47.9956  132.6663 C   0  0  0  0  0  0  0  0  0  0  0  0
   11.7897   48.6615  136.0857 O   0  0  0  0  0  0  0  0  0  0  0  0
   13.0895   49.1843  136.2341 C   0  0  0  0  0  0  0  0  0  0  0  0
   14.1316   48.1130  135.9995 C   0  0  0  0  0  0  0  0  0  0  0  0
   15.0775   48.1565  137.1075 N   0  0  0  0  0  0  0  0  0  0  0  0
   14.7280   47.5112  137.8503 H   0  0  0  0  0  0  0  0  0  0  0  0
   15.0505   49.1170  137.5512 H   0  0  0  0  0  0  0  0  0  0  0  0
   10.6310   44.3256  129.5802 C   0  0  0  0  0  0  0  0  0  0  0  0
   11.0040   44.7172  128.3207 C   0  0  0  0  0  0  0  0  0  0  0  0
   10.5420   44.0218  127.2176 C   0  0  0  0  0  0  0  0  0  0  0  0
    9.7092   42.9347  127.3372 C   0  0  0  0  0  0  0  0  0  0  0  0
    9.3209   42.5236  128.5947 C   0  0  0  0  0  0  0  0  0  0  0  0
    9.7804   43.2155  129.6934 C   0  0  0  0  0  0  0  0  0  0  0  0
   12.1539   43.1777  132.1003 C   0  0  0  0  0  0  0  0  0  0  0  0
   12.3699   44.4802  131.3855 C   0  0  0  0  0  0  0  0  0  0  0  0
 29 30  1  0  0  0
 30  1  1  0  0  0
  1  2  2  0  0  0
  2  3  1  0  0  0
  3  4  2  0  0  0
  4  5  1  0  0  0
  5  6  2  0  0  0
  6  7  1  0  0  0
  6  8  1  0  0  0
  8  9  2  0  0  0
  2 11  1  0  0  0
 11 12  2  0  0  0
 12 13  1  0  0  0
 13 14  2  0  0  0
 14 17  1  0  0  0
 17 18  1  0  0  0
 18 19  1  0  0  0
 19 20  1  0  0  0
 14 15  1  0  0  0
 15 16  2  0  0  0
  1 23  1  0  0  0
 23 24  2  0  0  0
 24 25  1  0  0  0
 25 26  2  0  0  0
 26 27  1  0  0  0
 27 28  2  0  0  0
  9  3  1  0  0  0
 16 11  1  0  0  0
 28 23  1  0  0  0
  7 10  1  0  0  0
 20 21  1  0  0  0
 20 22  1  0  0  0
M  END
> <minimizedAffinity>
2.77305

> <CNNscore>
0.4401076734

> <CNNaffinity>
7.3847322464

> <CNN_VS>
3.2500772476

> <CNNaffinity_variance>
1.3763844967

$$$$
[H]Oc1c([H])c([H])c(/C(=C(\c2c([H])c([H])c([H])c([H])c2[H])C([H])([H])C([H])([H])[H])c2c([H])c([H])c(OC([H])([H])C([H])([H])N([H])[H])c([H])c2[H])c([H])c1[H]


 30 32  0  0  0  0  0  0  0  0999 V2000
   10.2357   44.9626  130.3698 C   0  0  0  0  0  0  0  0  0  0  0  0
    9.5252   45.8114  131.0449 C   0  0  0  0  0  0  0  0  0  0  0  0
    8.6114   46.8051  130.4475 C   0  0  0  0  0  0  0  0  0  0  0  0
    7.3657   46.5257  129.9542 C   0  0  0  0  0  0  0  0  0  0  0  0
    6.5318   47.4627  129.4008 C   0  0  0  0  0  0  0  0  0  0  0  0
    6.9378   48.7729  129.3184 C   0  0  0  0  0  0  0  0  0  0  0  0
    6.1084   49.7484  128.7587 O   0  0  0  0  0  0  0  0  0  0  0  0
    8.1906   49.0859  129.8072 C   0  0  0  0  0  0  0  0  0  0  0  0
    9.0220   48.1382  130.3624 C   0  0  0  0  0  0  0  0  0  0  0  0
    5.2058   49.4536  128.4221 H   0  0  0  0  0  0  0  0  0  0  0  0
    9.5395   45.8410  132.5300 C   0  0  0  0  0  0  0  0  0  0  0  0
    8.5057   45.4444  133.3259 C   0  0  0  0  0  0  0  0  0  0  0  0
    8.5926   45.4896  134.7011 C   0  0  0  0  0  0  0  0  0  0  0  0
    9.7543   45.9478  135.3046 C   0  0  0  0  0  0  0  0  0  0  0  0
   10.8171   46.3570  134.5286 C   0  0  0  0  0  0  0  0  0  0  0  0
   10.6920   46.2963  133.1566 C   0  0  0  0  0  0  0  0  0  0  0  0
    9.8824   46.0084  136.6830 O   0  0  0  0  0  0  0  0  0  0  0  0
   10.1824   44.8438  137.4168 C   0  0  0  0  0  0  0  0  0  0  0  0
   11.3895   44.1385  136.8391 C   0  0  0  0  0  0  0  0  0  0  0  0
   10.9265   43.2505  135.7801 N   0  0  0  0  0  0  0  0  0  0  0  0
   10.9390   43.7882  134.8851 H   0  0  0  0  0  0  0  0  0  0  0  0
    9.9062   43.0191  135.9406 H   0  0  0  0  0  0  0  0  0  0  0  0
   10.1112   44.8653  128.9096 C   0  0  0  0  0  0  0  0  0  0  0  0
   10.6155   45.8173  128.0621 C   0  0  0  0  0  0  0  0  0  0  0  0
   10.4651   45.6718  126.6945 C   0  0  0  0  0  0  0  0  0  0  0  0
    9.8188   44.5912  126.1428 C   0  0  0  0  0  0  0  0  0  0  0  0
    9.3034   43.6217  126.9768 C   0  0  0  0  0  0  0  0  0  0  0  0
    9.4526   43.7660  128.3384 C   0  0  0  0  0  0  0  0  0  0  0  0
   12.6205   44.2918  130.7227 C   0  0  0  0  0  0  0  0  0  0  0  0
   11.1825   43.9534  130.9899 C   0  0  0  0  0  0  0  0  0  0  0  0
 29 30  1  0  0  0
 30  1  1  0  0  0
  1  2  2  0  0  0
  2  3  1  0  0  0
  3  4  2  0  0  0
  4  5  1  0  0  0
  5  6  2  0  0  0
  6  7  1  0  0  0
  6  8  1  0  0  0
  8  9  2  0  0  0
  2 11  1  0  0  0
 11 12  2  0  0  0
 12 13  1  0  0  0
 13 14  2  0  0  0
 14 17  1  0  0  0
 17 18  1  0  0  0
 18 19  1  0  0  0
 19 20  1  0  0  0
 14 15  1  0  0  0
 15 16  2  0  0  0
  1 23  1  0  0  0
 23 24  2  0  0  0
 24 25  1  0  0  0
 25 26  2  0  0  0
 26 27  1  0  0  0
 27 28  2  0  0  0
  9  3  1  0  0  0
 16 11  1  0  0  0
 28 23  1  0  0  0
  7 10  1  0  0  0
 20 21  1  0  0  0
 20 22  1  0  0  0
M  END
> <minimizedAffinity>
5.15563

> <CNNscore>
0.4322454035

> <CNNaffinity>
7.6664018631

> <CNN_VS>
3.3137669563

> <CNNaffinity_variance>
1.5659829378

$$$$
[H]Oc1c([H])c([H])c(/C(=C(\c2c([H])c([H])c([H])c([H])c2[H])C([H])([H])C([H])([H])[H])c2c([H])c([H])c(OC([H])([H])C([H])([H])N([H])[H])c([H])c2[H])c([H])c1[H]


 30 32  0  0  0  0  0  0  0  0999 V2000
    9.4346   46.9368  132.1544 C   0  0  0  0  0  0  0  0  0  0  0  0
    8.8795   46.7395  130.9995 C   0  0  0  0  0  0  0  0  0  0  0  0
    9.2160   45.6315  130.0839 C   0  0  0  0  0  0  0  0  0  0  0  0
   10.1000   45.7176  129.0426 C   0  0  0  0  0  0  0  0  0  0  0  0
   10.3982   44.6771  128.2011 C   0  0  0  0  0  0  0  0  0  0  0  0
    9.7912   43.4579  128.3830 C   0  0  0  0  0  0  0  0  0  0  0  0
   10.0761   42.3804  127.5400 O   0  0  0  0  0  0  0  0  0  0  0  0
    8.8934   43.3399  129.4253 C   0  0  0  0  0  0  0  0  0  0  0  0
    8.5999   44.3904  130.2666 C   0  0  0  0  0  0  0  0  0  0  0  0
   10.7419   42.5330  126.7996 H   0  0  0  0  0  0  0  0  0  0  0  0
    7.7959   47.6179  130.4891 C   0  0  0  0  0  0  0  0  0  0  0  0
    6.6696   47.1777  129.8589 C   0  0  0  0  0  0  0  0  0  0  0  0
    5.6977   48.0514  129.4196 C   0  0  0  0  0  0  0  0  0  0  0  0
    5.8557   49.4152  129.6164 C   0  0  0  0  0  0  0  0  0  0  0  0
    6.9830   49.8927  130.2491 C   0  0  0  0  0  0  0  0  0  0  0  0
    7.9323   48.9874  130.6745 C   0  0  0  0  0  0  0  0  0  0  0  0
    4.9025   50.3264  129.1908 O   0  0  0  0  0  0  0  0  0  0  0  0
    3.9959   49.9764  128.1708 C   0  0  0  0  0  0  0  0  0  0  0  0
    2.7634   50.8521  128.2210 C   0  0  0  0  0  0  0  0  0  0  0  0
    2.6216   51.5026  126.9245 N   0  0  0  0  0  0  0  0  0  0  0  0
    2.0343   50.8853  126.3208 H   0  0  0  0  0  0  0  0  0  0  0  0
    3.5641   51.5309  126.4439 H   0  0  0  0  0  0  0  0  0  0  0  0
   10.4135   45.9847  132.6952 C   0  0  0  0  0  0  0  0  0  0  0  0
   11.6690   45.8379  132.1650 C   0  0  0  0  0  0  0  0  0  0  0  0
   12.5472   44.9221  132.7164 C   0  0  0  0  0  0  0  0  0  0  0  0
   12.2042   44.1402  133.7938 C   0  0  0  0  0  0  0  0  0  0  0  0
   10.9461   44.2711  134.3428 C   0  0  0  0  0  0  0  0  0  0  0  0
   10.0713   45.1825  133.7942 C   0  0  0  0  0  0  0  0  0  0  0  0
   10.2355   49.0477  133.2336 C   0  0  0  0  0  0  0  0  0  0  0  0
    9.0931   48.0852  133.0840 C   0  0  0  0  0  0  0  0  0  0  0  0
 29 30  1  0  0  0
 30  1  1  0  0  0
  1  2  2  0  0  0
  2  3  1  0  0  0
  3  4  2  0  0  0
  4  5  1  0  0  0
  5  6  2  0  0  0
  6  7  1  0  0  0
  6  8  1  0  0  0
  8  9  2  0  0  0
  2 11  1  0  0  0
 11 12  2  0  0  0
 12 13  1  0  0  0
 13 14  2  0  0  0
 14 17  1  0  0  0
 17 18  1  0  0  0
 18 19  1  0  0  0
 19 20  1  0  0  0
 14 15  1  0  0  0
 15 16  2  0  0  0
  1 23  1  0  0  0
 23 24  2  0  0  0
 24 25  1  0  0  0
 25 26  2  0  0  0
 26 27  1  0  0  0
 27 28  2  0  0  0
  9  3  1  0  0  0
 16 11  1  0  0  0
 28 23  1  0  0  0
  7 10  1  0  0  0
 20 21  1  0  0  0
 20 22  1  0  0  0
M  END
> <minimizedAffinity>
-2.14131

> <CNNscore>
0.3912842870

> <CNNaffinity>
7.3899369240

> <CNN_VS>
2.8915662766

> <CNNaffinity_variance>
0.4233791232

$$$$
[H]Oc1c([H])c([H])c(/C(=C(\c2c([H])c([H])c([H])c([H])c2[H])C([H])([H])C([H])([H])[H])c2c([H])c([H])c(OC([H])([H])C([H])([H])N([H])[H])c([H])c2[H])c([H])c1[H]


 30 32  0  0  0  0  0  0  0  0999 V2000
   10.1015   46.6450  132.2852 C   0  0  0  0  0  0  0  0  0  0  0  0
    9.6723   46.6137  131.0622 C   0  0  0  0  0  0  0  0  0  0  0  0
    9.7719   45.4446  130.1664 C   0  0  0  0  0  0  0  0  0  0  0  0
    8.8632   44.4228  130.1091 C   0  0  0  0  0  0  0  0  0  0  0  0
    8.9741   43.3433  129.2711 C   0  0  0  0  0  0  0  0  0  0  0  0
   10.0509   43.2466  128.4230 C   0  0  0  0  0  0  0  0  0  0  0  0
   10.1894   42.1572  127.5588 O   0  0  0  0  0  0  0  0  0  0  0  0
   10.9857   44.2621  128.4582 C   0  0  0  0  0  0  0  0  0  0  0  0
   10.8662   45.3437  129.3029 C   0  0  0  0  0  0  0  0  0  0  0  0
    9.4709   41.4514  127.5820 H   0  0  0  0  0  0  0  0  0  0  0  0
    8.9887   47.7767  130.4404 C   0  0  0  0  0  0  0  0  0  0  0  0
    8.1838   47.7096  129.3417 C   0  0  0  0  0  0  0  0  0  0  0  0
    7.5717   48.8310  128.8235 C   0  0  0  0  0  0  0  0  0  0  0  0
    7.7704   50.0654  129.4239 C   0  0  0  0  0  0  0  0  0  0  0  0
    8.5790   50.1675  130.5352 C   0  0  0  0  0  0  0  0  0  0  0  0
    9.1731   49.0231  131.0241 C   0  0  0  0  0  0  0  0  0  0  0  0
    7.1734   51.2163  128.9349 O   0  0  0  0  0  0  0  0  0  0  0  0
    5.9472   51.6584  129.4695 C   0  0  0  0  0  0  0  0  0  0  0  0
    5.2768   50.5582  130.2624 C   0  0  0  0  0  0  0  0  0  0  0  0
    4.3296   49.8844  129.3832 N   0  0  0  0  0  0  0  0  0  0  0  0
    4.8335   49.0997  128.9134 H   0  0  0  0  0  0  0  0  0  0  0  0
    4.0579   50.5386  128.5968 H   0  0  0  0  0  0  0  0  0  0  0  0
   10.6598   45.4445  132.9212 C   0  0  0  0  0  0  0  0  0  0  0  0
    9.8746   44.4089  133.3571 C   0  0  0  0  0  0  0  0  0  0  0  0
   10.4583   43.3042  133.9512 C   0  0  0  0  0  0  0  0  0  0  0  0
   11.8183   43.2027  134.1244 C   0  0  0  0  0  0  0  0  0  0  0  0
   12.6271   44.2330  133.6938 C   0  0  0  0  0  0  0  0  0  0  0  0
   12.0466   45.3331  133.1023 C   0  0  0  0  0  0  0  0  0  0  0  0
    8.9826   47.6675  134.2763 C   0  0  0  0  0  0  0  0  0  0  0  0
   10.0077   47.8542  133.1954 C   0  0  0  0  0  0  0  0  0  0  0  0
 29 30  1  0  0  0
 30  1  1  0  0  0
  1  2  2  0  0  0
  2  3  1  0  0  0
  3  4  2  0  0  0
  4  5  1  0  0  0
  5  6  2  0  0  0
  6  7  1  0  0  0
  6  8  1  0  0  0
  8  9  2  0  0  0
  2 11  1  0  0  0
 11 12  2  0  0  0
 12 13  1  0  0  0
 13 14  2  0  0  0
 14 17  1  0  0  0
 17 18  1  0  0  0
 18 19  1  0  0  0
 19 20  1  0  0  0
 14 15  1  0  0  0
 15 16  2  0  0  0
  1 23  1  0  0  0
 23 24  2  0  0  0
 24 25  1  0  0  0
 25 26  2  0  0  0
 26 27  1  0  0  0
 27 28  2  0  0  0
  9  3  1  0  0  0
 16 11  1  0  0  0
 28 23  1  0  0  0
  7 10  1  0  0  0
 20 21  1  0  0  0
 20 22  1  0  0  0
M  END
> <minimizedAffinity>
-5.11485

> <CNNscore>
0.3844709694

> <CNNaffinity>
7.5029249191

> <CNN_VS>
2.8846569061

> <CNNaffinity_variance>
0.3596311510

$$$$
[H]Oc1c([H])c([H])c(/C(=C(\c2c([H])c([H])c([H])c([H])c2[H])C([H])([H])C([H])([H])[H])c2c([H])c([H])c(OC([H])([H])C([H])([H])N([H])[H])c([H])c2[H])c([H])c1[H]


 30 32  0  0  0  0  0  0  0  0999 V2000
    9.1133   44.6665  131.2965 C   0  0  0  0  0  0  0  0  0  0  0  0
   10.0106   45.5170  130.9059 C   0  0  0  0  0  0  0  0  0  0  0  0
   11.3281   45.1520  130.3491 C   0  0  0  0  0  0  0  0  0  0  0  0
   11.5820   44.9254  129.0235 C   0  0  0  0  0  0  0  0  0  0  0  0
   12.8132   44.5851  128.5253 C   0  0  0  0  0  0  0  0  0  0  0  0
   13.8815   44.4534  129.3793 C   0  0  0  0  0  0  0  0  0  0  0  0
   15.1472   44.1070  128.8988 O   0  0  0  0  0  0  0  0  0  0  0  0
   13.6566   44.6750  130.7235 C   0  0  0  0  0  0  0  0  0  0  0  0
   12.4163   45.0173  131.2157 C   0  0  0  0  0  0  0  0  0  0  0  0
   15.2436   43.9608  127.9068 H   0  0  0  0  0  0  0  0  0  0  0  0
    9.7754   46.9829  130.9525 C   0  0  0  0  0  0  0  0  0  0  0  0
   10.0062   47.8410  129.9181 C   0  0  0  0  0  0  0  0  0  0  0  0
    9.7546   49.1920  130.0287 C   0  0  0  0  0  0  0  0  0  0  0  0
    9.2542   49.7060  131.2157 C   0  0  0  0  0  0  0  0  0  0  0  0
    9.0109   48.8656  132.2806 C   0  0  0  0  0  0  0  0  0  0  0  0
    9.2748   47.5204  132.1310 C   0  0  0  0  0  0  0  0  0  0  0  0
    8.9873   51.0572  131.3677 O   0  0  0  0  0  0  0  0  0  0  0  0
    8.8251   51.6051  132.6554 C   0  0  0  0  0  0  0  0  0  0  0  0
    9.8577   51.0501  133.6116 C   0  0  0  0  0  0  0  0  0  0  0  0
   10.7223   50.1462  132.8635 N   0  0  0  0  0  0  0  0  0  0  0  0
   11.5195   50.7061  132.4875 H   0  0  0  0  0  0  0  0  0  0  0  0
   10.2072   49.8017  132.0055 H   0  0  0  0  0  0  0  0  0  0  0  0
    9.3154   43.2219  131.1243 C   0  0  0  0  0  0  0  0  0  0  0  0
    8.5177   42.4580  130.3127 C   0  0  0  0  0  0  0  0  0  0  0  0
    8.7559   41.1005  130.1924 C   0  0  0  0  0  0  0  0  0  0  0  0
    9.7790   40.4771  130.8665 C   0  0  0  0  0  0  0  0  0  0  0  0
   10.5936   41.2264  131.6888 C   0  0  0  0  0  0  0  0  0  0  0  0
   10.3569   42.5778  131.8092 C   0  0  0  0  0  0  0  0  0  0  0  0
    7.7794   45.0363  133.3812 C   0  0  0  0  0  0  0  0  0  0  0  0
    7.7669   45.0490  131.8800 C   0  0  0  0  0  0  0  0  0  0  0  0
 29 30  1  0  0  0
 30  1  1  0  0  0
  1  2  2  0  0  0
  2  3  1  0  0  0
  3  4  2  0  0  0
  4  5  1  0  0  0
  5  6  2  0  0  0
  6  7  1  0  0  0
  6  8  1  0  0  0
  8  9  2  0  0  0
  2 11  1  0  0  0
 11 12  2  0  0  0
 12 13  1  0  0  0
 13 14  2  0  0  0
 14 17  1  0  0  0
 17 18  1  0  0  0
 18 19  1  0  0  0
 19 20  1  0  0  0
 14 15  1  0  0  0
 15 16  2  0  0  0
  1 23  1  0  0  0
 23 24  2  0  0  0
 24 25  1  0  0  0
 25 26  2  0  0  0
 26 27  1  0  0  0
 27 28  2  0  0  0
  9  3  1  0  0  0
 16 11  1  0  0  0
 28 23  1  0  0  0
  7 10  1  0  0  0
 20 21  1  0  0  0
 20 22  1  0  0  0
M  END
> <minimizedAffinity>
8.72837

> <CNNscore>
0.3729889691

> <CNNaffinity>
7.0931634903

> <CNN_VS>
2.6456718445

> <CNNaffinity_variance>
1.8329861164

$$$$
[H]Oc1c([H])c([H])c(/C(=C(\c2c([H])c([H])c([H])c([H])c2[H])C([H])([H])C([H])([H])[H])c2c([H])c([H])c(OC([H])([H])C([H])([H])N([H])[H])c([H])c2[H])c([H])c1[H]


 30 32  0  0  0  0  0  0  0  0999 V2000
   10.5579   44.8844  130.9547 C   0  0  0  0  0  0  0  0  0  0  0  0
    9.7360   45.8017  131.3597 C   0  0  0  0  0  0  0  0  0  0  0  0
    8.6836   46.4147  130.5256 C   0  0  0  0  0  0  0  0  0  0  0  0
    8.8936   47.4009  129.6002 C   0  0  0  0  0  0  0  0  0  0  0  0
    7.9021   47.9596  128.8358 C   0  0  0  0  0  0  0  0  0  0  0  0
    6.6052   47.5291  128.9806 C   0  0  0  0  0  0  0  0  0  0  0  0
    5.5749   48.0813  128.2150 O   0  0  0  0  0  0  0  0  0  0  0  0
    6.3614   46.5351  129.9075 C   0  0  0  0  0  0  0  0  0  0  0  0
    7.3638   45.9786  130.6711 C   0  0  0  0  0  0  0  0  0  0  0  0
    5.8210   48.8020  127.5555 H   0  0  0  0  0  0  0  0  0  0  0  0
    9.7558   46.3128  132.7543 C   0  0  0  0  0  0  0  0  0  0  0  0
   10.3396   47.4812  133.1463 C   0  0  0  0  0  0  0  0  0  0  0  0
   10.3104   47.8998  134.4596 C   0  0  0  0  0  0  0  0  0  0  0  0
    9.6751   47.1235  135.4174 C   0  0  0  0  0  0  0  0  0  0  0  0
    9.0763   45.9366  135.0542 C   0  0  0  0  0  0  0  0  0  0  0  0
    9.1263   45.5523  133.7308 C   0  0  0  0  0  0  0  0  0  0  0  0
    9.6228   47.5085  136.7475 O   0  0  0  0  0  0  0  0  0  0  0  0
    8.5219   48.2452  137.2272 C   0  0  0  0  0  0  0  0  0  0  0  0
    7.4731   48.4107  136.1497 C   0  0  0  0  0  0  0  0  0  0  0  0
    7.3377   49.8346  135.8699 N   0  0  0  0  0  0  0  0  0  0  0  0
    8.0113   50.0754  135.1092 H   0  0  0  0  0  0  0  0  0  0  0  0
    7.6702   50.3878  136.7087 H   0  0  0  0  0  0  0  0  0  0  0  0
   10.4392   44.3031  129.6110 C   0  0  0  0  0  0  0  0  0  0  0  0
   11.2387   44.6906  128.5673 C   0  0  0  0  0  0  0  0  0  0  0  0
   11.0781   44.1078  127.3229 C   0  0  0  0  0  0  0  0  0  0  0  0
   10.1319   43.1386  127.0881 C   0  0  0  0  0  0  0  0  0  0  0  0
    9.3164   42.7340  128.1237 C   0  0  0  0  0  0  0  0  0  0  0  0
    9.4757   43.3138  129.3628 C   0  0  0  0  0  0  0  0  0  0  0  0
   11.4017   42.8099  132.0710 C   0  0  0  0  0  0  0  0  0  0  0  0
   11.6455   44.2687  131.8135 C   0  0  0  0  0  0  0  0  0  0  0  0
 29 30  1  0  0  0
 30  1  1  0  0  0
  1  2  2  0  0  0
  2  3  1  0  0  0
  3  4  2  0  0  0
  4  5  1  0  0  0
  5  6  2  0  0  0
  6  7  1  0  0  0
  6  8  1  0  0  0
  8  9  2  0  0  0
  2 11  1  0  0  0
 11 12  2  0  0  0
 12 13  1  0  0  0
 13 14  2  0  0  0
 14 17  1  0  0  0
 17 18  1  0  0  0
 18 19  1  0  0  0
 19 20  1  0  0  0
 14 15  1  0  0  0
 15 16  2  0  0  0
  1 23  1  0  0  0
 23 24  2  0  0  0
 24 25  1  0  0  0
 25 26  2  0  0  0
 26 27  1  0  0  0
 27 28  2  0  0  0
  9  3  1  0  0  0
 16 11  1  0  0  0
 28 23  1  0  0  0
  7 10  1  0  0  0
 20 21  1  0  0  0
 20 22  1  0  0  0
M  END
> <minimizedAffinity>
4.40763

> <CNNscore>
0.3610111177

> <CNNaffinity>
7.4731063843

> <CNN_VS>
2.6978745461

> <CNNaffinity_variance>
0.5493229032

$$$$
[H]Oc1c([H])c([H])c(-c2sc3c([H])c(O[H])c([H])c([H])c3c2Oc2c([H])c([H])c(/C([H])=C(\[H])c3nc(=O)n([H])c(C(F)(F)F)c3[H])c([H])c2[H])c([H])c1[H]


 40 44  0  0  0  0  0  0  0  0999 V2000
    7.7850   45.9882  131.1854 O   0  0  0  0  0  0  0  0  0  0  0  0
    8.4045   48.1061  132.1288 C   0  0  0  0  0  0  0  0  0  0  0  0
    9.1343   48.5894  133.6412 S   0  0  0  0  0  0  0  0  0  0  0  0
    9.3636   47.0638  134.3241 C   0  0  0  0  0  0  0  0  0  0  0  0
    9.9499   46.6247  135.5288 C   0  0  0  0  0  0  0  0  0  0  0  0
   10.0648   45.2961  135.8273 C   0  0  0  0  0  0  0  0  0  0  0  0
   10.6231   44.7991  136.9913 O   0  0  0  0  0  0  0  0  0  0  0  0
    9.5753   44.4408  134.8706 C   0  0  0  0  0  0  0  0  0  0  0  0
    9.0095   44.8532  133.7077 C   0  0  0  0  0  0  0  0  0  0  0  0
    8.8739   46.2131  133.3867 C   0  0  0  0  0  0  0  0  0  0  0  0
    8.3582   46.7673  132.2284 C   0  0  0  0  0  0  0  0  0  0  0  0
   11.6129   44.5971  137.0265 H   0  0  0  0  0  0  0  0  0  0  0  0
    6.9138   51.7786  128.0358 O   0  0  0  0  0  0  0  0  0  0  0  0
    7.3227   50.9023  129.0587 C   0  0  0  0  0  0  0  0  0  0  0  0
    7.5072   49.5624  128.7909 C   0  0  0  0  0  0  0  0  0  0  0  0
    7.8965   48.6980  129.7794 C   0  0  0  0  0  0  0  0  0  0  0  0
    8.1241   49.1206  131.0961 C   0  0  0  0  0  0  0  0  0  0  0  0
    7.9402   50.4252  131.3317 C   0  0  0  0  0  0  0  0  0  0  0  0
    7.5394   51.3475  130.3363 C   0  0  0  0  0  0  0  0  0  0  0  0
    5.9290   51.9159  127.8914 H   0  0  0  0  0  0  0  0  0  0  0  0
    8.3586   45.1260  130.2928 C   0  0  0  0  0  0  0  0  0  0  0  0
    8.1653   43.7330  130.3813 C   0  0  0  0  0  0  0  0  0  0  0  0
    8.7312   42.8346  129.5109 C   0  0  0  0  0  0  0  0  0  0  0  0
    9.5516   43.2405  128.4598 C   0  0  0  0  0  0  0  0  0  0  0  0
    9.7603   44.5658  128.3400 C   0  0  0  0  0  0  0  0  0  0  0  0
    9.1777   45.4640  129.2309 C   0  0  0  0  0  0  0  0  0  0  0  0
   10.1128   42.1930  127.6154 C   0  0  0  0  0  0  0  0  0  0  0  0
    9.4605   41.1780  127.1241 C   0  0  0  0  0  0  0  0  0  0  0  0
   10.1258   40.1890  126.2975 C   0  0  0  0  0  0  0  0  0  0  0  0
   11.4434   39.8188  126.4313 C   0  0  0  0  0  0  0  0  0  0  0  0
   12.0864   38.9355  125.5722 C   0  0  0  0  0  0  0  0  0  0  0  0
   11.3744   38.4271  124.5627 N   0  0  0  0  0  0  0  0  0  0  0  0
   10.0908   38.7692  124.4039 C   0  0  0  0  0  0  0  0  0  0  0  0
    9.4769   38.2428  123.4128 O   0  0  0  0  0  0  0  0  0  0  0  0
    9.4544   39.6252  125.2365 N   0  0  0  0  0  0  0  0  0  0  0  0
   11.8124   37.7536  123.8923 H   0  0  0  0  0  0  0  0  0  0  0  0
   13.5101   38.5320  125.7852 C   0  0  0  0  0  0  0  0  0  0  0  0
   13.9567   37.7870  124.6962 F   0  0  0  0  0  0  0  0  0  0  0  0
   13.6572   37.7866  126.9395 F   0  0  0  0  0  0  0  0  0  0  0  0
   14.2556   39.6852  125.9065 F   0  0  0  0  0  0  0  0  0  0  0  0
 13 14  1  0  0  0
 14 15  2  0  0  0
 15 16  1  0  0  0
 16 17  2  0  0  0
 17 18  1  0  0  0
 18 19  2  0  0  0
 17  2  1  0  0  0
  2  3  1  0  0  0
  3  4  1  0  0  0
  4  5  2  0  0  0
  5  6  1  0  0  0
  6  7  1  0  0  0
  6  8  2  0  0  0
  8  9  1  0  0  0
  9 10  2  0  0  0
 10 11  1  0  0  0
 11  1  1  0  0  0
  1 21  1  0  0  0
 21 22  2  0  0  0
 22 23  1  0  0  0
 23 24  2  0  0  0
 24 27  1  0  0  0
 27 28  2  0  0  0
 28 29  1  0  0  0
 29 30  1  0  0  0
 30 31  2  0  0  0
 31 32  1  0  0  0
 32 33  1  0  0  0
 33 34  2  0  0  0
 33 35  1  0  0  0
 31 37  1  0  0  0
 37 38  1  0  0  0
 37 39  1  0  0  0
 37 40  1  0  0  0
 24 25  1  0  0  0
 25 26  2  0  0  0
 19 14  1  0  0  0
 11  2  2  0  0  0
 26 21  1  0  0  0
 10  4  1  0  0  0
 35 29  2  0  0  0
 13 20  1  0  0  0
  7 12  1  0  0  0
 32 36  1  0  0  0
M  END
> <minimizedAffinity>
19.22252

> <CNNscore>
0.5214739442

> <CNNaffinity>
7.5108842850

> <CNN_VS>
3.9167304039

> <CNNaffinity_variance>
0.9573850632

$$$$
[H]Oc1c([H])c([H])c(-c2sc3c([H])c(O[H])c([H])c([H])c3c2Oc2c([H])c([H])c(/C([H])=C(\[H])c3nc(=O)n([H])c(C(F)(F)F)c3[H])c([H])c2[H])c([H])c1[H]


 40 44  0  0  0  0  0  0  0  0999 V2000
    7.7805   46.2849  130.7761 O   0  0  0  0  0  0  0  0  0  0  0  0
    9.3649   47.6016  132.0069 C   0  0  0  0  0  0  0  0  0  0  0  0
    9.7269   49.3100  132.0714 S   0  0  0  0  0  0  0  0  0  0  0  0
    8.5545   49.8700  130.9951 C   0  0  0  0  0  0  0  0  0  0  0  0
    8.1829   51.1580  130.5585 C   0  0  0  0  0  0  0  0  0  0  0  0
    7.1346   51.3500  129.7031 C   0  0  0  0  0  0  0  0  0  0  0  0
    6.7220   52.5836  129.2325 O   0  0  0  0  0  0  0  0  0  0  0  0
    6.4825   50.2047  129.3164 C   0  0  0  0  0  0  0  0  0  0  0  0
    6.8320   48.9604  129.7312 C   0  0  0  0  0  0  0  0  0  0  0  0
    7.9111   48.7414  130.6022 C   0  0  0  0  0  0  0  0  0  0  0  0
    8.3473   47.5400  131.1322 C   0  0  0  0  0  0  0  0  0  0  0  0
    6.0261   53.1086  129.7441 H   0  0  0  0  0  0  0  0  0  0  0  0
   11.7259   43.6910  135.4120 O   0  0  0  0  0  0  0  0  0  0  0  0
   11.1852   44.6870  134.5771 C   0  0  0  0  0  0  0  0  0  0  0  0
    9.9244   45.1881  134.8229 C   0  0  0  0  0  0  0  0  0  0  0  0
    9.3837   46.1511  134.0129 C   0  0  0  0  0  0  0  0  0  0  0  0
   10.0703   46.6711  132.9073 C   0  0  0  0  0  0  0  0  0  0  0  0
   11.2925   46.1707  132.6896 C   0  0  0  0  0  0  0  0  0  0  0  0
   11.8835   45.1765  133.5046 C   0  0  0  0  0  0  0  0  0  0  0  0
   11.5570   42.7289  135.1769 H   0  0  0  0  0  0  0  0  0  0  0  0
    8.3179   45.2138  130.1178 C   0  0  0  0  0  0  0  0  0  0  0  0
    8.9188   45.3501  128.8505 C   0  0  0  0  0  0  0  0  0  0  0  0
    9.4605   44.2983  128.1539 C   0  0  0  0  0  0  0  0  0  0  0  0
    9.4555   42.9983  128.6564 C   0  0  0  0  0  0  0  0  0  0  0  0
    8.8908   42.8262  129.8672 C   0  0  0  0  0  0  0  0  0  0  0  0
    8.3467   43.9042  130.5612 C   0  0  0  0  0  0  0  0  0  0  0  0
   10.0403   41.9611  127.8154 C   0  0  0  0  0  0  0  0  0  0  0  0
    9.3894   41.1903  126.9912 C   0  0  0  0  0  0  0  0  0  0  0  0
   10.0771   40.1836  126.2054 C   0  0  0  0  0  0  0  0  0  0  0  0
   11.3952   39.8291  126.3725 C   0  0  0  0  0  0  0  0  0  0  0  0
   12.0604   38.9269  125.5507 C   0  0  0  0  0  0  0  0  0  0  0  0
   11.3702   38.3831  124.5445 N   0  0  0  0  0  0  0  0  0  0  0  0
   10.0868   38.7090  124.3539 C   0  0  0  0  0  0  0  0  0  0  0  0
    9.4946   38.1486  123.3682 O   0  0  0  0  0  0  0  0  0  0  0  0
    9.4289   39.5833  125.1500 N   0  0  0  0  0  0  0  0  0  0  0  0
   11.8254   37.6942  123.9017 H   0  0  0  0  0  0  0  0  0  0  0  0
   13.4835   38.5424  125.7997 C   0  0  0  0  0  0  0  0  0  0  0  0
   14.2601   39.6878  125.9590 F   0  0  0  0  0  0  0  0  0  0  0  0
   13.9924   37.7864  124.7608 F   0  0  0  0  0  0  0  0  0  0  0  0
   13.5146   37.7864  126.9521 F   0  0  0  0  0  0  0  0  0  0  0  0
 13 14  1  0  0  0
 14 15  2  0  0  0
 15 16  1  0  0  0
 16 17  2  0  0  0
 17 18  1  0  0  0
 18 19  2  0  0  0
 17  2  1  0  0  0
  2  3  1  0  0  0
  3  4  1  0  0  0
  4  5  2  0  0  0
  5  6  1  0  0  0
  6  7  1  0  0  0
  6  8  2  0  0  0
  8  9  1  0  0  0
  9 10  2  0  0  0
 10 11  1  0  0  0
 11  1  1  0  0  0
  1 21  1  0  0  0
 21 22  2  0  0  0
 22 23  1  0  0  0
 23 24  2  0  0  0
 24 27  1  0  0  0
 27 28  2  0  0  0
 28 29  1  0  0  0
 29 30  1  0  0  0
 30 31  2  0  0  0
 31 32  1  0  0  0
 32 33  1  0  0  0
 33 34  2  0  0  0
 33 35  1  0  0  0
 31 37  1  0  0  0
 37 38  1  0  0  0
 37 39  1  0  0  0
 37 40  1  0  0  0
 24 25  1  0  0  0
 25 26  2  0  0  0
 19 14  1  0  0  0
 11  2  2  0  0  0
 26 21  1  0  0  0
 10  4  1  0  0  0
 35 29  2  0  0  0
 13 20  1  0  0  0
  7 12  1  0  0  0
 32 36  1  0  0  0
M  END
> <minimizedAffinity>
15.72419

> <CNNscore>
0.4596104026

> <CNNaffinity>
7.8284668922

> <CNN_VS>
3.5980448723

> <CNNaffinity_variance>
0.8606479764

$$$$
[H]Oc1c([H])c([H])c(-c2sc3c([H])c(O[H])c([H])c([H])c3c2Oc2c([H])c([H])c(/C([H])=C(\[H])c3nc(=O)n([H])c(C(F)(F)F)c3[H])c([H])c2[H])c([H])c1[H]


 40 44  0  0  0  0  0  0  0  0999 V2000
    7.8448   45.8204  131.4116 O   0  0  0  0  0  0  0  0  0  0  0  0
    9.4927   47.1655  132.5224 C   0  0  0  0  0  0  0  0  0  0  0  0
    9.8931   48.8660  132.4824 S   0  0  0  0  0  0  0  0  0  0  0  0
    8.7016   49.3933  131.4106 C   0  0  0  0  0  0  0  0  0  0  0  0
    8.3449   50.6639  130.9143 C   0  0  0  0  0  0  0  0  0  0  0  0
    7.2761   50.8330  130.0797 C   0  0  0  0  0  0  0  0  0  0  0  0
    6.8763   52.0483  129.5536 O   0  0  0  0  0  0  0  0  0  0  0  0
    6.5884   49.6837  129.7753 C   0  0  0  0  0  0  0  0  0  0  0  0
    6.9234   48.4561  130.2480 C   0  0  0  0  0  0  0  0  0  0  0  0
    8.0228   48.2602  131.0988 C   0  0  0  0  0  0  0  0  0  0  0  0
    8.4487   47.0796  131.6817 C   0  0  0  0  0  0  0  0  0  0  0  0
    6.2072   52.6163  130.0551 H   0  0  0  0  0  0  0  0  0  0  0  0
   11.8172   43.4764  136.1898 O   0  0  0  0  0  0  0  0  0  0  0  0
   11.2907   44.4072  135.2746 C   0  0  0  0  0  0  0  0  0  0  0  0
   10.2490   45.2309  135.6455 C   0  0  0  0  0  0  0  0  0  0  0  0
    9.7223   46.1347  134.7615 C   0  0  0  0  0  0  0  0  0  0  0  0
   10.2044   46.2693  133.4525 C   0  0  0  0  0  0  0  0  0  0  0  0
   11.2164   45.4606  133.1158 C   0  0  0  0  0  0  0  0  0  0  0  0
   11.7862   44.5159  134.0018 C   0  0  0  0  0  0  0  0  0  0  0  0
   11.4141   42.5565  136.2190 H   0  0  0  0  0  0  0  0  0  0  0  0
    8.2457   44.7885  130.6093 C   0  0  0  0  0  0  0  0  0  0  0  0
    8.6136   44.9966  129.2650 C   0  0  0  0  0  0  0  0  0  0  0  0
    9.0122   43.9861  128.4254 C   0  0  0  0  0  0  0  0  0  0  0  0
    9.0829   42.6596  128.8471 C   0  0  0  0  0  0  0  0  0  0  0  0
    8.7403   42.4188  130.1274 C   0  0  0  0  0  0  0  0  0  0  0  0
    8.3392   43.4557  130.9664 C   0  0  0  0  0  0  0  0  0  0  0  0
    9.4984   41.6719  127.8587 C   0  0  0  0  0  0  0  0  0  0  0  0
   10.7119   41.2315  127.6839 C   0  0  0  0  0  0  0  0  0  0  0  0
   11.0119   40.2479  126.6609 C   0  0  0  0  0  0  0  0  0  0  0  0
   10.1806   39.9356  125.6109 C   0  0  0  0  0  0  0  0  0  0  0  0
   10.4458   38.9269  124.6922 C   0  0  0  0  0  0  0  0  0  0  0  0
   11.5728   38.2276  124.8508 N   0  0  0  0  0  0  0  0  0  0  0  0
   12.4015   38.5055  125.8638 C   0  0  0  0  0  0  0  0  0  0  0  0
   13.4586   37.7905  125.9505 O   0  0  0  0  0  0  0  0  0  0  0  0
   12.1546   39.4874  126.7614 N   0  0  0  0  0  0  0  0  0  0  0  0
   11.8193   37.4617  124.1818 H   0  0  0  0  0  0  0  0  0  0  0  0
    9.5300   38.6539  123.5423 C   0  0  0  0  0  0  0  0  0  0  0  0
    9.2367   39.8442  122.8808 F   0  0  0  0  0  0  0  0  0  0  0  0
    8.3535   38.0628  123.9620 F   0  0  0  0  0  0  0  0  0  0  0  0
   10.1798   37.7872  122.6898 F   0  0  0  0  0  0  0  0  0  0  0  0
 13 14  1  0  0  0
 14 15  2  0  0  0
 15 16  1  0  0  0
 16 17  2  0  0  0
 17 18  1  0  0  0
 18 19  2  0  0  0
 17  2  1  0  0  0
  2  3  1  0  0  0
  3  4  1  0  0  0
  4  5  2  0  0  0
  5  6  1  0  0  0
  6  7  1  0  0  0
  6  8  2  0  0  0
  8  9  1  0  0  0
  9 10  2  0  0  0
 10 11  1  0  0  0
 11  1  1  0  0  0
  1 21  1  0  0  0
 21 22  2  0  0  0
 22 23  1  0  0  0
 23 24  2  0  0  0
 24 27  1  0  0  0
 27 28  2  0  0  0
 28 29  1  0  0  0
 29 30  1  0  0  0
 30 31  2  0  0  0
 31 32  1  0  0  0
 32 33  1  0  0  0
 33 34  2  0  0  0
 33 35  1  0  0  0
 31 37  1  0  0  0
 37 38  1  0  0  0
 37 39  1  0  0  0
 37 40  1  0  0  0
 24 25  1  0  0  0
 25 26  2  0  0  0
 19 14  1  0  0  0
 11  2  2  0  0  0
 26 21  1  0  0  0
 10  4  1  0  0  0
 35 29  2  0  0  0
 13 20  1  0  0  0
  7 12  1  0  0  0
 32 36  1  0  0  0
M  END
> <minimizedAffinity>
18.92936

> <CNNscore>
0.3881269693

> <CNNaffinity>
7.5707006454

> <CNN_VS>
2.9383931160

> <CNNaffinity_variance>
0.4838474691

$$$$
[H]Oc1c([H])c([H])c(-c2sc3c([H])c(O[H])c([H])c([H])c3c2Oc2c([H])c([H])c(/C([H])=C(\[H])c3nc(=O)n([H])c(C(F)(F)F)c3[H])c([H])c2[H])c([H])c1[H]


 40 44  0  0  0  0  0  0  0  0999 V2000
    9.0298   46.7117  132.8138 O   0  0  0  0  0  0  0  0  0  0  0  0
    8.8068   45.5106  130.7483 C   0  0  0  0  0  0  0  0  0  0  0  0
    8.2373   45.9422  129.1536 S   0  0  0  0  0  0  0  0  0  0  0  0
    7.8932   47.5711  129.4271 C   0  0  0  0  0  0  0  0  0  0  0  0
    7.4351   48.6129  128.5950 C   0  0  0  0  0  0  0  0  0  0  0  0
    7.2884   49.8895  129.0598 C   0  0  0  0  0  0  0  0  0  0  0  0
    6.8392   50.9544  128.2997 O   0  0  0  0  0  0  0  0  0  0  0  0
    7.6238   50.0699  130.3795 C   0  0  0  0  0  0  0  0  0  0  0  0
    8.0662   49.0739  131.1888 C   0  0  0  0  0  0  0  0  0  0  0  0
    8.2148   47.7545  130.7329 C   0  0  0  0  0  0  0  0  0  0  0  0
    8.6902   46.6600  131.4335 C   0  0  0  0  0  0  0  0  0  0  0  0
    7.5026   51.5232  127.7916 H   0  0  0  0  0  0  0  0  0  0  0  0
   11.3325   40.5292  131.8747 O   0  0  0  0  0  0  0  0  0  0  0  0
   10.6667   41.7336  131.5789 C   0  0  0  0  0  0  0  0  0  0  0  0
   11.2802   42.6914  130.7996 C   0  0  0  0  0  0  0  0  0  0  0  0
   10.6464   43.8710  130.5118 C   0  0  0  0  0  0  0  0  0  0  0  0
    9.3610   44.1650  130.9864 C   0  0  0  0  0  0  0  0  0  0  0  0
    8.7852   43.2200  131.7393 C   0  0  0  0  0  0  0  0  0  0  0  0
    9.4084   41.9900  132.0567 C   0  0  0  0  0  0  0  0  0  0  0  0
   11.9056   40.4915  132.6991 H   0  0  0  0  0  0  0  0  0  0  0  0
   10.0392   46.1080  133.5110 C   0  0  0  0  0  0  0  0  0  0  0  0
    9.8846   45.7332  134.8606 C   0  0  0  0  0  0  0  0  0  0  0  0
   10.8766   45.1342  135.5969 C   0  0  0  0  0  0  0  0  0  0  0  0
   12.1289   44.8489  135.0557 C   0  0  0  0  0  0  0  0  0  0  0  0
   12.3164   45.1909  133.7663 C   0  0  0  0  0  0  0  0  0  0  0  0
   11.2991   45.7969  133.0330 C   0  0  0  0  0  0  0  0  0  0  0  0
   13.1082   44.2318  135.9418 C   0  0  0  0  0  0  0  0  0  0  0  0
   14.1073   43.4827  135.5709 C   0  0  0  0  0  0  0  0  0  0  0  0
   15.0196   42.9142  136.5448 C   0  0  0  0  0  0  0  0  0  0  0  0
   15.1073   41.5747  136.8431 C   0  0  0  0  0  0  0  0  0  0  0  0
   15.9239   41.0601  137.8431 C   0  0  0  0  0  0  0  0  0  0  0  0
   16.6573   41.9258  138.5482 N   0  0  0  0  0  0  0  0  0  0  0  0
   16.5927   43.2357  138.2840 C   0  0  0  0  0  0  0  0  0  0  0  0
   17.3224   44.0010  139.0036 O   0  0  0  0  0  0  0  0  0  0  0  0
   15.8039   43.7467  137.3105 N   0  0  0  0  0  0  0  0  0  0  0  0
   17.2918   41.5864  139.3079 H   0  0  0  0  0  0  0  0  0  0  0  0
   16.0156   39.5902  138.1007 C   0  0  0  0  0  0  0  0  0  0  0  0
   17.0478   39.3330  139.0000 F   0  0  0  0  0  0  0  0  0  0  0  0
   16.2404   38.8852  136.9336 F   0  0  0  0  0  0  0  0  0  0  0  0
   14.8112   39.1858  138.6356 F   0  0  0  0  0  0  0  0  0  0  0  0
 13 14  1  0  0  0
 14 15  2  0  0  0
 15 16  1  0  0  0
 16 17  2  0  0  0
 17 18  1  0  0  0
 18 19  2  0  0  0
 17  2  1  0  0  0
  2  3  1  0  0  0
  3  4  1  0  0  0
  4  5  2  0  0  0
  5  6  1  0  0  0
  6  7  1  0  0  0
  6  8  2  0  0  0
  8  9  1  0  0  0
  9 10  2  0  0  0
 10 11  1  0  0  0
 11  1  1  0  0  0
  1 21  1  0  0  0
 21 22  2  0  0  0
 22 23  1  0  0  0
 23 24  2  0  0  0
 24 27  1  0  0  0
 27 28  2  0  0  0
 28 29  1  0  0  0
 29 30  1  0  0  0
 30 31  2  0  0  0
 31 32  1  0  0  0
 32 33  1  0  0  0
 33 34  2  0  0  0
 33 35  1  0  0  0
 31 37  1  0  0  0
 37 38  1  0  0  0
 37 39  1  0  0  0
 37 40  1  0  0  0
 24 25  1  0  0  0
 25 26  2  0  0  0
 19 14  1  0  0  0
 11  2  2  0  0  0
 26 21  1  0  0  0
 10  4  1  0  0  0
 35 29  2  0  0  0
 13 20  1  0  0  0
  7 12  1  0  0  0
 32 36  1  0  0  0
M  END
> <minimizedAffinity>
19.18140

> <CNNscore>
0.3734867871

> <CNNaffinity>
7.7943253517

> <CNN_VS>
2.9110774994

> <CNNaffinity_variance>
0.4116339684

$$$$
[H]Oc1c([H])c([H])c(-c2sc3c([H])c(O[H])c([H])c([H])c3c2Oc2c([H])c([H])c(/C([H])=C(\[H])c3nc(=O)n([H])c(C(F)(F)F)c3[H])c([H])c2[H])c([H])c1[H]


 40 44  0  0  0  0  0  0  0  0999 V2000
    8.5372   44.0293  130.1519 O   0  0  0  0  0  0  0  0  0  0  0  0
   10.4661   43.4628  131.4624 C   0  0  0  0  0  0  0  0  0  0  0  0
   10.6977   42.5938  132.9607 S   0  0  0  0  0  0  0  0  0  0  0  0
    9.0947   42.1682  133.2705 C   0  0  0  0  0  0  0  0  0  0  0  0
    8.4776   41.4084  134.2852 C   0  0  0  0  0  0  0  0  0  0  0  0
    7.1343   41.1576  134.2761 C   0  0  0  0  0  0  0  0  0  0  0  0
    6.4663   40.4261  135.2417 O   0  0  0  0  0  0  0  0  0  0  0  0
    6.4500   41.6930  133.2123 C   0  0  0  0  0  0  0  0  0  0  0  0
    7.0347   42.4254  132.2302 C   0  0  0  0  0  0  0  0  0  0  0  0
    8.4111   42.7018  132.2265 C   0  0  0  0  0  0  0  0  0  0  0  0
    9.1378   43.3947  131.2744 C   0  0  0  0  0  0  0  0  0  0  0  0
    6.3613   39.4270  135.1309 H   0  0  0  0  0  0  0  0  0  0  0  0
   15.1863   44.8703  128.5987 O   0  0  0  0  0  0  0  0  0  0  0  0
   14.0005   44.5699  129.2951 C   0  0  0  0  0  0  0  0  0  0  0  0
   14.0570   44.1102  130.5939 C   0  0  0  0  0  0  0  0  0  0  0  0
   12.9108   43.8062  131.2794 C   0  0  0  0  0  0  0  0  0  0  0  0
   11.6385   43.9425  130.7077 C   0  0  0  0  0  0  0  0  0  0  0  0
   11.6087   44.3915  129.4472 C   0  0  0  0  0  0  0  0  0  0  0  0
   12.7710   44.7161  128.7084 C   0  0  0  0  0  0  0  0  0  0  0  0
   15.6261   44.1386  128.0688 H   0  0  0  0  0  0  0  0  0  0  0  0
    8.3229   45.3518  129.8792 C   0  0  0  0  0  0  0  0  0  0  0  0
    8.9972   46.0096  128.8312 C   0  0  0  0  0  0  0  0  0  0  0  0
    8.8165   47.3374  128.5323 C   0  0  0  0  0  0  0  0  0  0  0  0
    7.9399   48.1449  129.2547 C   0  0  0  0  0  0  0  0  0  0  0  0
    7.2743   47.5526  130.2650 C   0  0  0  0  0  0  0  0  0  0  0  0
    7.4682   46.2041  130.5544 C   0  0  0  0  0  0  0  0  0  0  0  0
    7.8495   49.5446  128.8577 C   0  0  0  0  0  0  0  0  0  0  0  0
    7.2485   49.9988  127.7949 C   0  0  0  0  0  0  0  0  0  0  0  0
    7.2270   51.4178  127.4951 C   0  0  0  0  0  0  0  0  0  0  0  0
    7.5928   51.9662  126.2882 C   0  0  0  0  0  0  0  0  0  0  0  0
    7.6510   53.3342  126.0497 C   0  0  0  0  0  0  0  0  0  0  0  0
    7.3342   54.1510  127.0581 N   0  0  0  0  0  0  0  0  0  0  0  0
    6.9764   53.6487  128.2453 C   0  0  0  0  0  0  0  0  0  0  0  0
    6.6903   54.4944  129.1614 O   0  0  0  0  0  0  0  0  0  0  0  0
    6.9129   52.3189  128.4870 N   0  0  0  0  0  0  0  0  0  0  0  0
    7.3576   55.1888  126.9262 H   0  0  0  0  0  0  0  0  0  0  0  0
    8.0144   53.8805  124.7063 C   0  0  0  0  0  0  0  0  0  0  0  0
    9.1631   54.6615  124.8103 F   0  0  0  0  0  0  0  0  0  0  0  0
    6.9906   54.6424  124.1763 F   0  0  0  0  0  0  0  0  0  0  0  0
    8.2456   52.8091  123.8702 F   0  0  0  0  0  0  0  0  0  0  0  0
 13 14  1  0  0  0
 14 15  2  0  0  0
 15 16  1  0  0  0
 16 17  2  0  0  0
 17 18  1  0  0  0
 18 19  2  0  0  0
 17  2  1  0  0  0
  2  3  1  0  0  0
  3  4  1  0  0  0
  4  5  2  0  0  0
  5  6  1  0  0  0
  6  7  1  0  0  0
  6  8  2  0  0  0
  8  9  1  0  0  0
  9 10  2  0  0  0
 10 11  1  0  0  0
 11  1  1  0  0  0
  1 21  1  0  0  0
 21 22  2  0  0  0
 22 23  1  0  0  0
 23 24  2  0  0  0
 24 27  1  0  0  0
 27 28  2  0  0  0
 28 29  1  0  0  0
 29 30  1  0  0  0
 30 31  2  0  0  0
 31 32  1  0  0  0
 32 33  1  0  0  0
 33 34  2  0  0  0
 33 35  1  0  0  0
 31 37  1  0  0  0
 37 38  1  0  0  0
 37 39  1  0  0  0
 37 40  1  0  0  0
 24 25  1  0  0  0
 25 26  2  0  0  0
 19 14  1  0  0  0
 11  2  2  0  0  0
 26 21  1  0  0  0
 10  4  1  0  0  0
 35 29  2  0  0  0
 13 20  1  0  0  0
  7 12  1  0  0  0
 32 36  1  0  0  0
M  END
> <minimizedAffinity>
21.34286

> <CNNscore>
0.2861254513

> <CNNaffinity>
7.1153550148

> <CNN_VS>
2.0358841419

> <CNNaffinity_variance>
0.8114584684

$$$$
[H]Oc1c([H])c([H])c(-c2sc3c([H])c(O[H])c([H])c([H])c3c2Oc2c([H])c([H])c(/C([H])=C(\[H])c3nc(=O)n([H])c(C(F)(F)F)c3[H])c([H])c2[H])c([H])c1[H]


 40 44  0  0  0  0  0  0  0  0999 V2000
    7.6296   45.6316  131.4397 O   0  0  0  0  0  0  0  0  0  0  0  0
    9.5797   44.2492  131.6523 C   0  0  0  0  0  0  0  0  0  0  0  0
   10.7772   44.0316  132.9061 S   0  0  0  0  0  0  0  0  0  0  0  0
   10.1491   45.0914  134.0590 C   0  0  0  0  0  0  0  0  0  0  0  0
   10.5380   45.4296  135.3712 C   0  0  0  0  0  0  0  0  0  0  0  0
    9.8074   46.2964  136.1343 C   0  0  0  0  0  0  0  0  0  0  0  0
   10.1353   46.6743  137.4239 O   0  0  0  0  0  0  0  0  0  0  0  0
    8.6805   46.7964  135.5286 C   0  0  0  0  0  0  0  0  0  0  0  0
    8.2972   46.4769  134.2662 C   0  0  0  0  0  0  0  0  0  0  0  0
    9.0388   45.5959  133.4633 C   0  0  0  0  0  0  0  0  0  0  0  0
    8.7436   45.1555  132.1851 C   0  0  0  0  0  0  0  0  0  0  0  0
    9.7840   46.1413  138.2076 H   0  0  0  0  0  0  0  0  0  0  0  0
   10.2106   41.1967  126.8830 O   0  0  0  0  0  0  0  0  0  0  0  0
   10.0100   41.9251  128.0706 C   0  0  0  0  0  0  0  0  0  0  0  0
   10.0478   43.3033  128.0531 C   0  0  0  0  0  0  0  0  0  0  0  0
    9.8627   44.0234  129.2033 C   0  0  0  0  0  0  0  0  0  0  0  0
    9.6294   43.4093  130.4413 C   0  0  0  0  0  0  0  0  0  0  0  0
    9.5955   42.0713  130.4333 C   0  0  0  0  0  0  0  0  0  0  0  0
    9.7816   41.2945  129.2654 C   0  0  0  0  0  0  0  0  0  0  0  0
   11.1485   40.9305  126.6399 H   0  0  0  0  0  0  0  0  0  0  0  0
    7.5110   46.6925  130.5854 C   0  0  0  0  0  0  0  0  0  0  0  0
    6.2526   47.2116  130.2211 C   0  0  0  0  0  0  0  0  0  0  0  0
    6.0918   48.2685  129.3596 C   0  0  0  0  0  0  0  0  0  0  0  0
    7.1778   48.9155  128.7728 C   0  0  0  0  0  0  0  0  0  0  0  0
    8.3995   48.4496  129.0970 C   0  0  0  0  0  0  0  0  0  0  0  0
    8.5452   47.3770  129.9735 C   0  0  0  0  0  0  0  0  0  0  0  0
    6.8806   50.0104  127.8575 C   0  0  0  0  0  0  0  0  0  0  0  0
    7.4741   51.1699  127.8370 C   0  0  0  0  0  0  0  0  0  0  0  0
    7.0902   52.1913  126.8814 C   0  0  0  0  0  0  0  0  0  0  0  0
    7.8335   52.5497  125.7813 C   0  0  0  0  0  0  0  0  0  0  0  0
    7.4926   53.5923  124.9277 C   0  0  0  0  0  0  0  0  0  0  0  0
    6.3801   54.2782  125.2040 N   0  0  0  0  0  0  0  0  0  0  0  0
    5.6364   53.9557  126.2683 C   0  0  0  0  0  0  0  0  0  0  0  0
    4.5877   54.6605  126.4679 O   0  0  0  0  0  0  0  0  0  0  0  0
    5.9572   52.9405  127.1034 N   0  0  0  0  0  0  0  0  0  0  0  0
    6.0786   55.0684  124.5879 H   0  0  0  0  0  0  0  0  0  0  0  0
    8.3123   53.9158  123.7199 C   0  0  0  0  0  0  0  0  0  0  0  0
    7.5486   54.6497  122.8151 F   0  0  0  0  0  0  0  0  0  0  0  0
    8.7764   52.7702  123.1020 F   0  0  0  0  0  0  0  0  0  0  0  0
    9.3940   54.6607  124.1386 F   0  0  0  0  0  0  0  0  0  0  0  0
 13 14  1  0  0  0
 14 15  2  0  0  0
 15 16  1  0  0  0
 16 17  2  0  0  0
 17 18  1  0  0  0
 18 19  2  0  0  0
 17  2  1  0  0  0
  2  3  1  0  0  0
  3  4  1  0  0  0
  4  5  2  0  0  0
  5  6  1  0  0  0
  6  7  1  0  0  0
  6  8  2  0  0  0
  8  9  1  0  0  0
  9 10  2  0  0  0
 10 11  1  0  0  0
 11  1  1  0  0  0
  1 21  1  0  0  0
 21 22  2  0  0  0
 22 23  1  0  0  0
 23 24  2  0  0  0
 24 27  1  0  0  0
 27 28  2  0  0  0
 28 29  1  0  0  0
 29 30  1  0  0  0
 30 31  2  0  0  0
 31 32  1  0  0  0
 32 33  1  0  0  0
 33 34  2  0  0  0
 33 35  1  0  0  0
 31 37  1  0  0  0
 37 38  1  0  0  0
 37 39  1  0  0  0
 37 40  1  0  0  0
 24 25  1  0  0  0
 25 26  2  0  0  0
 19 14  1  0  0  0
 11  2  2  0  0  0
 26 21  1  0  0  0
 10  4  1  0  0  0
 35 29  2  0  0  0
 13 20  1  0  0  0
  7 12  1  0  0  0
 32 36  1  0  0  0
M  END
> <minimizedAffinity>
16.98551

> <CNNscore>
0.2303131819

> <CNNaffinity>
7.2826676369

> <CNN_VS>
1.6772943735

> <CNNaffinity_variance>
0.9449008703

$$$$
[H]Oc1c([H])c([H])c(-c2sc3c([H])c(O[H])c([H])c([H])c3c2Oc2c([H])c([H])c(/C([H])=C(\[H])c3nc(=O)n([H])c(C(F)(F)F)c3[H])c([H])c2[H])c([H])c1[H]


 40 44  0  0  0  0  0  0  0  0999 V2000
    7.4836   46.0576  130.9189 O   0  0  0  0  0  0  0  0  0  0  0  0
    9.7969   45.4369  131.0681 C   0  0  0  0  0  0  0  0  0  0  0  0
   10.9953   45.5317  132.3364 S   0  0  0  0  0  0  0  0  0  0  0  0
   10.0340   46.1822  133.5609 C   0  0  0  0  0  0  0  0  0  0  0  0
   10.2795   46.5037  134.9115 C   0  0  0  0  0  0  0  0  0  0  0  0
    9.2902   46.9773  135.7266 C   0  0  0  0  0  0  0  0  0  0  0  0
    9.4646   47.3165  137.0563 O   0  0  0  0  0  0  0  0  0  0  0  0
    8.0587   47.1058  135.1321 C   0  0  0  0  0  0  0  0  0  0  0  0
    7.8119   46.7988  133.8331 C   0  0  0  0  0  0  0  0  0  0  0  0
    8.8164   46.3198  132.9772 C   0  0  0  0  0  0  0  0  0  0  0  0
    8.6948   45.9329  131.6543 C   0  0  0  0  0  0  0  0  0  0  0  0
    9.3255   46.6189  137.7744 H   0  0  0  0  0  0  0  0  0  0  0  0
   11.5281   42.7886  126.3298 O   0  0  0  0  0  0  0  0  0  0  0  0
   11.0555   43.4548  127.4761 C   0  0  0  0  0  0  0  0  0  0  0  0
   11.8217   44.4323  128.0749 C   0  0  0  0  0  0  0  0  0  0  0  0
   11.3769   45.0819  129.1957 C   0  0  0  0  0  0  0  0  0  0  0  0
   10.1394   44.7929  129.7865 C   0  0  0  0  0  0  0  0  0  0  0  0
    9.4129   43.8420  129.1870 C   0  0  0  0  0  0  0  0  0  0  0  0
    9.8391   43.1505  128.0285 C   0  0  0  0  0  0  0  0  0  0  0  0
   12.0708   41.9522  126.4545 H   0  0  0  0  0  0  0  0  0  0  0  0
    6.8893   47.1499  130.3505 C   0  0  0  0  0  0  0  0  0  0  0  0
    5.5589   47.1110  129.8876 C   0  0  0  0  0  0  0  0  0  0  0  0
    4.9305   48.1826  129.3031 C   0  0  0  0  0  0  0  0  0  0  0  0
    5.5720   49.4065  129.1214 C   0  0  0  0  0  0  0  0  0  0  0  0
    6.8459   49.4851  129.5523 C   0  0  0  0  0  0  0  0  0  0  0  0
    7.4684   48.3888  130.1442 C   0  0  0  0  0  0  0  0  0  0  0  0
    4.8092   50.4634  128.4686 C   0  0  0  0  0  0  0  0  0  0  0  0
    3.7381   50.2963  127.7462 C   0  0  0  0  0  0  0  0  0  0  0  0
    3.0615   51.4254  127.1371 C   0  0  0  0  0  0  0  0  0  0  0  0
    3.2850   51.8704  125.8552 C   0  0  0  0  0  0  0  0  0  0  0  0
    2.6925   53.0083  125.3206 C   0  0  0  0  0  0  0  0  0  0  0  0
    1.8641   53.7009  126.1070 N   0  0  0  0  0  0  0  0  0  0  0  0
    1.6276   53.2954  127.3598 C   0  0  0  0  0  0  0  0  0  0  0  0
    0.8251   54.0125  128.0512 O   0  0  0  0  0  0  0  0  0  0  0  0
    2.1962   52.1874  127.8887 N   0  0  0  0  0  0  0  0  0  0  0  0
    1.3895   54.5618  125.7482 H   0  0  0  0  0  0  0  0  0  0  0  0
    2.9356   53.4272  123.9061 C   0  0  0  0  0  0  0  0  0  0  0  0
    4.0814   54.2166  123.8388 F   0  0  0  0  0  0  0  0  0  0  0  0
    1.8632   54.1344  123.3966 F   0  0  0  0  0  0  0  0  0  0  0  0
    3.1057   52.2827  123.1567 F   0  0  0  0  0  0  0  0  0  0  0  0
 13 14  1  0  0  0
 14 15  2  0  0  0
 15 16  1  0  0  0
 16 17  2  0  0  0
 17 18  1  0  0  0
 18 19  2  0  0  0
 17  2  1  0  0  0
  2  3  1  0  0  0
  3  4  1  0  0  0
  4  5  2  0  0  0
  5  6  1  0  0  0
  6  7  1  0  0  0
  6  8  2  0  0  0
  8  9  1  0  0  0
  9 10  2  0  0  0
 10 11  1  0  0  0
 11  1  1  0  0  0
  1 21  1  0  0  0
 21 22  2  0  0  0
 22 23  1  0  0  0
 23 24  2  0  0  0
 24 27  1  0  0  0
 27 28  2  0  0  0
 28 29  1  0  0  0
 29 30  1  0  0  0
 30 31  2  0  0  0
 31 32  1  0  0  0
 32 33  1  0  0  0
 33 34  2  0  0  0
 33 35  1  0  0  0
 31 37  1  0  0  0
 37 38  1  0  0  0
 37 39  1  0  0  0
 37 40  1  0  0  0
 24 25  1  0  0  0
 25 26  2  0  0  0
 19 14  1  0  0  0
 11  2  2  0  0  0
 26 21  1  0  0  0
 10  4  1  0  0  0
 35 29  2  0  0  0
 13 20  1  0  0  0
  7 12  1  0  0  0
 32 36  1  0  0  0
M  END
> <minimizedAffinity>
18.79328

> <CNNscore>
0.1692009866

> <CNNaffinity>
6.8386144638

> <CNN_VS>
1.1571003199

> <CNNaffinity_variance>
0.4959189296

$$$$
[H]Oc1c([H])c([H])c(-c2sc3c([H])c(O[H])c([H])c([H])c3c2Oc2c([H])c([H])c(/C([H])=C(\[H])c3nc(=O)n([H])c(C(F)(F)F)c3[H])c([H])c2[H])c([H])c1[H]


 40 44  0  0  0  0  0  0  0  0999 V2000
    7.2513   45.5738  130.1803 O   0  0  0  0  0  0  0  0  0  0  0  0
    9.0245   46.6570  131.3807 C   0  0  0  0  0  0  0  0  0  0  0  0
   10.4480   46.0817  132.2152 S   0  0  0  0  0  0  0  0  0  0  0  0
   10.2871   44.4309  131.9059 C   0  0  0  0  0  0  0  0  0  0  0  0
   11.0835   43.3097  132.2161 C   0  0  0  0  0  0  0  0  0  0  0  0
   10.7509   42.0545  131.7901 C   0  0  0  0  0  0  0  0  0  0  0  0
   11.4836   40.9135  132.0635 O   0  0  0  0  0  0  0  0  0  0  0  0
    9.6002   41.9797  131.0438 C   0  0  0  0  0  0  0  0  0  0  0  0
    8.8268   43.0529  130.7394 C   0  0  0  0  0  0  0  0  0  0  0  0
    9.1464   44.3487  131.1752 C   0  0  0  0  0  0  0  0  0  0  0  0
    8.4741   45.5277  130.9055 C   0  0  0  0  0  0  0  0  0  0  0  0
   12.2143   40.6224  131.4287 H   0  0  0  0  0  0  0  0  0  0  0  0
    7.9405   52.1736  130.4560 O   0  0  0  0  0  0  0  0  0  0  0  0
    8.2209   50.8225  130.7340 C   0  0  0  0  0  0  0  0  0  0  0  0
    9.0894   50.1152  129.9299 C   0  0  0  0  0  0  0  0  0  0  0  0
    9.3638   48.7978  130.1846 C   0  0  0  0  0  0  0  0  0  0  0  0
    8.7858   48.1071  131.2584 C   0  0  0  0  0  0  0  0  0  0  0  0
    7.9475   48.8144  132.0255 C   0  0  0  0  0  0  0  0  0  0  0  0
    7.6407   50.1760  131.7937 C   0  0  0  0  0  0  0  0  0  0  0  0
    7.1708   52.3847  129.8456 H   0  0  0  0  0  0  0  0  0  0  0  0
    6.5346   46.6341  129.6993 C   0  0  0  0  0  0  0  0  0  0  0  0
    7.0508   47.4837  128.7005 C   0  0  0  0  0  0  0  0  0  0  0  0
    6.3667   48.5631  128.1989 C   0  0  0  0  0  0  0  0  0  0  0  0
    5.0919   48.9037  128.6478 C   0  0  0  0  0  0  0  0  0  0  0  0
    4.5622   48.1147  129.6024 C   0  0  0  0  0  0  0  0  0  0  0  0
    5.2691   47.0226  130.0997 C   0  0  0  0  0  0  0  0  0  0  0  0
    4.4751   50.0845  128.0559 C   0  0  0  0  0  0  0  0  0  0  0  0
    3.2771   50.1458  127.5478 C   0  0  0  0  0  0  0  0  0  0  0  0
    2.7671   51.3782  126.9779 C   0  0  0  0  0  0  0  0  0  0  0  0
    3.0942   51.8551  125.7302 C   0  0  0  0  0  0  0  0  0  0  0  0
    2.6657   53.0823  125.2380 C   0  0  0  0  0  0  0  0  0  0  0  0
    1.8962   53.8317  126.0320 N   0  0  0  0  0  0  0  0  0  0  0  0
    1.5621   53.3970  127.2524 C   0  0  0  0  0  0  0  0  0  0  0  0
    0.8251   54.1722  127.9538 O   0  0  0  0  0  0  0  0  0  0  0  0
    1.9707   52.2027  127.7398 N   0  0  0  0  0  0  0  0  0  0  0  0
    1.5440   54.7610  125.7043 H   0  0  0  0  0  0  0  0  0  0  0  0
    3.0145   53.5375  123.8572 C   0  0  0  0  0  0  0  0  0  0  0  0
    1.9340   54.2157  123.2978 F   0  0  0  0  0  0  0  0  0  0  0  0
    3.3556   52.4729  123.0447 F   0  0  0  0  0  0  0  0  0  0  0  0
    4.1002   54.3807  123.9590 F   0  0  0  0  0  0  0  0  0  0  0  0
 13 14  1  0  0  0
 14 15  2  0  0  0
 15 16  1  0  0  0
 16 17  2  0  0  0
 17 18  1  0  0  0
 18 19  2  0  0  0
 17  2  1  0  0  0
  2  3  1  0  0  0
  3  4  1  0  0  0
  4  5  2  0  0  0
  5  6  1  0  0  0
  6  7  1  0  0  0
  6  8  2  0  0  0
  8  9  1  0  0  0
  9 10  2  0  0  0
 10 11  1  0  0  0
 11  1  1  0  0  0
  1 21  1  0  0  0
 21 22  2  0  0  0
 22 23  1  0  0  0
 23 24  2  0  0  0
 24 27  1  0  0  0
 27 28  2  0  0  0
 28 29  1  0  0  0
 29 30  1  0  0  0
 30 31  2  0  0  0
 31 32  1  0  0  0
 32 33  1  0  0  0
 33 34  2  0  0  0
 33 35  1  0  0  0
 31 37  1  0  0  0
 37 38  1  0  0  0
 37 39  1  0  0  0
 37 40  1  0  0  0
 24 25  1  0  0  0
 25 26  2  0  0  0
 19 14  1  0  0  0
 11  2  2  0  0  0
 26 21  1  0  0  0
 10  4  1  0  0  0
 35 29  2  0  0  0
 13 20  1  0  0  0
  7 12  1  0  0  0
 32 36  1  0  0  0
M  END
> <minimizedAffinity>
15.41874

> <CNNscore>
0.1211397797

> <CNNaffinity>
6.8704552650

> <CNN_VS>
0.8322854638

> <CNNaffinity_variance>
0.3946466148

$$$$
[H]Oc1c([H])c([H])c(-c2sc3c([H])c(O[H])c([H])c([H])c3c2Oc2c([H])c([H])c(/C([H])=C(\[H])c3nc(=O)n([H])c(C(F)(F)F)c3[H])c([H])c2[H])c([H])c1[H]


 40 44  0  0  0  0  0  0  0  0999 V2000
    9.4771   50.0467  138.0255 O   0  0  0  0  0  0  0  0  0  0  0  0
    8.9817   51.7836  136.4454 C   0  0  0  0  0  0  0  0  0  0  0  0
    7.5211   52.3068  135.6414 S   0  0  0  0  0  0  0  0  0  0  0  0
    6.4312   51.2270  136.3433 C   0  0  0  0  0  0  0  0  0  0  0  0
    5.0360   51.0568  136.2329 C   0  0  0  0  0  0  0  0  0  0  0  0
    4.3677   50.1205  136.9707 C   0  0  0  0  0  0  0  0  0  0  0  0
    3.0038   49.8984  136.9065 O   0  0  0  0  0  0  0  0  0  0  0  0
    5.1540   49.3773  137.8168 C   0  0  0  0  0  0  0  0  0  0  0  0
    6.4976   49.5336  137.9308 C   0  0  0  0  0  0  0  0  0  0  0  0
    7.2036   50.4831  137.1753 C   0  0  0  0  0  0  0  0  0  0  0  0
    8.5558   50.7734  137.2214 C   0  0  0  0  0  0  0  0  0  0  0  0
    2.3832   50.4067  137.5215 H   0  0  0  0  0  0  0  0  0  0  0  0
   14.0470   54.3418  135.9340 O   0  0  0  0  0  0  0  0  0  0  0  0
   12.7752   53.7458  136.0282 C   0  0  0  0  0  0  0  0  0  0  0  0
   12.2158   53.4979  137.2638 C   0  0  0  0  0  0  0  0  0  0  0  0
   10.9829   52.9108  137.3691 C   0  0  0  0  0  0  0  0  0  0  0  0
   10.2347   52.5350  136.2452 C   0  0  0  0  0  0  0  0  0  0  0  0
   10.7972   52.7868  135.0571 C   0  0  0  0  0  0  0  0  0  0  0  0
   12.0676   53.3920  134.9095 C   0  0  0  0  0  0  0  0  0  0  0  0
   14.8535   53.7429  135.9143 H   0  0  0  0  0  0  0  0  0  0  0  0
   10.2767   48.9784  137.7281 C   0  0  0  0  0  0  0  0  0  0  0  0
    9.7377   47.7088  137.4393 C   0  0  0  0  0  0  0  0  0  0  0  0
   10.5070   46.6102  137.1457 C   0  0  0  0  0  0  0  0  0  0  0  0
   11.8990   46.6705  137.1116 C   0  0  0  0  0  0  0  0  0  0  0  0
   12.4536   47.8681  137.3810 C   0  0  0  0  0  0  0  0  0  0  0  0
   11.6587   48.9731  137.6759 C   0  0  0  0  0  0  0  0  0  0  0  0
   12.6081   45.4331  136.8098 C   0  0  0  0  0  0  0  0  0  0  0  0
   13.5599   44.9053  137.5256 C   0  0  0  0  0  0  0  0  0  0  0  0
   14.2013   43.6679  137.1239 C   0  0  0  0  0  0  0  0  0  0  0  0
   14.5528   43.3547  135.8318 C   0  0  0  0  0  0  0  0  0  0  0  0
   15.0844   42.1273  135.4541 C   0  0  0  0  0  0  0  0  0  0  0  0
   15.2561   41.2085  136.4085 N   0  0  0  0  0  0  0  0  0  0  0  0
   14.9219   41.4816  137.6748 C   0  0  0  0  0  0  0  0  0  0  0  0
   15.1134   40.5502  138.5305 O   0  0  0  0  0  0  0  0  0  0  0  0
   14.4071   42.6742  138.0538 N   0  0  0  0  0  0  0  0  0  0  0  0
   15.6581   40.2711  136.1748 H   0  0  0  0  0  0  0  0  0  0  0  0
   15.4899   41.8503  134.0420 C   0  0  0  0  0  0  0  0  0  0  0  0
   16.2855   40.7078  133.9958 F   0  0  0  0  0  0  0  0  0  0  0  0
   16.1852   42.9133  133.4977 F   0  0  0  0  0  0  0  0  0  0  0  0
   14.3387   41.6544  133.3095 F   0  0  0  0  0  0  0  0  0  0  0  0
 13 14  1  0  0  0
 14 15  2  0  0  0
 15 16  1  0  0  0
 16 17  2  0  0  0
 17 18  1  0  0  0
 18 19  2  0  0  0
 17  2  1  0  0  0
  2  3  1  0  0  0
  3  4  1  0  0  0
  4  5  2  0  0  0
  5  6  1  0  0  0
  6  7  1  0  0  0
  6  8  2  0  0  0
  8  9  1  0  0  0
  9 10  2  0  0  0
 10 11  1  0  0  0
 11  1  1  0  0  0
  1 21  1  0  0  0
 21 22  2  0  0  0
 22 23  1  0  0  0
 23 24  2  0  0  0
 24 27  1  0  0  0
 27 28  2  0  0  0
 28 29  1  0  0  0
 29 30  1  0  0  0
 30 31  2  0  0  0
 31 32  1  0  0  0
 32 33  1  0  0  0
 33 34  2  0  0  0
 33 35  1  0  0  0
 31 37  1  0  0  0
 37 38  1  0  0  0
 37 39  1  0  0  0
 37 40  1  0  0  0
 24 25  1  0  0  0
 25 26  2  0  0  0
 19 14  1  0  0  0
 11  2  2  0  0  0
 26 21  1  0  0  0
 10  4  1  0  0  0
 35 29  2  0  0  0
 13 20  1  0  0  0
  7 12  1  0  0  0
 32 36  1  0  0  0
M  END
> <minimizedAffinity>
261.35324

> <CNNscore>
0.0808088854

> <CNNaffinity>
4.5229916573

> <CNN_VS>
0.3654979169

> <CNNaffinity_variance>
2.6875996590

$$$$
[H]Oc1c([H])c([H])c2c(c1[H])C([H])([H])C([H])([H])C([H])([H])C(c1c([H])c([H])c(F)c(OC([H])([H])[H])c1F)=C2c1c([H])c([H])c(O[C@]2([H])C([H])([H])N(C([H])([H])C([H])([H])C([H])([H])F)C([H])([H])C2([H])[H])c([H])c1[H]


 39 43  0  0  0  0  0  0  0  0999 V2000
   10.1454   47.3377  130.4270 C   0  0  0  0  0  0  0  0  0  0  0  0
    8.8905   46.9804  130.4733 C   0  0  0  0  0  0  0  0  0  0  0  0
    7.7403   47.8724  130.1542 C   0  0  0  0  0  0  0  0  0  0  0  0
    6.6766   47.1409  129.7443 C   0  0  0  0  0  0  0  0  0  0  0  0
    5.4844   47.8095  129.4239 C   0  0  0  0  0  0  0  0  0  0  0  0
    5.3852   49.1781  129.5184 C   0  0  0  0  0  0  0  0  0  0  0  0
    4.2280   49.8816  129.2143 O   0  0  0  0  0  0  0  0  0  0  0  0
    6.5124   49.8897  129.9444 C   0  0  0  0  0  0  0  0  0  0  0  0
    7.6675   49.2469  130.2552 C   0  0  0  0  0  0  0  0  0  0  0  0
    8.8083   50.1579  130.6455 C   0  0  0  0  0  0  0  0  0  0  0  0
    9.9108   49.7348  129.6510 C   0  0  0  0  0  0  0  0  0  0  0  0
   10.7908   48.6690  130.1636 C   0  0  0  0  0  0  0  0  0  0  0  0
    4.1042   50.2012  128.2611 H   0  0  0  0  0  0  0  0  0  0  0  0
   12.3443   45.1596  132.5056 C   0  0  0  0  0  0  0  0  0  0  0  0
   12.9850   44.3840  131.5745 C   0  0  0  0  0  0  0  0  0  0  0  0
   13.8976   43.4401  131.9755 F   0  0  0  0  0  0  0  0  0  0  0  0
   12.6941   44.5753  130.2456 C   0  0  0  0  0  0  0  0  0  0  0  0
   11.7700   45.5344  129.8480 C   0  0  0  0  0  0  0  0  0  0  0  0
   11.1242   46.3138  130.7598 C   0  0  0  0  0  0  0  0  0  0  0  0
   11.4321   46.1044  132.0862 C   0  0  0  0  0  0  0  0  0  0  0  0
   10.8734   46.8448  133.0823 F   0  0  0  0  0  0  0  0  0  0  0  0
   11.7969   44.1178  134.6012 C   0  0  0  0  0  0  0  0  0  0  0  0
   12.6390   44.9630  133.8461 O   0  0  0  0  0  0  0  0  0  0  0  0
    8.4922   45.6415  130.8331 C   0  0  0  0  0  0  0  0  0  0  0  0
    8.2870   45.4578  132.2160 C   0  0  0  0  0  0  0  0  0  0  0  0
    7.8708   44.2650  132.7135 C   0  0  0  0  0  0  0  0  0  0  0  0
    7.6203   43.1482  131.8913 C   0  0  0  0  0  0  0  0  0  0  0  0
    7.8395   43.3876  130.5243 C   0  0  0  0  0  0  0  0  0  0  0  0
    8.2586   44.5874  130.0201 C   0  0  0  0  0  0  0  0  0  0  0  0
    7.2254   42.0273  132.4056 O   0  0  0  0  0  0  0  0  0  0  0  0
    6.8188   40.9706  133.0235 C   0  0  0  0  0  0  0  0  0  0  0  0
    7.7414   40.4671  134.1583 C   0  0  0  0  0  0  0  0  0  0  0  0
    7.1712   41.2093  135.3399 C   0  0  0  0  0  0  0  0  0  0  0  0
    5.7368   40.8072  135.1647 N   0  0  0  0  0  0  0  0  0  0  0  0
    5.5101   41.2498  133.7930 C   0  0  0  0  0  0  0  0  0  0  0  0
    4.9589   41.5074  136.1389 C   0  0  0  0  0  0  0  0  0  0  0  0
    5.1169   42.9694  136.1048 C   0  0  0  0  0  0  0  0  0  0  0  0
    3.9017   43.8281  136.1972 C   0  0  0  0  0  0  0  0  0  0  0  0
    4.0424   45.0830  135.6682 F   0  0  0  0  0  0  0  0  0  0  0  0
 22 23  1  0  0  0
 23 14  1  0  0  0
 14 15  2  0  0  0
 15 16  1  0  0  0
 15 17  1  0  0  0
 17 18  2  0  0  0
 18 19  1  0  0  0
 19 20  2  0  0  0
 20 21  1  0  0  0
 19  1  1  0  0  0
  1  2  2  0  0  0
  2 24  1  0  0  0
 24 25  2  0  0  0
 25 26  1  0  0  0
 26 27  2  0  0  0
 27 30  1  0  0  0
 30 31  1  0  0  0
 31 32  1  0  0  0
 32 33  1  0  0  0
 33 34  1  0  0  0
 34 36  1  0  0  0
 36 37  1  0  0  0
 37 38  1  0  0  0
 38 39  1  0  0  0
 34 35  1  0  0  0
 27 28  1  0  0  0
 28 29  2  0  0  0
  2  3  1  0  0  0
  3  4  2  0  0  0
  4  5  1  0  0  0
  5  6  2  0  0  0
  6  7  1  0  0  0
  6  8  1  0  0  0
  8  9  2  0  0  0
  9 10  1  0  0  0
 10 11  1  0  0  0
 11 12  1  0  0  0
 20 14  1  0  0  0
 12  1  1  0  0  0
 29 24  1  0  0  0
  9  3  1  0  0  0
 35 31  1  0  0  0
  7 13  1  0  0  0
M  END
> <minimizedAffinity>
24.26458

> <CNNscore>
0.4211991429

> <CNNaffinity>
8.1071882248

> <CNN_VS>
3.4147408009

> <CNNaffinity_variance>
1.0561918020

$$$$
[H]Oc1c([H])c([H])c2c(c1[H])C([H])([H])C([H])([H])C([H])([H])C(c1c([H])c([H])c(F)c(OC([H])([H])[H])c1F)=C2c1c([H])c([H])c(O[C@]2([H])C([H])([H])N(C([H])([H])C([H])([H])C([H])([H])F)C([H])([H])C2([H])[H])c([H])c1[H]


 39 43  0  0  0  0  0  0  0  0999 V2000
    9.2020   48.9642  131.5636 C   0  0  0  0  0  0  0  0  0  0  0  0
    8.2173   48.2567  131.0795 C   0  0  0  0  0  0  0  0  0  0  0  0
    7.0615   48.8146  130.3224 C   0  0  0  0  0  0  0  0  0  0  0  0
    6.5404   47.8745  129.4981 C   0  0  0  0  0  0  0  0  0  0  0  0
    5.4210   48.2092  128.7197 C   0  0  0  0  0  0  0  0  0  0  0  0
    4.8563   49.4617  128.7817 C   0  0  0  0  0  0  0  0  0  0  0  0
    3.7494   49.8371  128.0330 O   0  0  0  0  0  0  0  0  0  0  0  0
    5.4323   50.3990  129.6466 C   0  0  0  0  0  0  0  0  0  0  0  0
    6.5150   50.0795  130.4014 C   0  0  0  0  0  0  0  0  0  0  0  0
    7.0522   51.2145  131.2421 C   0  0  0  0  0  0  0  0  0  0  0  0
    8.5273   51.2773  130.7907 C   0  0  0  0  0  0  0  0  0  0  0  0
    9.4309   50.4487  131.6092 C   0  0  0  0  0  0  0  0  0  0  0  0
    3.9109   50.2422  127.1187 H   0  0  0  0  0  0  0  0  0  0  0  0
   10.9015   47.0338  134.2626 C   0  0  0  0  0  0  0  0  0  0  0  0
   12.1459   46.7956  133.7395 C   0  0  0  0  0  0  0  0  0  0  0  0
   13.0753   46.0939  134.4665 F   0  0  0  0  0  0  0  0  0  0  0  0
   12.4350   47.2731  132.4843 C   0  0  0  0  0  0  0  0  0  0  0  0
   11.4887   47.9840  131.7556 C   0  0  0  0  0  0  0  0  0  0  0  0
   10.2474   48.2299  132.2601 C   0  0  0  0  0  0  0  0  0  0  0  0
    9.9803   47.7417  133.5204 C   0  0  0  0  0  0  0  0  0  0  0  0
    8.7861   47.9533  134.1382 F   0  0  0  0  0  0  0  0  0  0  0  0
    9.9963   45.2834  135.6386 C   0  0  0  0  0  0  0  0  0  0  0  0
   10.6123   46.5491  135.5291 O   0  0  0  0  0  0  0  0  0  0  0  0
    8.1664   46.8223  131.2241 C   0  0  0  0  0  0  0  0  0  0  0  0
    9.2117   46.1435  130.5646 C   0  0  0  0  0  0  0  0  0  0  0  0
    9.3292   44.7927  130.6364 C   0  0  0  0  0  0  0  0  0  0  0  0
    8.4265   43.9923  131.3648 C   0  0  0  0  0  0  0  0  0  0  0  0
    7.4072   44.7199  132.0018 C   0  0  0  0  0  0  0  0  0  0  0  0
    7.2861   46.0799  131.9314 C   0  0  0  0  0  0  0  0  0  0  0  0
    8.5730   42.7064  131.4072 O   0  0  0  0  0  0  0  0  0  0  0  0
    8.8002   41.4376  131.3590 C   0  0  0  0  0  0  0  0  0  0  0  0
    7.6906   40.5877  130.6965 C   0  0  0  0  0  0  0  0  0  0  0  0
    8.1520   40.5848  129.2616 C   0  0  0  0  0  0  0  0  0  0  0  0
    9.5580   40.1184  129.4969 N   0  0  0  0  0  0  0  0  0  0  0  0
   10.0086   41.1268  130.4501 C   0  0  0  0  0  0  0  0  0  0  0  0
   10.2496   40.1491  128.2458 C   0  0  0  0  0  0  0  0  0  0  0  0
   10.0691   41.3939  127.4831 C   0  0  0  0  0  0  0  0  0  0  0  0
   10.2511   42.6991  128.1801 C   0  0  0  0  0  0  0  0  0  0  0  0
   10.0931   43.8026  127.3853 F   0  0  0  0  0  0  0  0  0  0  0  0
 22 23  1  0  0  0
 23 14  1  0  0  0
 14 15  2  0  0  0
 15 16  1  0  0  0
 15 17  1  0  0  0
 17 18  2  0  0  0
 18 19  1  0  0  0
 19 20  2  0  0  0
 20 21  1  0  0  0
 19  1  1  0  0  0
  1  2  2  0  0  0
  2 24  1  0  0  0
 24 25  2  0  0  0
 25 26  1  0  0  0
 26 27  2  0  0  0
 27 30  1  0  0  0
 30 31  1  0  0  0
 31 32  1  0  0  0
 32 33  1  0  0  0
 33 34  1  0  0  0
 34 36  1  0  0  0
 36 37  1  0  0  0
 37 38  1  0  0  0
 38 39  1  0  0  0
 34 35  1  0  0  0
 27 28  1  0  0  0
 28 29  2  0  0  0
  2  3  1  0  0  0
  3  4  2  0  0  0
  4  5  1  0  0  0
  5  6  2  0  0  0
  6  7  1  0  0  0
  6  8  1  0  0  0
  8  9  2  0  0  0
  9 10  1  0  0  0
 10 11  1  0  0  0
 11 12  1  0  0  0
 20 14  1  0  0  0
 12  1  1  0  0  0
 29 24  1  0  0  0
  9  3  1  0  0  0
 35 31  1  0  0  0
  7 13  1  0  0  0
M  END
> <minimizedAffinity>
27.69264

> <CNNscore>
0.3522506952

> <CNNaffinity>
7.6347517967

> <CNN_VS>
2.6893465519

> <CNNaffinity_variance>
0.8226699829

$$$$
[H]Oc1c([H])c([H])c2c(c1[H])C([H])([H])C([H])([H])C([H])([H])C(c1c([H])c([H])c(F)c(OC([H])([H])[H])c1F)=C2c1c([H])c([H])c(O[C@]2([H])C([H])([H])N(C([H])([H])C([H])([H])C([H])([H])F)C([H])([H])C2([H])[H])c([H])c1[H]


 39 43  0  0  0  0  0  0  0  0999 V2000
   11.1224   44.2764  132.6049 C   0  0  0  0  0  0  0  0  0  0  0  0
   10.3248   45.2368  132.9868 C   0  0  0  0  0  0  0  0  0  0  0  0
   10.1659   45.7011  134.3938 C   0  0  0  0  0  0  0  0  0  0  0  0
    9.7551   46.9915  134.4204 C   0  0  0  0  0  0  0  0  0  0  0  0
    9.5234   47.5975  135.6654 C   0  0  0  0  0  0  0  0  0  0  0  0
    9.7070   46.9077  136.8410 C   0  0  0  0  0  0  0  0  0  0  0  0
    9.4890   47.4641  138.0938 O   0  0  0  0  0  0  0  0  0  0  0  0
   10.1346   45.5776  136.7613 C   0  0  0  0  0  0  0  0  0  0  0  0
   10.3599   44.9876  135.5591 C   0  0  0  0  0  0  0  0  0  0  0  0
   10.8694   43.5672  135.6417 C   0  0  0  0  0  0  0  0  0  0  0  0
   12.1733   43.6462  134.8189 C   0  0  0  0  0  0  0  0  0  0  0  0
   11.9897   43.3332  133.3902 C   0  0  0  0  0  0  0  0  0  0  0  0
   10.2670   47.9261  138.5492 H   0  0  0  0  0  0  0  0  0  0  0  0
   12.3350   44.2006  129.0802 C   0  0  0  0  0  0  0  0  0  0  0  0
   11.3532   43.5012  128.4276 C   0  0  0  0  0  0  0  0  0  0  0  0
   11.4550   43.2682  127.0785 F   0  0  0  0  0  0  0  0  0  0  0  0
   10.2772   43.0466  129.1505 C   0  0  0  0  0  0  0  0  0  0  0  0
   10.1811   43.2883  130.5159 C   0  0  0  0  0  0  0  0  0  0  0  0
   11.1474   43.9815  131.1803 C   0  0  0  0  0  0  0  0  0  0  0  0
   12.2167   44.4277  130.4348 C   0  0  0  0  0  0  0  0  0  0  0  0
   13.2254   45.1575  130.9848 F   0  0  0  0  0  0  0  0  0  0  0  0
   14.7180   44.4101  128.8475 C   0  0  0  0  0  0  0  0  0  0  0  0
   13.4206   44.6567  128.3480 O   0  0  0  0  0  0  0  0  0  0  0  0
    9.5113   45.9703  132.0481 C   0  0  0  0  0  0  0  0  0  0  0  0
   10.1483   47.1041  131.5030 C   0  0  0  0  0  0  0  0  0  0  0  0
    9.5318   47.8792  130.5742 C   0  0  0  0  0  0  0  0  0  0  0  0
    8.2331   47.6046  130.1009 C   0  0  0  0  0  0  0  0  0  0  0  0
    7.6471   46.4645  130.6763 C   0  0  0  0  0  0  0  0  0  0  0  0
    8.2651   45.6820  131.6118 C   0  0  0  0  0  0  0  0  0  0  0  0
    7.6797   48.3698  129.2148 O   0  0  0  0  0  0  0  0  0  0  0  0
    7.1829   49.2261  128.3880 C   0  0  0  0  0  0  0  0  0  0  0  0
    6.3174   48.6302  127.2529 C   0  0  0  0  0  0  0  0  0  0  0  0
    4.9516   48.6602  127.8900 C   0  0  0  0  0  0  0  0  0  0  0  0
    4.9457   50.1031  128.2996 N   0  0  0  0  0  0  0  0  0  0  0  0
    6.1686   50.1512  129.0938 C   0  0  0  0  0  0  0  0  0  0  0  0
    3.7533   50.3448  129.0507 C   0  0  0  0  0  0  0  0  0  0  0  0
    2.5566   50.5835  128.2293 C   0  0  0  0  0  0  0  0  0  0  0  0
    2.6038   51.6372  127.1758 C   0  0  0  0  0  0  0  0  0  0  0  0
    1.7288   51.4538  126.1390 F   0  0  0  0  0  0  0  0  0  0  0  0
 22 23  1  0  0  0
 23 14  1  0  0  0
 14 15  2  0  0  0
 15 16  1  0  0  0
 15 17  1  0  0  0
 17 18  2  0  0  0
 18 19  1  0  0  0
 19 20  2  0  0  0
 20 21  1  0  0  0
 19  1  1  0  0  0
  1  2  2  0  0  0
  2 24  1  0  0  0
 24 25  2  0  0  0
 25 26  1  0  0  0
 26 27  2  0  0  0
 27 30  1  0  0  0
 30 31  1  0  0  0
 31 32  1  0  0  0
 32 33  1  0  0  0
 33 34  1  0  0  0
 34 36  1  0  0  0
 36 37  1  0  0  0
 37 38  1  0  0  0
 38 39  1  0  0  0
 34 35  1  0  0  0
 27 28  1  0  0  0
 28 29  2  0  0  0
  2  3  1  0  0  0
  3  4  2  0  0  0
  4  5  1  0  0  0
  5  6  2  0  0  0
  6  7  1  0  0  0
  6  8  1  0  0  0
  8  9  2  0  0  0
  9 10  1  0  0  0
 10 11  1  0  0  0
 11 12  1  0  0  0
 20 14  1  0  0  0
 12  1  1  0  0  0
 29 24  1  0  0  0
  9  3  1  0  0  0
 35 31  1  0  0  0
  7 13  1  0  0  0
M  END
> <minimizedAffinity>
18.13999

> <CNNscore>
0.3489673734

> <CNNaffinity>
8.1106157303

> <CNN_VS>
2.8303403854

> <CNNaffinity_variance>
1.5329523087

$$$$
[H]Oc1c([H])c([H])c2c(c1[H])C([H])([H])C([H])([H])C([H])([H])C(c1c([H])c([H])c(F)c(OC([H])([H])[H])c1F)=C2c1c([H])c([H])c(O[C@]2([H])C([H])([H])N(C([H])([H])C([H])([H])C([H])([H])F)C([H])([H])C2([H])[H])c([H])c1[H]


 39 43  0  0  0  0  0  0  0  0999 V2000
   11.0132   45.4707  132.1404 C   0  0  0  0  0  0  0  0  0  0  0  0
   10.6262   45.6166  130.9021 C   0  0  0  0  0  0  0  0  0  0  0  0
   11.2228   44.9066  129.7357 C   0  0  0  0  0  0  0  0  0  0  0  0
   10.3179   44.8053  128.7329 C   0  0  0  0  0  0  0  0  0  0  0  0
   10.7091   44.1872  127.5346 C   0  0  0  0  0  0  0  0  0  0  0  0
   11.9805   43.6894  127.3694 C   0  0  0  0  0  0  0  0  0  0  0  0
   12.4125   43.0726  126.2033 O   0  0  0  0  0  0  0  0  0  0  0  0
   12.8784   43.8161  128.4353 C   0  0  0  0  0  0  0  0  0  0  0  0
   12.5041   44.4132  129.5961 C   0  0  0  0  0  0  0  0  0  0  0  0
   13.5683   44.4237  130.6691 C   0  0  0  0  0  0  0  0  0  0  0  0
   12.8403   43.7444  131.8489 C   0  0  0  0  0  0  0  0  0  0  0  0
   12.1499   44.6929  132.7415 C   0  0  0  0  0  0  0  0  0  0  0  0
   12.2925   42.0698  126.1251 H   0  0  0  0  0  0  0  0  0  0  0  0
    8.4290   46.3274  134.6875 C   0  0  0  0  0  0  0  0  0  0  0  0
    8.7882   47.5894  135.0840 C   0  0  0  0  0  0  0  0  0  0  0  0
    8.0494   48.2484  136.0351 F   0  0  0  0  0  0  0  0  0  0  0  0
    9.8928   48.1704  134.5102 C   0  0  0  0  0  0  0  0  0  0  0  0
   10.6345   47.4969  133.5467 C   0  0  0  0  0  0  0  0  0  0  0  0
   10.2917   46.2424  133.1409 C   0  0  0  0  0  0  0  0  0  0  0  0
    9.1804   45.6801  133.7299 C   0  0  0  0  0  0  0  0  0  0  0  0
    8.7255   44.4456  133.3810 F   0  0  0  0  0  0  0  0  0  0  0  0
    6.4289   45.0171  134.4438 C   0  0  0  0  0  0  0  0  0  0  0  0
    7.3145   45.7430  135.2698 O   0  0  0  0  0  0  0  0  0  0  0  0
    9.5396   46.4942  130.5417 C   0  0  0  0  0  0  0  0  0  0  0  0
    9.9360   47.8255  130.2986 C   0  0  0  0  0  0  0  0  0  0  0  0
    9.0384   48.7674  129.9105 C   0  0  0  0  0  0  0  0  0  0  0  0
    7.6710   48.4798  129.7280 C   0  0  0  0  0  0  0  0  0  0  0  0
    7.3324   47.1401  129.9826 C   0  0  0  0  0  0  0  0  0  0  0  0
    8.2337   46.1893  130.3735 C   0  0  0  0  0  0  0  0  0  0  0  0
    6.8467   49.4074  129.3579 O   0  0  0  0  0  0  0  0  0  0  0  0
    6.0680   50.3982  129.0825 C   0  0  0  0  0  0  0  0  0  0  0  0
    5.9684   51.4896  130.1741 C   0  0  0  0  0  0  0  0  0  0  0  0
    7.0751   52.4203  129.7487 C   0  0  0  0  0  0  0  0  0  0  0  0
    6.6557   52.6017  128.3200 N   0  0  0  0  0  0  0  0  0  0  0  0
    6.6087   51.2096  127.8858 C   0  0  0  0  0  0  0  0  0  0  0  0
    7.6550   53.3841  127.6615 C   0  0  0  0  0  0  0  0  0  0  0  0
    7.1256   54.3423  126.6790 C   0  0  0  0  0  0  0  0  0  0  0  0
    7.8903   54.5826  125.4221 C   0  0  0  0  0  0  0  0  0  0  0  0
    7.2237   54.2561  124.2717 F   0  0  0  0  0  0  0  0  0  0  0  0
 22 23  1  0  0  0
 23 14  1  0  0  0
 14 15  2  0  0  0
 15 16  1  0  0  0
 15 17  1  0  0  0
 17 18  2  0  0  0
 18 19  1  0  0  0
 19 20  2  0  0  0
 20 21  1  0  0  0
 19  1  1  0  0  0
  1  2  2  0  0  0
  2 24  1  0  0  0
 24 25  2  0  0  0
 25 26  1  0  0  0
 26 27  2  0  0  0
 27 30  1  0  0  0
 30 31  1  0  0  0
 31 32  1  0  0  0
 32 33  1  0  0  0
 33 34  1  0  0  0
 34 36  1  0  0  0
 36 37  1  0  0  0
 37 38  1  0  0  0
 38 39  1  0  0  0
 34 35  1  0  0  0
 27 28  1  0  0  0
 28 29  2  0  0  0
  2  3  1  0  0  0
  3  4  2  0  0  0
  4  5  1  0  0  0
  5  6  2  0  0  0
  6  7  1  0  0  0
  6  8  1  0  0  0
  8  9  2  0  0  0
  9 10  1  0  0  0
 10 11  1  0  0  0
 11 12  1  0  0  0
 20 14  1  0  0  0
 12  1  1  0  0  0
 29 24  1  0  0  0
  9  3  1  0  0  0
 35 31  1  0  0  0
  7 13  1  0  0  0
M  END
> <minimizedAffinity>
11.69646

> <CNNscore>
0.3442323208

> <CNNaffinity>
7.8984107971

> <CNN_VS>
2.7188882828

> <CNNaffinity_variance>
1.9340877533

$$$$
[H]Oc1c([H])c([H])c2c(c1[H])C([H])([H])C([H])([H])C([H])([H])C(c1c([H])c([H])c(F)c(OC([H])([H])[H])c1F)=C2c1c([H])c([H])c(O[C@]2([H])C([H])([H])N(C([H])([H])C([H])([H])C([H])([H])F)C([H])([H])C2([H])[H])c([H])c1[H]


 39 43  0  0  0  0  0  0  0  0999 V2000
   10.9031   45.1688  133.3676 C   0  0  0  0  0  0  0  0  0  0  0  0
   10.4526   44.5233  132.3261 C   0  0  0  0  0  0  0  0  0  0  0  0
   10.7140   43.0847  132.0389 C   0  0  0  0  0  0  0  0  0  0  0  0
    9.7230   42.5697  131.2724 C   0  0  0  0  0  0  0  0  0  0  0  0
    9.8103   41.2262  130.8746 C   0  0  0  0  0  0  0  0  0  0  0  0
   10.8731   40.4377  131.2492 C   0  0  0  0  0  0  0  0  0  0  0  0
   11.0028   39.1063  130.8788 O   0  0  0  0  0  0  0  0  0  0  0  0
   11.8705   41.0149  132.0433 C   0  0  0  0  0  0  0  0  0  0  0  0
   11.7900   42.3141  132.4303 C   0  0  0  0  0  0  0  0  0  0  0  0
   12.9151   42.7731  133.3288 C   0  0  0  0  0  0  0  0  0  0  0  0
   12.1467   43.3120  134.5546 C   0  0  0  0  0  0  0  0  0  0  0  0
   11.8345   44.7501  134.4702 C   0  0  0  0  0  0  0  0  0  0  0  0
   10.6043   38.4034  131.4897 H   0  0  0  0  0  0  0  0  0  0  0  0
    8.9694   48.1871  134.3923 C   0  0  0  0  0  0  0  0  0  0  0  0
    9.6526   49.2134  133.7933 C   0  0  0  0  0  0  0  0  0  0  0  0
    9.2237   50.5084  133.9478 F   0  0  0  0  0  0  0  0  0  0  0  0
   10.7634   48.9150  133.0422 C   0  0  0  0  0  0  0  0  0  0  0  0
   11.1900   47.6010  132.8896 C   0  0  0  0  0  0  0  0  0  0  0  0
   10.5230   46.5690  133.4776 C   0  0  0  0  0  0  0  0  0  0  0  0
    9.4121   46.8922  134.2256 C   0  0  0  0  0  0  0  0  0  0  0  0
    8.6495   45.9422  134.8328 F   0  0  0  0  0  0  0  0  0  0  0  0
    7.9861   48.5510  136.5550 C   0  0  0  0  0  0  0  0  0  0  0  0
    7.8495   48.4918  135.1510 O   0  0  0  0  0  0  0  0  0  0  0  0
    9.6199   45.1612  131.3358 C   0  0  0  0  0  0  0  0  0  0  0  0
    8.3401   45.5178  131.8083 C   0  0  0  0  0  0  0  0  0  0  0  0
    7.4499   46.1625  131.0111 C   0  0  0  0  0  0  0  0  0  0  0  0
    7.7432   46.5123  129.6779 C   0  0  0  0  0  0  0  0  0  0  0  0
    9.0305   46.1344  129.2605 C   0  0  0  0  0  0  0  0  0  0  0  0
    9.9291   45.4852  130.0607 C   0  0  0  0  0  0  0  0  0  0  0  0
    6.8655   47.1261  128.9499 O   0  0  0  0  0  0  0  0  0  0  0  0
    6.0165   47.8380  128.2895 C   0  0  0  0  0  0  0  0  0  0  0  0
    4.7076   48.1786  129.0399 C   0  0  0  0  0  0  0  0  0  0  0  0
    5.0846   49.4837  129.6930 C   0  0  0  0  0  0  0  0  0  0  0  0
    5.5750   50.1950  128.4669 N   0  0  0  0  0  0  0  0  0  0  0  0
    6.5809   49.2458  128.0024 C   0  0  0  0  0  0  0  0  0  0  0  0
    6.1088   51.4581  128.8719 C   0  0  0  0  0  0  0  0  0  0  0  0
    6.8929   51.4147  130.1158 C   0  0  0  0  0  0  0  0  0  0  0  0
    7.9972   50.4207  130.2374 C   0  0  0  0  0  0  0  0  0  0  0  0
    7.8237   49.4856  131.2222 F   0  0  0  0  0  0  0  0  0  0  0  0
 22 23  1  0  0  0
 23 14  1  0  0  0
 14 15  2  0  0  0
 15 16  1  0  0  0
 15 17  1  0  0  0
 17 18  2  0  0  0
 18 19  1  0  0  0
 19 20  2  0  0  0
 20 21  1  0  0  0
 19  1  1  0  0  0
  1  2  2  0  0  0
  2 24  1  0  0  0
 24 25  2  0  0  0
 25 26  1  0  0  0
 26 27  2  0  0  0
 27 30  1  0  0  0
 30 31  1  0  0  0
 31 32  1  0  0  0
 32 33  1  0  0  0
 33 34  1  0  0  0
 34 36  1  0  0  0
 36 37  1  0  0  0
 37 38  1  0  0  0
 38 39  1  0  0  0
 34 35  1  0  0  0
 27 28  1  0  0  0
 28 29  2  0  0  0
  2  3  1  0  0  0
  3  4  2  0  0  0
  4  5  1  0  0  0
  5  6  2  0  0  0
  6  7  1  0  0  0
  6  8  1  0  0  0
  8  9  2  0  0  0
  9 10  1  0  0  0
 10 11  1  0  0  0
 11 12  1  0  0  0
 20 14  1  0  0  0
 12  1  1  0  0  0
 29 24  1  0  0  0
  9  3  1  0  0  0
 35 31  1  0  0  0
  7 13  1  0  0  0
M  END
> <minimizedAffinity>
13.77895

> <CNNscore>
0.3371537924

> <CNNaffinity>
8.0898275375

> <CNN_VS>
2.7275159359

> <CNNaffinity_variance>
0.7090641856

$$$$
[H]Oc1c([H])c([H])c2c(c1[H])C([H])([H])C([H])([H])C([H])([H])C(c1c([H])c([H])c(F)c(OC([H])([H])[H])c1F)=C2c1c([H])c([H])c(O[C@]2([H])C([H])([H])N(C([H])([H])C([H])([H])C([H])([H])F)C([H])([H])C2([H])[H])c([H])c1[H]


 39 43  0  0  0  0  0  0  0  0999 V2000
   11.6959   44.1955  132.2385 C   0  0  0  0  0  0  0  0  0  0  0  0
   10.6714   44.8040  132.7722 C   0  0  0  0  0  0  0  0  0  0  0  0
   10.4650   44.9973  134.2352 C   0  0  0  0  0  0  0  0  0  0  0  0
    9.6889   46.0840  134.4618 C   0  0  0  0  0  0  0  0  0  0  0  0
    9.3610   46.4111  135.7871 C   0  0  0  0  0  0  0  0  0  0  0  0
    9.8126   45.6538  136.8427 C   0  0  0  0  0  0  0  0  0  0  0  0
    9.5130   45.9373  138.1680 O   0  0  0  0  0  0  0  0  0  0  0  0
   10.6134   44.5422  136.5573 C   0  0  0  0  0  0  0  0  0  0  0  0
   10.9330   44.2222  135.2768 C   0  0  0  0  0  0  0  0  0  0  0  0
   11.8485   43.0280  135.1372 C   0  0  0  0  0  0  0  0  0  0  0  0
   13.0173   43.6146  134.3168 C   0  0  0  0  0  0  0  0  0  0  0  0
   12.8510   43.4623  132.8600 C   0  0  0  0  0  0  0  0  0  0  0  0
   10.1427   46.5466  138.6764 H   0  0  0  0  0  0  0  0  0  0  0  0
   10.6347   43.3370  128.7691 C   0  0  0  0  0  0  0  0  0  0  0  0
   11.6210   43.8912  127.9951 C   0  0  0  0  0  0  0  0  0  0  0  0
   11.5701   43.7750  126.6282 F   0  0  0  0  0  0  0  0  0  0  0  0
   12.6498   44.5565  128.6164 C   0  0  0  0  0  0  0  0  0  0  0  0
   12.6946   44.6682  130.0012 C   0  0  0  0  0  0  0  0  0  0  0  0
   11.7230   44.1235  130.7855 C   0  0  0  0  0  0  0  0  0  0  0  0
   10.7016   43.4610  130.1405 C   0  0  0  0  0  0  0  0  0  0  0  0
    9.6938   42.8506  130.8220 F   0  0  0  0  0  0  0  0  0  0  0  0
    8.6628   43.4238  127.3977 C   0  0  0  0  0  0  0  0  0  0  0  0
    9.5968   42.6676  128.1389 O   0  0  0  0  0  0  0  0  0  0  0  0
    9.6212   45.3774  131.9666 C   0  0  0  0  0  0  0  0  0  0  0  0
   10.0541   46.4168  131.1177 C   0  0  0  0  0  0  0  0  0  0  0  0
    9.1952   47.0341  130.2664 C   0  0  0  0  0  0  0  0  0  0  0  0
    7.8339   46.6810  130.1770 C   0  0  0  0  0  0  0  0  0  0  0  0
    7.4580   45.6404  131.0431 C   0  0  0  0  0  0  0  0  0  0  0  0
    8.3203   45.0168  131.9015 C   0  0  0  0  0  0  0  0  0  0  0  0
    7.0470   47.2955  129.3524 O   0  0  0  0  0  0  0  0  0  0  0  0
    6.3103   48.0123  128.5730 C   0  0  0  0  0  0  0  0  0  0  0  0
    4.9599   48.4720  129.1710 C   0  0  0  0  0  0  0  0  0  0  0  0
    5.3539   49.7914  129.7841 C   0  0  0  0  0  0  0  0  0  0  0  0
    6.0016   50.3969  128.5742 N   0  0  0  0  0  0  0  0  0  0  0  0
    6.9859   49.3655  128.2646 C   0  0  0  0  0  0  0  0  0  0  0  0
    6.5722   51.6504  128.9586 C   0  0  0  0  0  0  0  0  0  0  0  0
    7.2819   51.6244  130.2468 C   0  0  0  0  0  0  0  0  0  0  0  0
    8.2892   50.5534  130.4934 C   0  0  0  0  0  0  0  0  0  0  0  0
    8.0133   49.7384  131.5583 F   0  0  0  0  0  0  0  0  0  0  0  0
 22 23  1  0  0  0
 23 14  1  0  0  0
 14 15  2  0  0  0
 15 16  1  0  0  0
 15 17  1  0  0  0
 17 18  2  0  0  0
 18 19  1  0  0  0
 19 20  2  0  0  0
 20 21  1  0  0  0
 19  1  1  0  0  0
  1  2  2  0  0  0
  2 24  1  0  0  0
 24 25  2  0  0  0
 25 26  1  0  0  0
 26 27  2  0  0  0
 27 30  1  0  0  0
 30 31  1  0  0  0
 31 32  1  0  0  0
 32 33  1  0  0  0
 33 34  1  0  0  0
 34 36  1  0  0  0
 36 37  1  0  0  0
 37 38  1  0  0  0
 38 39  1  0  0  0
 34 35  1  0  0  0
 27 28  1  0  0  0
 28 29  2  0  0  0
  2  3  1  0  0  0
  3  4  2  0  0  0
  4  5  1  0  0  0
  5  6  2  0  0  0
  6  7  1  0  0  0
  6  8  1  0  0  0
  8  9  2  0  0  0
  9 10  1  0  0  0
 10 11  1  0  0  0
 11 12  1  0  0  0
 20 14  1  0  0  0
 12  1  1  0  0  0
 29 24  1  0  0  0
  9  3  1  0  0  0
 35 31  1  0  0  0
  7 13  1  0  0  0
M  END
> <minimizedAffinity>
7.53275

> <CNNscore>
0.3328118324

> <CNNaffinity>
8.1054210663

> <CNN_VS>
2.6975800991

> <CNNaffinity_variance>
0.5989714861

$$$$
[H]Oc1c([H])c([H])c2c(c1[H])C([H])([H])C([H])([H])C([H])([H])C(c1c([H])c([H])c(F)c(OC([H])([H])[H])c1F)=C2c1c([H])c([H])c(O[C@]2([H])C([H])([H])N(C([H])([H])C([H])([H])C([H])([H])F)C([H])([H])C2([H])[H])c([H])c1[H]


 39 43  0  0  0  0  0  0  0  0999 V2000
   11.2303   45.4521  132.0016 C   0  0  0  0  0  0  0  0  0  0  0  0
   10.6688   45.2996  130.8329 C   0  0  0  0  0  0  0  0  0  0  0  0
   11.3180   44.6578  129.6551 C   0  0  0  0  0  0  0  0  0  0  0  0
   10.3811   44.1439  128.8228 C   0  0  0  0  0  0  0  0  0  0  0  0
   10.8038   43.5204  127.6382 C   0  0  0  0  0  0  0  0  0  0  0  0
   12.1380   43.4250  127.3177 C   0  0  0  0  0  0  0  0  0  0  0  0
   12.6025   42.8198  126.1582 O   0  0  0  0  0  0  0  0  0  0  0  0
   13.0677   43.9692  128.2110 C   0  0  0  0  0  0  0  0  0  0  0  0
   12.6631   44.5732  129.3580 C   0  0  0  0  0  0  0  0  0  0  0  0
   13.7876   45.0608  130.2420 C   0  0  0  0  0  0  0  0  0  0  0  0
   13.4720   44.3569  131.5793 C   0  0  0  0  0  0  0  0  0  0  0  0
   12.6234   45.1563  132.4814 C   0  0  0  0  0  0  0  0  0  0  0  0
   12.8090   41.8286  126.1909 H   0  0  0  0  0  0  0  0  0  0  0  0
    9.4567   48.1465  133.8709 C   0  0  0  0  0  0  0  0  0  0  0  0
    8.8951   47.4761  134.9265 C   0  0  0  0  0  0  0  0  0  0  0  0
    8.1479   48.1571  135.8552 F   0  0  0  0  0  0  0  0  0  0  0  0
    9.0989   46.1215  135.0296 C   0  0  0  0  0  0  0  0  0  0  0  0
    9.8582   45.4399  134.0858 C   0  0  0  0  0  0  0  0  0  0  0  0
   10.4236   46.0903  133.0307 C   0  0  0  0  0  0  0  0  0  0  0  0
   10.2059   47.4482  132.9481 C   0  0  0  0  0  0  0  0  0  0  0  0
   10.7469   48.2067  131.9558 F   0  0  0  0  0  0  0  0  0  0  0  0
    9.4547   50.1320  132.5166 C   0  0  0  0  0  0  0  0  0  0  0  0
    9.2478   49.5134  133.7688 O   0  0  0  0  0  0  0  0  0  0  0  0
    9.3193   45.7377  130.5729 C   0  0  0  0  0  0  0  0  0  0  0  0
    9.2167   46.6919  129.5397 C   0  0  0  0  0  0  0  0  0  0  0  0
    8.0108   47.1760  129.1459 C   0  0  0  0  0  0  0  0  0  0  0  0
    6.8000   46.7620  129.7361 C   0  0  0  0  0  0  0  0  0  0  0  0
    6.9609   45.8109  130.7577 C   0  0  0  0  0  0  0  0  0  0  0  0
    8.1736   45.3215  131.1566 C   0  0  0  0  0  0  0  0  0  0  0  0
    5.6702   47.2492  129.3321 O   0  0  0  0  0  0  0  0  0  0  0  0
    4.5136   47.6207  128.8985 C   0  0  0  0  0  0  0  0  0  0  0  0
    3.5579   48.2022  129.9666 C   0  0  0  0  0  0  0  0  0  0  0  0
    3.9032   49.6675  129.8908 C   0  0  0  0  0  0  0  0  0  0  0  0
    3.7367   49.8434  128.4106 N   0  0  0  0  0  0  0  0  0  0  0  0
    4.6449   48.8105  127.9239 C   0  0  0  0  0  0  0  0  0  0  0  0
    4.1356   51.1749  128.0757 C   0  0  0  0  0  0  0  0  0  0  0  0
    3.4571   51.7330  126.8959 C   0  0  0  0  0  0  0  0  0  0  0  0
    1.9797   51.9276  126.9389 C   0  0  0  0  0  0  0  0  0  0  0  0
    1.5754   53.1906  127.2792 F   0  0  0  0  0  0  0  0  0  0  0  0
 22 23  1  0  0  0
 23 14  1  0  0  0
 14 15  2  0  0  0
 15 16  1  0  0  0
 15 17  1  0  0  0
 17 18  2  0  0  0
 18 19  1  0  0  0
 19 20  2  0  0  0
 20 21  1  0  0  0
 19  1  1  0  0  0
  1  2  2  0  0  0
  2 24  1  0  0  0
 24 25  2  0  0  0
 25 26  1  0  0  0
 26 27  2  0  0  0
 27 30  1  0  0  0
 30 31  1  0  0  0
 31 32  1  0  0  0
 32 33  1  0  0  0
 33 34  1  0  0  0
 34 36  1  0  0  0
 36 37  1  0  0  0
 37 38  1  0  0  0
 38 39  1  0  0  0
 34 35  1  0  0  0
 27 28  1  0  0  0
 28 29  2  0  0  0
  2  3  1  0  0  0
  3  4  2  0  0  0
  4  5  1  0  0  0
  5  6  2  0  0  0
  6  7  1  0  0  0
  6  8  1  0  0  0
  8  9  2  0  0  0
  9 10  1  0  0  0
 10 11  1  0  0  0
 11 12  1  0  0  0
 20 14  1  0  0  0
 12  1  1  0  0  0
 29 24  1  0  0  0
  9  3  1  0  0  0
 35 31  1  0  0  0
  7 13  1  0  0  0
M  END
> <minimizedAffinity>
22.39678

> <CNNscore>
0.3288853168

> <CNNaffinity>
7.6377334595

> <CNN_VS>
2.5119383335

> <CNNaffinity_variance>
0.6952741742

$$$$
[H]Oc1c([H])c([H])c2c(c1[H])C([H])([H])C([H])([H])C([H])([H])C(c1c([H])c([H])c(F)c(OC([H])([H])[H])c1F)=C2c1c([H])c([H])c(O[C@]2([H])C([H])([H])N(C([H])([H])C([H])([H])C([H])([H])F)C([H])([H])C2([H])[H])c([H])c1[H]


 39 43  0  0  0  0  0  0  0  0999 V2000
   10.7911   43.9525  132.4725 C   0  0  0  0  0  0  0  0  0  0  0  0
    9.9835   44.8878  132.8936 C   0  0  0  0  0  0  0  0  0  0  0  0
   10.0143   45.4869  134.2577 C   0  0  0  0  0  0  0  0  0  0  0  0
    9.4997   46.7396  134.2337 C   0  0  0  0  0  0  0  0  0  0  0  0
    9.4199   47.4566  135.4381 C   0  0  0  0  0  0  0  0  0  0  0  0
    9.8528   46.9113  136.6242 C   0  0  0  0  0  0  0  0  0  0  0  0
    9.7922   47.5809  137.8385 O   0  0  0  0  0  0  0  0  0  0  0  0
   10.3788   45.6147  136.5969 C   0  0  0  0  0  0  0  0  0  0  0  0
   10.4578   44.9177  135.4342 C   0  0  0  0  0  0  0  0  0  0  0  0
   11.0987   43.5550  135.5606 C   0  0  0  0  0  0  0  0  0  0  0  0
   12.2394   43.6401  134.5237 C   0  0  0  0  0  0  0  0  0  0  0  0
   11.8550   43.1639  133.1827 C   0  0  0  0  0  0  0  0  0  0  0  0
   10.5895   48.1440  138.1096 H   0  0  0  0  0  0  0  0  0  0  0  0
   10.9612   43.9830  128.7482 C   0  0  0  0  0  0  0  0  0  0  0  0
   10.3466   42.8088  128.3983 C   0  0  0  0  0  0  0  0  0  0  0  0
   10.2167   42.4677  127.0749 F   0  0  0  0  0  0  0  0  0  0  0  0
    9.8687   41.9933  129.3951 C   0  0  0  0  0  0  0  0  0  0  0  0
   10.0029   42.3469  130.7326 C   0  0  0  0  0  0  0  0  0  0  0  0
   10.6107   43.5099  131.0981 C   0  0  0  0  0  0  0  0  0  0  0  0
   11.0818   44.3117  130.0816 C   0  0  0  0  0  0  0  0  0  0  0  0
   11.6778   45.5109  130.3256 F   0  0  0  0  0  0  0  0  0  0  0  0
   10.7658   46.0134  127.4770 C   0  0  0  0  0  0  0  0  0  0  0  0
   11.4440   44.8032  127.7399 O   0  0  0  0  0  0  0  0  0  0  0  0
    8.9662   45.4561  132.0432 C   0  0  0  0  0  0  0  0  0  0  0  0
    9.3359   46.6800  131.4484 C   0  0  0  0  0  0  0  0  0  0  0  0
    8.5051   47.3243  130.5892 C   0  0  0  0  0  0  0  0  0  0  0  0
    7.2367   46.8186  130.2408 C   0  0  0  0  0  0  0  0  0  0  0  0
    6.9210   45.5980  130.8608 C   0  0  0  0  0  0  0  0  0  0  0  0
    7.7552   44.9467  131.7264 C   0  0  0  0  0  0  0  0  0  0  0  0
    6.4736   47.4648  129.4180 O   0  0  0  0  0  0  0  0  0  0  0  0
    5.7540   48.2112  128.6507 C   0  0  0  0  0  0  0  0  0  0  0  0
    4.5155   48.8535  129.3185 C   0  0  0  0  0  0  0  0  0  0  0  0
    5.0978   50.1552  129.8070 C   0  0  0  0  0  0  0  0  0  0  0  0
    5.7014   50.6112  128.5118 N   0  0  0  0  0  0  0  0  0  0  0  0
    6.5409   49.4598  128.1985 C   0  0  0  0  0  0  0  0  0  0  0  0
    6.4324   51.8139  128.7637 C   0  0  0  0  0  0  0  0  0  0  0  0
    7.6359   51.6309  129.5894 C   0  0  0  0  0  0  0  0  0  0  0  0
    7.6003   50.6447  130.7068 C   0  0  0  0  0  0  0  0  0  0  0  0
    8.8266   50.2965  131.2061 F   0  0  0  0  0  0  0  0  0  0  0  0
 22 23  1  0  0  0
 23 14  1  0  0  0
 14 15  2  0  0  0
 15 16  1  0  0  0
 15 17  1  0  0  0
 17 18  2  0  0  0
 18 19  1  0  0  0
 19 20  2  0  0  0
 20 21  1  0  0  0
 19  1  1  0  0  0
  1  2  2  0  0  0
  2 24  1  0  0  0
 24 25  2  0  0  0
 25 26  1  0  0  0
 26 27  2  0  0  0
 27 30  1  0  0  0
 30 31  1  0  0  0
 31 32  1  0  0  0
 32 33  1  0  0  0
 33 34  1  0  0  0
 34 36  1  0  0  0
 36 37  1  0  0  0
 37 38  1  0  0  0
 38 39  1  0  0  0
 34 35  1  0  0  0
 27 28  1  0  0  0
 28 29  2  0  0  0
  2  3  1  0  0  0
  3  4  2  0  0  0
  4  5  1  0  0  0
  5  6  2  0  0  0
  6  7  1  0  0  0
  6  8  1  0  0  0
  8  9  2  0  0  0
  9 10  1  0  0  0
 10 11  1  0  0  0
 11 12  1  0  0  0
 20 14  1  0  0  0
 12  1  1  0  0  0
 29 24  1  0  0  0
  9  3  1  0  0  0
 35 31  1  0  0  0
  7 13  1  0  0  0
M  END
> <minimizedAffinity>
9.37010

> <CNNscore>
0.3218067288

> <CNNaffinity>
8.1064548492

> <CNN_VS>
2.6087117195

> <CNNaffinity_variance>
0.7626158595

$$$$
[H]Oc1c([H])c([H])c2c(c1[H])C([H])([H])C([H])([H])C([H])([H])C(c1c([H])c([H])c(F)c(OC([H])([H])[H])c1F)=C2c1c([H])c([H])c(O[C@]2([H])C([H])([H])N(C([H])([H])C([H])([H])C([H])([H])F)C([H])([H])C2([H])[H])c([H])c1[H]


 39 43  0  0  0  0  0  0  0  0999 V2000
    7.7636   49.6981  131.2273 C   0  0  0  0  0  0  0  0  0  0  0  0
    7.7108   48.8325  130.2514 C   0  0  0  0  0  0  0  0  0  0  0  0
    6.7194   48.8645  129.1394 C   0  0  0  0  0  0  0  0  0  0  0  0
    7.2216   48.2482  128.0427 C   0  0  0  0  0  0  0  0  0  0  0  0
    6.4164   48.1544  126.8966 C   0  0  0  0  0  0  0  0  0  0  0  0
    5.1432   48.6742  126.8734 C   0  0  0  0  0  0  0  0  0  0  0  0
    4.3107   48.6038  125.7649 O   0  0  0  0  0  0  0  0  0  0  0  0
    4.6703   49.3035  128.0305 C   0  0  0  0  0  0  0  0  0  0  0  0
    5.4459   49.3964  129.1413 C   0  0  0  0  0  0  0  0  0  0  0  0
    4.8139   50.1513  130.2878 C   0  0  0  0  0  0  0  0  0  0  0  0
    5.8685   51.2421  130.5732 C   0  0  0  0  0  0  0  0  0  0  0  0
    6.8656   50.8488  131.5851 C   0  0  0  0  0  0  0  0  0  0  0  0
    4.3499   49.3615  125.0938 H   0  0  0  0  0  0  0  0  0  0  0  0
    9.7618   48.0745  133.9238 C   0  0  0  0  0  0  0  0  0  0  0  0
   10.7733   48.9724  134.1460 C   0  0  0  0  0  0  0  0  0  0  0  0
   11.7293   48.7109  135.0960 F   0  0  0  0  0  0  0  0  0  0  0  0
   10.8036   50.1274  133.4030 C   0  0  0  0  0  0  0  0  0  0  0  0
    9.8308   50.3852  132.4442 C   0  0  0  0  0  0  0  0  0  0  0  0
    8.8186   49.5040  132.2104 C   0  0  0  0  0  0  0  0  0  0  0  0
    8.8086   48.3530  132.9676 C   0  0  0  0  0  0  0  0  0  0  0  0
    7.8291   47.4161  132.8434 F   0  0  0  0  0  0  0  0  0  0  0  0
   10.4896   45.8037  134.2243 C   0  0  0  0  0  0  0  0  0  0  0  0
    9.7349   46.9089  134.6743 O   0  0  0  0  0  0  0  0  0  0  0  0
    8.6487   47.7413  130.1491 C   0  0  0  0  0  0  0  0  0  0  0  0
    8.1997   46.5435  130.7425 C   0  0  0  0  0  0  0  0  0  0  0  0
    8.9486   45.4119  130.6975 C   0  0  0  0  0  0  0  0  0  0  0  0
   10.2061   45.3615  130.0633 C   0  0  0  0  0  0  0  0  0  0  0  0
   10.6029   46.5808  129.4891 C   0  0  0  0  0  0  0  0  0  0  0  0
    9.8513   47.7221  129.5327 C   0  0  0  0  0  0  0  0  0  0  0  0
   10.8899   44.2620  130.0435 O   0  0  0  0  0  0  0  0  0  0  0  0
   11.5119   43.1350  130.1259 C   0  0  0  0  0  0  0  0  0  0  0  0
   12.8035   43.1485  130.9768 C   0  0  0  0  0  0  0  0  0  0  0  0
   12.2551   42.7873  132.3335 C   0  0  0  0  0  0  0  0  0  0  0  0
   11.5103   41.5485  131.9329 N   0  0  0  0  0  0  0  0  0  0  0  0
   10.6612   42.0880  130.8761 C   0  0  0  0  0  0  0  0  0  0  0  0
   10.7905   41.0764  133.0746 C   0  0  0  0  0  0  0  0  0  0  0  0
    9.9619   42.0971  133.7343 C   0  0  0  0  0  0  0  0  0  0  0  0
    8.8099   42.6816  132.9902 C   0  0  0  0  0  0  0  0  0  0  0  0
    8.1661   43.7026  133.6364 F   0  0  0  0  0  0  0  0  0  0  0  0
 22 23  1  0  0  0
 23 14  1  0  0  0
 14 15  2  0  0  0
 15 16  1  0  0  0
 15 17  1  0  0  0
 17 18  2  0  0  0
 18 19  1  0  0  0
 19 20  2  0  0  0
 20 21  1  0  0  0
 19  1  1  0  0  0
  1  2  2  0  0  0
  2 24  1  0  0  0
 24 25  2  0  0  0
 25 26  1  0  0  0
 26 27  2  0  0  0
 27 30  1  0  0  0
 30 31  1  0  0  0
 31 32  1  0  0  0
 32 33  1  0  0  0
 33 34  1  0  0  0
 34 36  1  0  0  0
 36 37  1  0  0  0
 37 38  1  0  0  0
 38 39  1  0  0  0
 34 35  1  0  0  0
 27 28  1  0  0  0
 28 29  2  0  0  0
  2  3  1  0  0  0
  3  4  2  0  0  0
  4  5  1  0  0  0
  5  6  2  0  0  0
  6  7  1  0  0  0
  6  8  1  0  0  0
  8  9  2  0  0  0
  9 10  1  0  0  0
 10 11  1  0  0  0
 11 12  1  0  0  0
 20 14  1  0  0  0
 12  1  1  0  0  0
 29 24  1  0  0  0
  9  3  1  0  0  0
 35 31  1  0  0  0
  7 13  1  0  0  0
M  END
> <minimizedAffinity>
22.19505

> <CNNscore>
0.2977238595

> <CNNaffinity>
7.7363801003

> <CNN_VS>
2.3033049107

> <CNNaffinity_variance>
0.8313253522

$$$$
[H]Oc1c([H])c([H])c2c(Oc3c([H])c([H])c(/C([H])=C(\[H])C(=O)N([H])C([H])(C([H])([H])[H])C([H])([H])[H])c([H])c3[H])c(-c3c([H])c([H])c([H])c([H])c3[H])c(C([H])([H])C([H])([H])[H])nc2c1[H]


 36 39  0  0  0  0  0  0  0  0999 V2000
    9.4249   48.8432  132.1972 C   0  0  0  0  0  0  0  0  0  0  0  0
    8.6064   49.7122  131.5092 N   0  0  0  0  0  0  0  0  0  0  0  0
    7.6307   49.1938  130.7607 C   0  0  0  0  0  0  0  0  0  0  0  0
    6.8166   50.1065  130.0666 C   0  0  0  0  0  0  0  0  0  0  0  0
    5.7966   49.6572  129.2758 C   0  0  0  0  0  0  0  0  0  0  0  0
    4.9540   50.5266  128.5614 O   0  0  0  0  0  0  0  0  0  0  0  0
    5.5747   48.3149  129.1652 C   0  0  0  0  0  0  0  0  0  0  0  0
    6.3569   47.3796  129.8359 C   0  0  0  0  0  0  0  0  0  0  0  0
    7.3909   47.8580  130.6358 C   0  0  0  0  0  0  0  0  0  0  0  0
    8.2098   46.9507  131.3290 C   0  0  0  0  0  0  0  0  0  0  0  0
    9.2091   47.4759  132.0925 C   0  0  0  0  0  0  0  0  0  0  0  0
    5.2607   50.7640  127.6089 H   0  0  0  0  0  0  0  0  0  0  0  0
   10.0986   46.5794  132.8333 C   0  0  0  0  0  0  0  0  0  0  0  0
    9.8325   46.1057  134.1068 C   0  0  0  0  0  0  0  0  0  0  0  0
   10.7071   45.2318  134.7155 C   0  0  0  0  0  0  0  0  0  0  0  0
   11.8717   44.7932  134.0970 C   0  0  0  0  0  0  0  0  0  0  0  0
   12.1335   45.2758  132.8124 C   0  0  0  0  0  0  0  0  0  0  0  0
   11.2513   46.1473  132.2180 C   0  0  0  0  0  0  0  0  0  0  0  0
   10.0941   50.7721  133.5612 C   0  0  0  0  0  0  0  0  0  0  0  0
   10.5266   49.4200  133.0036 C   0  0  0  0  0  0  0  0  0  0  0  0
    7.9342   45.6410  131.1721 O   0  0  0  0  0  0  0  0  0  0  0  0
    8.4723   44.7593  130.2430 C   0  0  0  0  0  0  0  0  0  0  0  0
    8.6677   43.4465  130.5939 C   0  0  0  0  0  0  0  0  0  0  0  0
    9.2021   42.5804  129.6712 C   0  0  0  0  0  0  0  0  0  0  0  0
    9.5489   42.9812  128.4018 C   0  0  0  0  0  0  0  0  0  0  0  0
    9.3481   44.3057  128.0527 C   0  0  0  0  0  0  0  0  0  0  0  0
    8.8151   45.1665  128.9819 C   0  0  0  0  0  0  0  0  0  0  0  0
   10.1584   42.0344  127.4916 C   0  0  0  0  0  0  0  0  0  0  0  0
    9.8136   40.7875  127.3566 C   0  0  0  0  0  0  0  0  0  0  0  0
   10.4599   39.8689  126.4128 C   0  0  0  0  0  0  0  0  0  0  0  0
    9.8082   39.0437  125.7285 O   0  0  0  0  0  0  0  0  0  0  0  0
   11.8768   39.8877  126.2417 N   0  0  0  0  0  0  0  0  0  0  0  0
   12.4144   40.5830  126.7930 H   0  0  0  0  0  0  0  0  0  0  0  0
   12.5415   38.9874  125.3479 C   0  0  0  0  0  0  0  0  0  0  0  0
   13.6627   39.7044  124.6032 C   0  0  0  0  0  0  0  0  0  0  0  0
   13.1145   37.7879  126.0401 C   0  0  0  0  0  0  0  0  0  0  0  0
 19 20  1  0  0  0
 20  1  1  0  0  0
  1  2  2  0  0  0
  2  3  1  0  0  0
  3  4  2  0  0  0
  4  5  1  0  0  0
  5  6  1  0  0  0
  5  7  2  0  0  0
  7  8  1  0  0  0
  8  9  2  0  0  0
  9 10  1  0  0  0
 10 21  1  0  0  0
 21 22  1  0  0  0
 22 23  2  0  0  0
 23 24  1  0  0  0
 24 25  2  0  0  0
 25 28  1  0  0  0
 28 29  2  0  0  0
 29 30  1  0  0  0
 30 31  2  0  0  0
 30 32  1  0  0  0
 32 34  1  0  0  0
 34 35  1  0  0  0
 34 36  1  0  0  0
 25 26  1  0  0  0
 26 27  2  0  0  0
 10 11  2  0  0  0
 11 13  1  0  0  0
 13 14  2  0  0  0
 14 15  1  0  0  0
 15 16  2  0  0  0
 16 17  1  0  0  0
 17 18  2  0  0  0
 11  1  1  0  0  0
 18 13  1  0  0  0
  9  3  1  0  0  0
 27 22  1  0  0  0
  6 12  1  0  0  0
 32 33  1  0  0  0
M  END
> <minimizedAffinity>
9.23333

> <CNNscore>
0.5583698750

> <CNNaffinity>
8.1501970291

> <CNN_VS>
4.5508246422

> <CNNaffinity_variance>
1.2162988186

$$$$
[H]Oc1c([H])c([H])c2c(Oc3c([H])c([H])c(/C([H])=C(\[H])C(=O)N([H])C([H])(C([H])([H])[H])C([H])([H])[H])c([H])c3[H])c(-c3c([H])c([H])c([H])c([H])c3[H])c(C([H])([H])C([H])([H])[H])nc2c1[H]


 36 39  0  0  0  0  0  0  0  0999 V2000
    9.9171   48.4709  132.5949 C   0  0  0  0  0  0  0  0  0  0  0  0
    9.4688   49.6254  131.9911 N   0  0  0  0  0  0  0  0  0  0  0  0
    8.5464   49.5137  131.0332 C   0  0  0  0  0  0  0  0  0  0  0  0
    8.1139   50.7095  130.4326 C   0  0  0  0  0  0  0  0  0  0  0  0
    7.1735   50.6822  129.4415 C   0  0  0  0  0  0  0  0  0  0  0  0
    6.7070   51.8477  128.8089 O   0  0  0  0  0  0  0  0  0  0  0  0
    6.6574   49.4842  129.0392 C   0  0  0  0  0  0  0  0  0  0  0  0
    7.0581   48.2792  129.6084 C   0  0  0  0  0  0  0  0  0  0  0  0
    8.0174   48.3291  130.6159 C   0  0  0  0  0  0  0  0  0  0  0  0
    8.4558   47.1373  131.2173 C   0  0  0  0  0  0  0  0  0  0  0  0
    9.3997   47.2466  132.1943 C   0  0  0  0  0  0  0  0  0  0  0  0
    7.2267   52.1401  127.9709 H   0  0  0  0  0  0  0  0  0  0  0  0
    9.8997   46.0385  132.8533 C   0  0  0  0  0  0  0  0  0  0  0  0
    9.1429   45.2552  133.7081 C   0  0  0  0  0  0  0  0  0  0  0  0
    9.6813   44.1102  134.2544 C   0  0  0  0  0  0  0  0  0  0  0  0
   10.9792   43.6948  133.9816 C   0  0  0  0  0  0  0  0  0  0  0  0
   11.7366   44.4907  133.1187 C   0  0  0  0  0  0  0  0  0  0  0  0
   11.1856   45.6303  132.5814 C   0  0  0  0  0  0  0  0  0  0  0  0
   10.4560   47.9887  134.9414 C   0  0  0  0  0  0  0  0  0  0  0  0
   10.9636   48.5949  133.6372 C   0  0  0  0  0  0  0  0  0  0  0  0
    7.9046   45.9920  130.7694 O   0  0  0  0  0  0  0  0  0  0  0  0
    8.5004   44.9997  130.0011 C   0  0  0  0  0  0  0  0  0  0  0  0
    9.2287   45.3518  128.8919 C   0  0  0  0  0  0  0  0  0  0  0  0
    9.8136   44.3656  128.1354 C   0  0  0  0  0  0  0  0  0  0  0  0
    9.6975   43.0315  128.4505 C   0  0  0  0  0  0  0  0  0  0  0  0
    8.9634   42.6821  129.5709 C   0  0  0  0  0  0  0  0  0  0  0  0
    8.3796   43.6744  130.3214 C   0  0  0  0  0  0  0  0  0  0  0  0
   10.2911   42.0350  127.5839 C   0  0  0  0  0  0  0  0  0  0  0  0
    9.8064   40.8504  127.3524 C   0  0  0  0  0  0  0  0  0  0  0  0
   10.4444   39.8778  126.4583 C   0  0  0  0  0  0  0  0  0  0  0  0
    9.7815   39.1297  125.7001 O   0  0  0  0  0  0  0  0  0  0  0  0
   11.8657   39.7519  126.4238 N   0  0  0  0  0  0  0  0  0  0  0  0
   12.4152   40.3836  127.0365 H   0  0  0  0  0  0  0  0  0  0  0  0
   12.5189   38.7951  125.5817 C   0  0  0  0  0  0  0  0  0  0  0  0
   13.4388   39.4974  124.5886 C   0  0  0  0  0  0  0  0  0  0  0  0
   13.3196   37.7867  126.3484 C   0  0  0  0  0  0  0  0  0  0  0  0
 19 20  1  0  0  0
 20  1  1  0  0  0
  1  2  2  0  0  0
  2  3  1  0  0  0
  3  4  2  0  0  0
  4  5  1  0  0  0
  5  6  1  0  0  0
  5  7  2  0  0  0
  7  8  1  0  0  0
  8  9  2  0  0  0
  9 10  1  0  0  0
 10 21  1  0  0  0
 21 22  1  0  0  0
 22 23  2  0  0  0
 23 24  1  0  0  0
 24 25  2  0  0  0
 25 28  1  0  0  0
 28 29  2  0  0  0
 29 30  1  0  0  0
 30 31  2  0  0  0
 30 32  1  0  0  0
 32 34  1  0  0  0
 34 35  1  0  0  0
 34 36  1  0  0  0
 25 26  1  0  0  0
 26 27  2  0  0  0
 10 11  2  0  0  0
 11 13  1  0  0  0
 13 14  2  0  0  0
 14 15  1  0  0  0
 15 16  2  0  0  0
 16 17  1  0  0  0
 17 18  2  0  0  0
 11  1  1  0  0  0
 18 13  1  0  0  0
  9  3  1  0  0  0
 27 22  1  0  0  0
  6 12  1  0  0  0
 32 33  1  0  0  0
M  END
> <minimizedAffinity>
7.36409

> <CNNscore>
0.5341365337

> <CNNaffinity>
8.1909561157

> <CNN_VS>
4.3750886917

> <CNNaffinity_variance>
1.1553782225

$$$$
[H]Oc1c([H])c([H])c2c(Oc3c([H])c([H])c(/C([H])=C(\[H])C(=O)N([H])C([H])(C([H])([H])[H])C([H])([H])[H])c([H])c3[H])c(-c3c([H])c([H])c([H])c([H])c3[H])c(C([H])([H])C([H])([H])[H])nc2c1[H]


 36 39  0  0  0  0  0  0  0  0999 V2000
   10.9887   45.5419  132.5814 C   0  0  0  0  0  0  0  0  0  0  0  0
   11.1573   44.2232  132.2193 N   0  0  0  0  0  0  0  0  0  0  0  0
   10.2061   43.6505  131.4790 C   0  0  0  0  0  0  0  0  0  0  0  0
   10.4049   42.3025  131.1310 C   0  0  0  0  0  0  0  0  0  0  0  0
    9.4767   41.6413  130.3768 C   0  0  0  0  0  0  0  0  0  0  0  0
    9.6269   40.2949  130.0016 O   0  0  0  0  0  0  0  0  0  0  0  0
    8.3547   42.3004  129.9641 C   0  0  0  0  0  0  0  0  0  0  0  0
    8.1213   43.6338  130.2865 C   0  0  0  0  0  0  0  0  0  0  0  0
    9.0788   44.2888  131.0558 C   0  0  0  0  0  0  0  0  0  0  0  0
    8.8840   45.6346  131.4095 C   0  0  0  0  0  0  0  0  0  0  0  0
    9.8518   46.2227  132.1677 C   0  0  0  0  0  0  0  0  0  0  0  0
    9.2320   39.6028  130.6518 H   0  0  0  0  0  0  0  0  0  0  0  0
    9.7011   47.6217  132.5723 C   0  0  0  0  0  0  0  0  0  0  0  0
    9.0959   48.0243  133.7507 C   0  0  0  0  0  0  0  0  0  0  0  0
    9.0327   49.3629  134.0725 C   0  0  0  0  0  0  0  0  0  0  0  0
    9.5601   50.3515  133.2504 C   0  0  0  0  0  0  0  0  0  0  0  0
   10.1687   49.9374  132.0631 C   0  0  0  0  0  0  0  0  0  0  0  0
   10.2241   48.5982  131.7556 C   0  0  0  0  0  0  0  0  0  0  0  0
   12.8388   45.0776  134.1276 C   0  0  0  0  0  0  0  0  0  0  0  0
   12.0316   46.1670  133.4291 C   0  0  0  0  0  0  0  0  0  0  0  0
    7.7536   46.2212  130.9689 O   0  0  0  0  0  0  0  0  0  0  0  0
    7.6281   47.4022  130.2482 C   0  0  0  0  0  0  0  0  0  0  0  0
    8.0849   47.4544  128.9546 C   0  0  0  0  0  0  0  0  0  0  0  0
    7.9597   48.6258  128.2481 C   0  0  0  0  0  0  0  0  0  0  0  0
    7.3891   49.7538  128.7908 C   0  0  0  0  0  0  0  0  0  0  0  0
    6.9286   49.6952  130.0950 C   0  0  0  0  0  0  0  0  0  0  0  0
    7.0594   48.5204  130.7959 C   0  0  0  0  0  0  0  0  0  0  0  0
    7.3345   50.9749  128.0147 C   0  0  0  0  0  0  0  0  0  0  0  0
    7.1492   52.1686  128.4972 C   0  0  0  0  0  0  0  0  0  0  0  0
    7.1087   53.3775  127.6669 C   0  0  0  0  0  0  0  0  0  0  0  0
    6.6384   54.4624  128.0860 O   0  0  0  0  0  0  0  0  0  0  0  0
    7.6134   53.3544  126.3319 N   0  0  0  0  0  0  0  0  0  0  0  0
    8.0199   52.4627  125.9914 H   0  0  0  0  0  0  0  0  0  0  0  0
    7.5656   54.5094  125.4865 C   0  0  0  0  0  0  0  0  0  0  0  0
    8.8722   54.6611  124.7147 C   0  0  0  0  0  0  0  0  0  0  0  0
    6.4306   54.4756  124.5084 C   0  0  0  0  0  0  0  0  0  0  0  0
 19 20  1  0  0  0
 20  1  1  0  0  0
  1  2  2  0  0  0
  2  3  1  0  0  0
  3  4  2  0  0  0
  4  5  1  0  0  0
  5  6  1  0  0  0
  5  7  2  0  0  0
  7  8  1  0  0  0
  8  9  2  0  0  0
  9 10  1  0  0  0
 10 21  1  0  0  0
 21 22  1  0  0  0
 22 23  2  0  0  0
 23 24  1  0  0  0
 24 25  2  0  0  0
 25 28  1  0  0  0
 28 29  2  0  0  0
 29 30  1  0  0  0
 30 31  2  0  0  0
 30 32  1  0  0  0
 32 34  1  0  0  0
 34 35  1  0  0  0
 34 36  1  0  0  0
 25 26  1  0  0  0
 26 27  2  0  0  0
 10 11  2  0  0  0
 11 13  1  0  0  0
 13 14  2  0  0  0
 14 15  1  0  0  0
 15 16  2  0  0  0
 16 17  1  0  0  0
 17 18  2  0  0  0
 11  1  1  0  0  0
 18 13  1  0  0  0
  9  3  1  0  0  0
 27 22  1  0  0  0
  6 12  1  0  0  0
 32 33  1  0  0  0
M  END
> <minimizedAffinity>
2.56747

> <CNNscore>
0.5076745152

> <CNNaffinity>
7.6496648788

> <CNN_VS>
3.8835399151

> <CNNaffinity_variance>
0.7811110616

$$$$
[H]Oc1c([H])c([H])c2c(Oc3c([H])c([H])c(/C([H])=C(\[H])C(=O)N([H])C([H])(C([H])([H])[H])C([H])([H])[H])c([H])c3[H])c(-c3c([H])c([H])c([H])c([H])c3[H])c(C([H])([H])C([H])([H])[H])nc2c1[H]


 36 39  0  0  0  0  0  0  0  0999 V2000
    9.7527   49.6613  132.2839 C   0  0  0  0  0  0  0  0  0  0  0  0
    9.1562   50.6716  131.5614 N   0  0  0  0  0  0  0  0  0  0  0  0
    8.4757   50.3384  130.4629 C   0  0  0  0  0  0  0  0  0  0  0  0
    7.8837   51.3927  129.7447 C   0  0  0  0  0  0  0  0  0  0  0  0
    7.1717   51.1369  128.6067 C   0  0  0  0  0  0  0  0  0  0  0  0
    6.5604   52.1535  127.8522 O   0  0  0  0  0  0  0  0  0  0  0  0
    7.0398   49.8493  128.1728 C   0  0  0  0  0  0  0  0  0  0  0  0
    7.6093   48.7785  128.8551 C   0  0  0  0  0  0  0  0  0  0  0  0
    8.3310   49.0607  130.0116 C   0  0  0  0  0  0  0  0  0  0  0  0
    8.9275   48.0118  130.7315 C   0  0  0  0  0  0  0  0  0  0  0  0
    9.6256   48.3479  131.8526 C   0  0  0  0  0  0  0  0  0  0  0  0
    7.1366   52.5644  127.1060 H   0  0  0  0  0  0  0  0  0  0  0  0
   10.2744   47.2982  132.6407 C   0  0  0  0  0  0  0  0  0  0  0  0
   11.3932   46.5980  132.2226 C   0  0  0  0  0  0  0  0  0  0  0  0
   11.9642   45.6525  133.0467 C   0  0  0  0  0  0  0  0  0  0  0  0
   11.4579   45.3612  134.3077 C   0  0  0  0  0  0  0  0  0  0  0  0
   10.3286   46.0715  134.7222 C   0  0  0  0  0  0  0  0  0  0  0  0
    9.7700   47.0120  133.8888 C   0  0  0  0  0  0  0  0  0  0  0  0
   10.2999   51.5099  133.8044 C   0  0  0  0  0  0  0  0  0  0  0  0
   10.5334   50.0367  133.4865 C   0  0  0  0  0  0  0  0  0  0  0  0
    8.7576   46.7668  130.2444 O   0  0  0  0  0  0  0  0  0  0  0  0
    8.4928   45.6008  130.9517 C   0  0  0  0  0  0  0  0  0  0  0  0
    9.1140   44.4331  130.5835 C   0  0  0  0  0  0  0  0  0  0  0  0
    8.8462   43.2833  131.2857 C   0  0  0  0  0  0  0  0  0  0  0  0
    7.9757   43.2585  132.3506 C   0  0  0  0  0  0  0  0  0  0  0  0
    7.3535   44.4390  132.7187 C   0  0  0  0  0  0  0  0  0  0  0  0
    7.6249   45.5847  132.0100 C   0  0  0  0  0  0  0  0  0  0  0  0
    7.6926   42.0047  133.0172 C   0  0  0  0  0  0  0  0  0  0  0  0
    7.4404   41.8639  134.2854 C   0  0  0  0  0  0  0  0  0  0  0  0
    7.1523   40.5691  134.9122 C   0  0  0  0  0  0  0  0  0  0  0  0
    8.0555   39.8386  135.3861 O   0  0  0  0  0  0  0  0  0  0  0  0
    5.8097   40.0933  135.0035 N   0  0  0  0  0  0  0  0  0  0  0  0
    5.0605   40.7057  134.6292 H   0  0  0  0  0  0  0  0  0  0  0  0
    5.4966   38.8229  135.5860 C   0  0  0  0  0  0  0  0  0  0  0  0
    5.0258   38.9968  137.0261 C   0  0  0  0  0  0  0  0  0  0  0  0
    4.4482   38.0695  134.8251 C   0  0  0  0  0  0  0  0  0  0  0  0
 19 20  1  0  0  0
 20  1  1  0  0  0
  1  2  2  0  0  0
  2  3  1  0  0  0
  3  4  2  0  0  0
  4  5  1  0  0  0
  5  6  1  0  0  0
  5  7  2  0  0  0
  7  8  1  0  0  0
  8  9  2  0  0  0
  9 10  1  0  0  0
 10 21  1  0  0  0
 21 22  1  0  0  0
 22 23  2  0  0  0
 23 24  1  0  0  0
 24 25  2  0  0  0
 25 28  1  0  0  0
 28 29  2  0  0  0
 29 30  1  0  0  0
 30 31  2  0  0  0
 30 32  1  0  0  0
 32 34  1  0  0  0
 34 35  1  0  0  0
 34 36  1  0  0  0
 25 26  1  0  0  0
 26 27  2  0  0  0
 10 11  2  0  0  0
 11 13  1  0  0  0
 13 14  2  0  0  0
 14 15  1  0  0  0
 15 16  2  0  0  0
 16 17  1  0  0  0
 17 18  2  0  0  0
 11  1  1  0  0  0
 18 13  1  0  0  0
  9  3  1  0  0  0
 27 22  1  0  0  0
  6 12  1  0  0  0
 32 33  1  0  0  0
M  END
> <minimizedAffinity>
32.00221

> <CNNscore>
0.5068945885

> <CNNaffinity>
7.6511335373

> <CNN_VS>
3.8783180714

> <CNNaffinity_variance>
1.2512782812

$$$$
[H]Oc1c([H])c([H])c2c(Oc3c([H])c([H])c(/C([H])=C(\[H])C(=O)N([H])C([H])(C([H])([H])[H])C([H])([H])[H])c([H])c3[H])c(-c3c([H])c([H])c([H])c([H])c3[H])c(C([H])([H])C([H])([H])[H])nc2c1[H]


 36 39  0  0  0  0  0  0  0  0999 V2000
   12.6160   44.3237  130.3095 C   0  0  0  0  0  0  0  0  0  0  0  0
   12.3637   44.2847  128.9555 N   0  0  0  0  0  0  0  0  0  0  0  0
   11.1178   44.5269  128.5433 C   0  0  0  0  0  0  0  0  0  0  0  0
   10.8916   44.4740  127.1563 C   0  0  0  0  0  0  0  0  0  0  0  0
    9.6430   44.7071  126.6522 C   0  0  0  0  0  0  0  0  0  0  0  0
    9.3635   44.6666  125.2751 O   0  0  0  0  0  0  0  0  0  0  0  0
    8.6169   44.9916  127.5064 C   0  0  0  0  0  0  0  0  0  0  0  0
    8.7995   45.0541  128.8846 C   0  0  0  0  0  0  0  0  0  0  0  0
   10.0788   44.8130  129.3776 C   0  0  0  0  0  0  0  0  0  0  0  0
   10.3100   44.8611  130.7626 C   0  0  0  0  0  0  0  0  0  0  0  0
   11.5806   44.6119  131.1881 C   0  0  0  0  0  0  0  0  0  0  0  0
    9.0752   43.7517  124.9042 H   0  0  0  0  0  0  0  0  0  0  0  0
   11.8810   44.6420  132.6207 C   0  0  0  0  0  0  0  0  0  0  0  0
   11.1108   44.0143  133.5850 C   0  0  0  0  0  0  0  0  0  0  0  0
   11.4898   44.0601  134.9093 C   0  0  0  0  0  0  0  0  0  0  0  0
   12.6357   44.7226  135.3328 C   0  0  0  0  0  0  0  0  0  0  0  0
   13.4072   45.3538  134.3541 C   0  0  0  0  0  0  0  0  0  0  0  0
   13.0163   45.2994  133.0368 C   0  0  0  0  0  0  0  0  0  0  0  0
   14.8912   43.7896  129.5563 C   0  0  0  0  0  0  0  0  0  0  0  0
   13.9937   44.0245  130.7669 C   0  0  0  0  0  0  0  0  0  0  0  0
    9.2512   45.1461  131.5460 O   0  0  0  0  0  0  0  0  0  0  0  0
    8.9825   46.3288  132.2234 C   0  0  0  0  0  0  0  0  0  0  0  0
    9.4642   47.5146  131.7267 C   0  0  0  0  0  0  0  0  0  0  0  0
    9.1967   48.6803  132.4024 C   0  0  0  0  0  0  0  0  0  0  0  0
    8.4588   48.7041  133.5632 C   0  0  0  0  0  0  0  0  0  0  0  0
    7.9741   47.5058  134.0587 C   0  0  0  0  0  0  0  0  0  0  0  0
    8.2478   46.3436  133.3782 C   0  0  0  0  0  0  0  0  0  0  0  0
    8.2563   49.9574  134.2594 C   0  0  0  0  0  0  0  0  0  0  0  0
    8.1191   50.0929  135.5457 C   0  0  0  0  0  0  0  0  0  0  0  0
    7.9225   51.3891  136.2043 C   0  0  0  0  0  0  0  0  0  0  0  0
    7.6169   51.4845  137.4174 O   0  0  0  0  0  0  0  0  0  0  0  0
    8.0764   52.6034  135.4701 N   0  0  0  0  0  0  0  0  0  0  0  0
    8.3479   52.5256  134.4717 H   0  0  0  0  0  0  0  0  0  0  0  0
    7.8667   53.8840  136.0760 C   0  0  0  0  0  0  0  0  0  0  0  0
    6.6487   53.8483  136.9931 C   0  0  0  0  0  0  0  0  0  0  0  0
    9.0482   54.3620  136.8644 C   0  0  0  0  0  0  0  0  0  0  0  0
 19 20  1  0  0  0
 20  1  1  0  0  0
  1  2  2  0  0  0
  2  3  1  0  0  0
  3  4  2  0  0  0
  4  5  1  0  0  0
  5  6  1  0  0  0
  5  7  2  0  0  0
  7  8  1  0  0  0
  8  9  2  0  0  0
  9 10  1  0  0  0
 10 21  1  0  0  0
 21 22  1  0  0  0
 22 23  2  0  0  0
 23 24  1  0  0  0
 24 25  2  0  0  0
 25 28  1  0  0  0
 28 29  2  0  0  0
 29 30  1  0  0  0
 30 31  2  0  0  0
 30 32  1  0  0  0
 32 34  1  0  0  0
 34 35  1  0  0  0
 34 36  1  0  0  0
 25 26  1  0  0  0
 26 27  2  0  0  0
 10 11  2  0  0  0
 11 13  1  0  0  0
 13 14  2  0  0  0
 14 15  1  0  0  0
 15 16  2  0  0  0
 16 17  1  0  0  0
 17 18  2  0  0  0
 11  1  1  0  0  0
 18 13  1  0  0  0
  9  3  1  0  0  0
 27 22  1  0  0  0
  6 12  1  0  0  0
 32 33  1  0  0  0
M  END
> <minimizedAffinity>
34.91475

> <CNNscore>
0.5063366294

> <CNNaffinity>
7.4895362854

> <CNN_VS>
3.7922265530

> <CNNaffinity_variance>
1.8897907734

$$$$
[H]Oc1c([H])c([H])c2c(Oc3c([H])c([H])c(/C([H])=C(\[H])C(=O)N([H])C([H])(C([H])([H])[H])C([H])([H])[H])c([H])c3[H])c(-c3c([H])c([H])c([H])c([H])c3[H])c(C([H])([H])C([H])([H])[H])nc2c1[H]


 36 39  0  0  0  0  0  0  0  0999 V2000
   10.7746   44.9032  132.4561 C   0  0  0  0  0  0  0  0  0  0  0  0
   11.1091   44.0176  131.4549 N   0  0  0  0  0  0  0  0  0  0  0  0
   10.3186   43.9582  130.3814 C   0  0  0  0  0  0  0  0  0  0  0  0
   10.6838   43.0406  129.3802 C   0  0  0  0  0  0  0  0  0  0  0  0
    9.9259   42.9159  128.2500 C   0  0  0  0  0  0  0  0  0  0  0  0
   10.2466   42.0148  127.2197 O   0  0  0  0  0  0  0  0  0  0  0  0
    8.8111   43.6896  128.1009 C   0  0  0  0  0  0  0  0  0  0  0  0
    8.4163   44.6094  129.0676 C   0  0  0  0  0  0  0  0  0  0  0  0
    9.2018   44.7205  130.2115 C   0  0  0  0  0  0  0  0  0  0  0  0
    8.8400   45.6331  131.2167 C   0  0  0  0  0  0  0  0  0  0  0  0
    9.6432   45.6952  132.3160 C   0  0  0  0  0  0  0  0  0  0  0  0
    9.8360   41.0756  127.3033 H   0  0  0  0  0  0  0  0  0  0  0  0
    9.3135   46.6232  133.3994 C   0  0  0  0  0  0  0  0  0  0  0  0
    9.7980   47.9176  133.4823 C   0  0  0  0  0  0  0  0  0  0  0  0
    9.4035   48.7379  134.5171 C   0  0  0  0  0  0  0  0  0  0  0  0
    8.5214   48.3172  135.5053 C   0  0  0  0  0  0  0  0  0  0  0  0
    8.0373   47.0099  135.4149 C   0  0  0  0  0  0  0  0  0  0  0  0
    8.4401   46.2032  134.3766 C   0  0  0  0  0  0  0  0  0  0  0  0
   12.4763   43.6741  133.7299 C   0  0  0  0  0  0  0  0  0  0  0  0
   11.6370   44.9457  133.6608 C   0  0  0  0  0  0  0  0  0  0  0  0
    7.7271   46.3626  131.0034 O   0  0  0  0  0  0  0  0  0  0  0  0
    7.6050   47.5459  130.2859 C   0  0  0  0  0  0  0  0  0  0  0  0
    6.9924   47.5292  129.0574 C   0  0  0  0  0  0  0  0  0  0  0  0
    6.8767   48.7024  128.3522 C   0  0  0  0  0  0  0  0  0  0  0  0
    7.3526   49.8997  128.8344 C   0  0  0  0  0  0  0  0  0  0  0  0
    7.9679   49.9110  130.0744 C   0  0  0  0  0  0  0  0  0  0  0  0
    8.0817   48.7330  130.7728 C   0  0  0  0  0  0  0  0  0  0  0  0
    7.2496   51.0930  128.0208 C   0  0  0  0  0  0  0  0  0  0  0  0
    7.2186   52.3131  128.4706 C   0  0  0  0  0  0  0  0  0  0  0  0
    7.1201   53.4913  127.6019 C   0  0  0  0  0  0  0  0  0  0  0  0
    6.5217   54.5358  127.9553 O   0  0  0  0  0  0  0  0  0  0  0  0
    7.7141   53.4838  126.3040 N   0  0  0  0  0  0  0  0  0  0  0  0
    8.2255   52.6273  126.0188 H   0  0  0  0  0  0  0  0  0  0  0  0
    7.6145   54.6073  125.4215 C   0  0  0  0  0  0  0  0  0  0  0  0
    8.8157   54.6580  124.4834 C   0  0  0  0  0  0  0  0  0  0  0  0
    6.3619   54.5994  124.5986 C   0  0  0  0  0  0  0  0  0  0  0  0
 19 20  1  0  0  0
 20  1  1  0  0  0
  1  2  2  0  0  0
  2  3  1  0  0  0
  3  4  2  0  0  0
  4  5  1  0  0  0
  5  6  1  0  0  0
  5  7  2  0  0  0
  7  8  1  0  0  0
  8  9  2  0  0  0
  9 10  1  0  0  0
 10 21  1  0  0  0
 21 22  1  0  0  0
 22 23  2  0  0  0
 23 24  1  0  0  0
 24 25  2  0  0  0
 25 28  1  0  0  0
 28 29  2  0  0  0
 29 30  1  0  0  0
 30 31  2  0  0  0
 30 32  1  0  0  0
 32 34  1  0  0  0
 34 35  1  0  0  0
 34 36  1  0  0  0
 25 26  1  0  0  0
 26 27  2  0  0  0
 10 11  2  0  0  0
 11 13  1  0  0  0
 13 14  2  0  0  0
 14 15  1  0  0  0
 15 16  2  0  0  0
 16 17  1  0  0  0
 17 18  2  0  0  0
 11  1  1  0  0  0
 18 13  1  0  0  0
  9  3  1  0  0  0
 27 22  1  0  0  0
  6 12  1  0  0  0
 32 33  1  0  0  0
M  END
> <minimizedAffinity>
-0.46139

> <CNNscore>
0.4901341796

> <CNNaffinity>
7.7903571129

> <CNN_VS>
3.8183202744

> <CNNaffinity_variance>
0.7883926630

$$$$
[H]Oc1c([H])c([H])c2c(Oc3c([H])c([H])c(/C([H])=C(\[H])C(=O)N([H])C([H])(C([H])([H])[H])C([H])([H])[H])c([H])c3[H])c(-c3c([H])c([H])c([H])c([H])c3[H])c(C([H])([H])C([H])([H])[H])nc2c1[H]


 36 39  0  0  0  0  0  0  0  0999 V2000
   10.3640   43.4549  131.6196 C   0  0  0  0  0  0  0  0  0  0  0  0
   10.5566   43.2836  130.2661 N   0  0  0  0  0  0  0  0  0  0  0  0
   10.4087   44.3466  129.4729 C   0  0  0  0  0  0  0  0  0  0  0  0
   10.6063   44.1378  128.0963 C   0  0  0  0  0  0  0  0  0  0  0  0
   10.4711   45.1740  127.2156 C   0  0  0  0  0  0  0  0  0  0  0  0
   10.6576   45.0191  125.8309 O   0  0  0  0  0  0  0  0  0  0  0  0
   10.1425   46.4136  127.6834 C   0  0  0  0  0  0  0  0  0  0  0  0
    9.9394   46.6616  129.0376 C   0  0  0  0  0  0  0  0  0  0  0  0
   10.0814   45.5925  129.9178 C   0  0  0  0  0  0  0  0  0  0  0  0
    9.8819   45.7944  131.2939 C   0  0  0  0  0  0  0  0  0  0  0  0
   10.0295   44.7109  132.1072 C   0  0  0  0  0  0  0  0  0  0  0  0
    9.8174   44.7730  125.2914 H   0  0  0  0  0  0  0  0  0  0  0  0
    9.8282   44.8585  133.5499 C   0  0  0  0  0  0  0  0  0  0  0  0
   10.7643   44.4923  134.5021 C   0  0  0  0  0  0  0  0  0  0  0  0
   10.5082   44.7040  135.8396 C   0  0  0  0  0  0  0  0  0  0  0  0
    9.3264   45.2812  136.2887 C   0  0  0  0  0  0  0  0  0  0  0  0
    8.3868   45.6476  135.3220 C   0  0  0  0  0  0  0  0  0  0  0  0
    8.6566   45.4301  133.9912 C   0  0  0  0  0  0  0  0  0  0  0  0
   11.0794   41.1072  131.6917 C   0  0  0  0  0  0  0  0  0  0  0  0
   10.4990   42.2665  132.4950 C   0  0  0  0  0  0  0  0  0  0  0  0
    9.5583   47.0430  131.6843 O   0  0  0  0  0  0  0  0  0  0  0  0
    8.9347   48.0368  130.9404 C   0  0  0  0  0  0  0  0  0  0  0  0
    9.6717   49.1029  130.4876 C   0  0  0  0  0  0  0  0  0  0  0  0
    9.0485   50.0832  129.7543 C   0  0  0  0  0  0  0  0  0  0  0  0
    7.7069   50.0352  129.4538 C   0  0  0  0  0  0  0  0  0  0  0  0
    6.9688   48.9571  129.9114 C   0  0  0  0  0  0  0  0  0  0  0  0
    7.5990   47.9816  130.6461 C   0  0  0  0  0  0  0  0  0  0  0  0
    7.0955   51.1257  128.7234 C   0  0  0  0  0  0  0  0  0  0  0  0
    7.7313   52.1272  128.1898 C   0  0  0  0  0  0  0  0  0  0  0  0
    7.0643   53.2058  127.4521 C   0  0  0  0  0  0  0  0  0  0  0  0
    6.0499   53.7943  127.8977 O   0  0  0  0  0  0  0  0  0  0  0  0
    7.5599   53.6259  126.1812 N   0  0  0  0  0  0  0  0  0  0  0  0
    8.4102   53.1528  125.8211 H   0  0  0  0  0  0  0  0  0  0  0  0
    6.9177   54.6578  125.4237 C   0  0  0  0  0  0  0  0  0  0  0  0
    7.4237   54.6584  123.9851 C   0  0  0  0  0  0  0  0  0  0  0  0
    5.4243   54.5329  125.4080 C   0  0  0  0  0  0  0  0  0  0  0  0
 19 20  1  0  0  0
 20  1  1  0  0  0
  1  2  2  0  0  0
  2  3  1  0  0  0
  3  4  2  0  0  0
  4  5  1  0  0  0
  5  6  1  0  0  0
  5  7  2  0  0  0
  7  8  1  0  0  0
  8  9  2  0  0  0
  9 10  1  0  0  0
 10 21  1  0  0  0
 21 22  1  0  0  0
 22 23  2  0  0  0
 23 24  1  0  0  0
 24 25  2  0  0  0
 25 28  1  0  0  0
 28 29  2  0  0  0
 29 30  1  0  0  0
 30 31  2  0  0  0
 30 32  1  0  0  0
 32 34  1  0  0  0
 34 35  1  0  0  0
 34 36  1  0  0  0
 25 26  1  0  0  0
 26 27  2  0  0  0
 10 11  2  0  0  0
 11 13  1  0  0  0
 13 14  2  0  0  0
 14 15  1  0  0  0
 15 16  2  0  0  0
 16 17  1  0  0  0
 17 18  2  0  0  0
 11  1  1  0  0  0
 18 13  1  0  0  0
  9  3  1  0  0  0
 27 22  1  0  0  0
  6 12  1  0  0  0
 32 33  1  0  0  0
M  END
> <minimizedAffinity>
6.13623

> <CNNscore>
0.4544139802

> <CNNaffinity>
7.4564490318

> <CNN_VS>
3.3883147240

> <CNNaffinity_variance>
0.8223686218

$$$$
[H]Oc1c([H])c([H])c2c(Oc3c([H])c([H])c(/C([H])=C(\[H])C(=O)N([H])C([H])(C([H])([H])[H])C([H])([H])[H])c([H])c3[H])c(-c3c([H])c([H])c([H])c([H])c3[H])c(C([H])([H])C([H])([H])[H])nc2c1[H]


 36 39  0  0  0  0  0  0  0  0999 V2000
   11.5617   44.5477  132.6175 C   0  0  0  0  0  0  0  0  0  0  0  0
   11.2473   43.4274  131.8797 N   0  0  0  0  0  0  0  0  0  0  0  0
   10.0123   43.3307  131.3832 C   0  0  0  0  0  0  0  0  0  0  0  0
    9.7211   42.1730  130.6398 C   0  0  0  0  0  0  0  0  0  0  0  0
    8.4786   41.9955  130.0993 C   0  0  0  0  0  0  0  0  0  0  0  0
    8.1358   40.8576  129.3484 O   0  0  0  0  0  0  0  0  0  0  0  0
    7.5223   42.9514  130.2871 C   0  0  0  0  0  0  0  0  0  0  0  0
    7.7707   44.1109  131.0154 C   0  0  0  0  0  0  0  0  0  0  0  0
    9.0425   44.2721  131.5579 C   0  0  0  0  0  0  0  0  0  0  0  0
    9.3383   45.4251  132.3044 C   0  0  0  0  0  0  0  0  0  0  0  0
   10.5976   45.5267  132.8154 C   0  0  0  0  0  0  0  0  0  0  0  0
    7.7473   40.0695  129.8829 H   0  0  0  0  0  0  0  0  0  0  0  0
   10.9626   46.7030  133.6071 C   0  0  0  0  0  0  0  0  0  0  0  0
   12.1193   46.7976  134.3622 C   0  0  0  0  0  0  0  0  0  0  0  0
   12.4047   47.9595  135.0461 C   0  0  0  0  0  0  0  0  0  0  0  0
   11.5661   49.0673  135.0133 C   0  0  0  0  0  0  0  0  0  0  0  0
   10.4009   48.9640  134.2497 C   0  0  0  0  0  0  0  0  0  0  0  0
   10.1297   47.7981  133.5728 C   0  0  0  0  0  0  0  0  0  0  0  0
   13.0180   43.7388  134.4214 C   0  0  0  0  0  0  0  0  0  0  0  0
   12.9244   44.6386  133.1935 C   0  0  0  0  0  0  0  0  0  0  0  0
    8.3463   46.3255  132.4506 O   0  0  0  0  0  0  0  0  0  0  0  0
    8.1600   47.5129  131.7539 C   0  0  0  0  0  0  0  0  0  0  0  0
    7.9013   47.4705  130.4063 C   0  0  0  0  0  0  0  0  0  0  0  0
    7.7201   48.6483  129.7229 C   0  0  0  0  0  0  0  0  0  0  0  0
    7.7867   49.8749  130.3422 C   0  0  0  0  0  0  0  0  0  0  0  0
    8.0460   49.9118  131.7015 C   0  0  0  0  0  0  0  0  0  0  0  0
    8.2283   48.7294  132.3777 C   0  0  0  0  0  0  0  0  0  0  0  0
    7.6409   51.0835  129.5584 C   0  0  0  0  0  0  0  0  0  0  0  0
    7.4434   51.1310  128.2736 C   0  0  0  0  0  0  0  0  0  0  0  0
    7.2951   52.3843  127.5255 C   0  0  0  0  0  0  0  0  0  0  0  0
    6.9447   53.4556  128.0763 O   0  0  0  0  0  0  0  0  0  0  0  0
    7.5505   52.4224  126.1217 N   0  0  0  0  0  0  0  0  0  0  0  0
    7.8590   51.5412  125.6692 H   0  0  0  0  0  0  0  0  0  0  0  0
    7.3905   53.6230  125.3574 C   0  0  0  0  0  0  0  0  0  0  0  0
    6.6028   54.6604  126.1506 C   0  0  0  0  0  0  0  0  0  0  0  0
    8.6943   54.2293  124.9349 C   0  0  0  0  0  0  0  0  0  0  0  0
 19 20  1  0  0  0
 20  1  1  0  0  0
  1  2  2  0  0  0
  2  3  1  0  0  0
  3  4  2  0  0  0
  4  5  1  0  0  0
  5  6  1  0  0  0
  5  7  2  0  0  0
  7  8  1  0  0  0
  8  9  2  0  0  0
  9 10  1  0  0  0
 10 21  1  0  0  0
 21 22  1  0  0  0
 22 23  2  0  0  0
 23 24  1  0  0  0
 24 25  2  0  0  0
 25 28  1  0  0  0
 28 29  2  0  0  0
 29 30  1  0  0  0
 30 31  2  0  0  0
 30 32  1  0  0  0
 32 34  1  0  0  0
 34 35  1  0  0  0
 34 36  1  0  0  0
 25 26  1  0  0  0
 26 27  2  0  0  0
 10 11  2  0  0  0
 11 13  1  0  0  0
 13 14  2  0  0  0
 14 15  1  0  0  0
 15 16  2  0  0  0
 16 17  1  0  0  0
 17 18  2  0  0  0
 11  1  1  0  0  0
 18 13  1  0  0  0
  9  3  1  0  0  0
 27 22  1  0  0  0
  6 12  1  0  0  0
 32 33  1  0  0  0
M  END
> <minimizedAffinity>
12.39626

> <CNNscore>
0.4532926381

> <CNNaffinity>
7.7255110741

> <CNN_VS>
3.5019173622

> <CNNaffinity_variance>
1.6088243723

$$$$
[H]Oc1c([H])c([H])c2c(Oc3c([H])c([H])c(/C([H])=C(\[H])C(=O)N([H])C([H])(C([H])([H])[H])C([H])([H])[H])c([H])c3[H])c(-c3c([H])c([H])c([H])c([H])c3[H])c(C([H])([H])C([H])([H])[H])nc2c1[H]


 36 39  0  0  0  0  0  0  0  0999 V2000
    8.9052   47.3937  133.2851 C   0  0  0  0  0  0  0  0  0  0  0  0
    8.0702   48.4155  132.8886 N   0  0  0  0  0  0  0  0  0  0  0  0
    8.1453   48.8301  131.6224 C   0  0  0  0  0  0  0  0  0  0  0  0
    7.2842   49.8780  131.2505 C   0  0  0  0  0  0  0  0  0  0  0  0
    7.3005   50.3630  129.9730 C   0  0  0  0  0  0  0  0  0  0  0  0
    6.4610   51.4082  129.5499 O   0  0  0  0  0  0  0  0  0  0  0  0
    8.1597   49.8217  129.0607 C   0  0  0  0  0  0  0  0  0  0  0  0
    9.0267   48.7837  129.3885 C   0  0  0  0  0  0  0  0  0  0  0  0
    8.9947   48.3046  130.6952 C   0  0  0  0  0  0  0  0  0  0  0  0
    9.8550   47.2601  131.0734 C   0  0  0  0  0  0  0  0  0  0  0  0
    9.7834   46.8353  132.3663 C   0  0  0  0  0  0  0  0  0  0  0  0
    6.8422   52.3577  129.6540 H   0  0  0  0  0  0  0  0  0  0  0  0
   10.6597   45.7538  132.8204 C   0  0  0  0  0  0  0  0  0  0  0  0
   11.8357   45.9556  133.5227 C   0  0  0  0  0  0  0  0  0  0  0  0
   12.5806   44.8766  133.9472 C   0  0  0  0  0  0  0  0  0  0  0  0
   12.1981   43.5640  133.6976 C   0  0  0  0  0  0  0  0  0  0  0  0
   11.0107   43.3686  132.9882 C   0  0  0  0  0  0  0  0  0  0  0  0
   10.2782   44.4552  132.5711 C   0  0  0  0  0  0  0  0  0  0  0  0
    7.9703   45.7081  134.8062 C   0  0  0  0  0  0  0  0  0  0  0  0
    8.8414   46.9555  134.6996 C   0  0  0  0  0  0  0  0  0  0  0  0
   10.6771   46.7753  130.1220 O   0  0  0  0  0  0  0  0  0  0  0  0
   10.5413   45.6011  129.3920 C   0  0  0  0  0  0  0  0  0  0  0  0
    9.3062   45.0106  129.2885 C   0  0  0  0  0  0  0  0  0  0  0  0
    9.1792   43.8486  128.5669 C   0  0  0  0  0  0  0  0  0  0  0  0
   10.2485   43.2526  127.9394 C   0  0  0  0  0  0  0  0  0  0  0  0
   11.4913   43.8532  128.0456 C   0  0  0  0  0  0  0  0  0  0  0  0
   11.6107   45.0143  128.7710 C   0  0  0  0  0  0  0  0  0  0  0  0
   10.0622   41.9993  127.2388 C   0  0  0  0  0  0  0  0  0  0  0  0
   11.0002   41.1410  126.9644 C   0  0  0  0  0  0  0  0  0  0  0  0
   10.7577   39.8791  126.2564 C   0  0  0  0  0  0  0  0  0  0  0  0
   11.5502   38.9090  126.3262 O   0  0  0  0  0  0  0  0  0  0  0  0
    9.5901   39.7146  125.4521 N   0  0  0  0  0  0  0  0  0  0  0  0
    8.9248   40.5096  125.4095 H   0  0  0  0  0  0  0  0  0  0  0  0
    9.3362   38.5055  124.7278 C   0  0  0  0  0  0  0  0  0  0  0  0
    7.8360   38.2569  124.6121 C   0  0  0  0  0  0  0  0  0  0  0  0
    9.9306   38.5084  123.3520 C   0  0  0  0  0  0  0  0  0  0  0  0
 19 20  1  0  0  0
 20  1  1  0  0  0
  1  2  2  0  0  0
  2  3  1  0  0  0
  3  4  2  0  0  0
  4  5  1  0  0  0
  5  6  1  0  0  0
  5  7  2  0  0  0
  7  8  1  0  0  0
  8  9  2  0  0  0
  9 10  1  0  0  0
 10 21  1  0  0  0
 21 22  1  0  0  0
 22 23  2  0  0  0
 23 24  1  0  0  0
 24 25  2  0  0  0
 25 28  1  0  0  0
 28 29  2  0  0  0
 29 30  1  0  0  0
 30 31  2  0  0  0
 30 32  1  0  0  0
 32 34  1  0  0  0
 34 35  1  0  0  0
 34 36  1  0  0  0
 25 26  1  0  0  0
 26 27  2  0  0  0
 10 11  2  0  0  0
 11 13  1  0  0  0
 13 14  2  0  0  0
 14 15  1  0  0  0
 15 16  2  0  0  0
 16 17  1  0  0  0
 17 18  2  0  0  0
 11  1  1  0  0  0
 18 13  1  0  0  0
  9  3  1  0  0  0
 27 22  1  0  0  0
  6 12  1  0  0  0
 32 33  1  0  0  0
M  END
> <minimizedAffinity>
11.21720

> <CNNscore>
0.4508846700

> <CNNaffinity>
7.8938865662

> <CNN_VS>
3.5592324734

> <CNNaffinity_variance>
0.5415221453

$$$$
[H]OC(=O)/C([H])=C(\[H])c1c([H])c([H])c(Oc2c(-c3c([H])c([H])c([H])c([H])c3OC(F)(F)F)sc3c([H])c(O[H])c([H])c([H])c23)c([H])c1[H]


 35 38  0  0  0  0  0  0  0  0999 V2000
    8.6011   46.5422  131.3256 C   0  0  0  0  0  0  0  0  0  0  0  0
    9.6513   46.6742  132.1456 C   0  0  0  0  0  0  0  0  0  0  0  0
    9.9774   48.3798  132.0435 S   0  0  0  0  0  0  0  0  0  0  0  0
    8.7493   48.8311  130.9586 C   0  0  0  0  0  0  0  0  0  0  0  0
    8.3697   50.0627  130.3908 C   0  0  0  0  0  0  0  0  0  0  0  0
    7.3061   50.1335  129.5194 C   0  0  0  0  0  0  0  0  0  0  0  0
    6.9452   51.3468  128.9706 O   0  0  0  0  0  0  0  0  0  0  0  0
    6.6738   48.9447  129.2631 C   0  0  0  0  0  0  0  0  0  0  0  0
    7.0186   47.7280  129.7996 C   0  0  0  0  0  0  0  0  0  0  0  0
    8.1137   47.6519  130.6975 C   0  0  0  0  0  0  0  0  0  0  0  0
    7.3162   51.7046  128.1034 H   0  0  0  0  0  0  0  0  0  0  0  0
   10.4463   45.7636  132.9697 C   0  0  0  0  0  0  0  0  0  0  0  0
   10.1337   45.4479  134.2374 C   0  0  0  0  0  0  0  0  0  0  0  0
   10.8716   44.5490  135.0159 C   0  0  0  0  0  0  0  0  0  0  0  0
   11.9754   43.9511  134.4714 C   0  0  0  0  0  0  0  0  0  0  0  0
   12.3206   44.2617  133.1626 C   0  0  0  0  0  0  0  0  0  0  0  0
   11.5755   45.1505  132.4176 C   0  0  0  0  0  0  0  0  0  0  0  0
   11.9269   45.4541  131.1131 O   0  0  0  0  0  0  0  0  0  0  0  0
   12.3883   44.5152  130.1821 C   0  0  0  0  0  0  0  0  0  0  0  0
   13.7741   44.4049  130.3527 F   0  0  0  0  0  0  0  0  0  0  0  0
   12.1790   44.9205  128.8653 F   0  0  0  0  0  0  0  0  0  0  0  0
   11.8720   43.2673  130.4319 F   0  0  0  0  0  0  0  0  0  0  0  0
    8.0077   45.2477  131.1108 O   0  0  0  0  0  0  0  0  0  0  0  0
    9.6392   42.6143  128.2751 C   0  0  0  0  0  0  0  0  0  0  0  0
    9.2668   42.2021  129.5218 C   0  0  0  0  0  0  0  0  0  0  0  0
    8.7331   43.1044  130.4254 C   0  0  0  0  0  0  0  0  0  0  0  0
    8.5560   44.4347  130.1151 C   0  0  0  0  0  0  0  0  0  0  0  0
    8.9248   44.8544  128.8735 C   0  0  0  0  0  0  0  0  0  0  0  0
    9.4647   43.9534  127.9523 C   0  0  0  0  0  0  0  0  0  0  0  0
   10.0051   40.4246  127.2686 C   0  0  0  0  0  0  0  0  0  0  0  0
   10.2049   41.7207  127.2799 C   0  0  0  0  0  0  0  0  0  0  0  0
    9.8093   38.9825  125.3030 O   0  0  0  0  0  0  0  0  0  0  0  0
   10.6335   39.6180  126.2052 C   0  0  0  0  0  0  0  0  0  0  0  0
   11.8662   39.5152  126.1260 O   0  0  0  0  0  0  0  0  0  0  0  0
    9.1220   39.4516  124.7178 H   0  0  0  0  0  0  0  0  0  0  0  0
 32 33  1  0  0  0
 33 34  2  0  0  0
 33 30  1  0  0  0
 30 31  2  0  0  0
 31 24  1  0  0  0
 24 25  2  0  0  0
 25 26  1  0  0  0
 26 27  2  0  0  0
 27 23  1  0  0  0
 23  1  1  0  0  0
  1  2  2  0  0  0
  2  3  1  0  0  0
  3  4  1  0  0  0
  4  5  2  0  0  0
  5  6  1  0  0  0
  6  7  1  0  0  0
  6  8  2  0  0  0
  8  9  1  0  0  0
  9 10  2  0  0  0
  2 12  1  0  0  0
 12 13  2  0  0  0
 13 14  1  0  0  0
 14 15  2  0  0  0
 15 16  1  0  0  0
 16 17  2  0  0  0
 17 18  1  0  0  0
 18 19  1  0  0  0
 19 20  1  0  0  0
 19 21  1  0  0  0
 19 22  1  0  0  0
 27 28  1  0  0  0
 28 29  2  0  0  0
 29 24  1  0  0  0
 10  1  1  0  0  0
 17 12  1  0  0  0
 10  4  1  0  0  0
 32 35  1  0  0  0
  7 11  1  0  0  0
M  END
> <minimizedAffinity>
1.34358

> <CNNscore>
0.5836663842

> <CNNaffinity>
8.3779363632

> <CNN_VS>
4.8899197578

> <CNNaffinity_variance>
1.0461528301

$$$$
[H]OC(=O)/C([H])=C(\[H])c1c([H])c([H])c(Oc2c(-c3c([H])c([H])c([H])c([H])c3OC(F)(F)F)sc3c([H])c(O[H])c([H])c([H])c23)c([H])c1[H]


 35 38  0  0  0  0  0  0  0  0999 V2000
    8.5994   46.3182  130.7747 C   0  0  0  0  0  0  0  0  0  0  0  0
    9.7717   46.3613  131.4201 C   0  0  0  0  0  0  0  0  0  0  0  0
   10.1271   48.0641  131.4107 S   0  0  0  0  0  0  0  0  0  0  0  0
    8.7537   48.6281  130.5834 C   0  0  0  0  0  0  0  0  0  0  0  0
    8.3237   49.9107  130.1917 C   0  0  0  0  0  0  0  0  0  0  0  0
    7.1358   50.0744  129.5152 C   0  0  0  0  0  0  0  0  0  0  0  0
    6.7269   51.3368  129.1375 O   0  0  0  0  0  0  0  0  0  0  0  0
    6.4357   48.9227  129.2661 C   0  0  0  0  0  0  0  0  0  0  0  0
    6.8267   47.6582  129.6340 C   0  0  0  0  0  0  0  0  0  0  0  0
    8.0498   47.4864  130.3310 C   0  0  0  0  0  0  0  0  0  0  0  0
    6.9632   51.7641  128.2548 H   0  0  0  0  0  0  0  0  0  0  0  0
   10.6623   45.3695  132.0229 C   0  0  0  0  0  0  0  0  0  0  0  0
   11.7174   44.8366  131.3848 C   0  0  0  0  0  0  0  0  0  0  0  0
   12.5925   43.9152  131.9713 C   0  0  0  0  0  0  0  0  0  0  0  0
   12.3749   43.5245  133.2644 C   0  0  0  0  0  0  0  0  0  0  0  0
   11.2898   44.0601  133.9458 C   0  0  0  0  0  0  0  0  0  0  0  0
   10.4436   44.9667  133.3441 C   0  0  0  0  0  0  0  0  0  0  0  0
    9.3642   45.4959  134.0313 O   0  0  0  0  0  0  0  0  0  0  0  0
    9.4443   46.5873  134.9051 C   0  0  0  0  0  0  0  0  0  0  0  0
    9.7203   46.0806  136.1813 F   0  0  0  0  0  0  0  0  0  0  0  0
    8.2409   47.2831  135.0033 F   0  0  0  0  0  0  0  0  0  0  0  0
   10.4969   47.4090  134.5843 F   0  0  0  0  0  0  0  0  0  0  0  0
    7.9413   45.0570  130.5510 O   0  0  0  0  0  0  0  0  0  0  0  0
    9.9416   42.3682  128.0197 C   0  0  0  0  0  0  0  0  0  0  0  0
    9.6652   43.6515  127.6461 C   0  0  0  0  0  0  0  0  0  0  0  0
    9.0035   44.5042  128.5125 C   0  0  0  0  0  0  0  0  0  0  0  0
    8.6007   44.1057  129.7680 C   0  0  0  0  0  0  0  0  0  0  0  0
    8.8725   42.8271  130.1488 C   0  0  0  0  0  0  0  0  0  0  0  0
    9.5398   41.9566  129.2835 C   0  0  0  0  0  0  0  0  0  0  0  0
   10.1263   40.2693  126.7942 C   0  0  0  0  0  0  0  0  0  0  0  0
   10.6319   41.4227  127.1605 C   0  0  0  0  0  0  0  0  0  0  0  0
   10.2658   38.7023  124.9216 O   0  0  0  0  0  0  0  0  0  0  0  0
   10.9232   39.3906  125.9171 C   0  0  0  0  0  0  0  0  0  0  0  0
   12.1476   39.2751  126.0715 O   0  0  0  0  0  0  0  0  0  0  0  0
    9.7053   39.1362  124.1919 H   0  0  0  0  0  0  0  0  0  0  0  0
 32 33  1  0  0  0
 33 34  2  0  0  0
 33 30  1  0  0  0
 30 31  2  0  0  0
 31 24  1  0  0  0
 24 25  2  0  0  0
 25 26  1  0  0  0
 26 27  2  0  0  0
 27 23  1  0  0  0
 23  1  1  0  0  0
  1  2  2  0  0  0
  2  3  1  0  0  0
  3  4  1  0  0  0
  4  5  2  0  0  0
  5  6  1  0  0  0
  6  7  1  0  0  0
  6  8  2  0  0  0
  8  9  1  0  0  0
  9 10  2  0  0  0
  2 12  1  0  0  0
 12 13  2  0  0  0
 13 14  1  0  0  0
 14 15  2  0  0  0
 15 16  1  0  0  0
 16 17  2  0  0  0
 17 18  1  0  0  0
 18 19  1  0  0  0
 19 20  1  0  0  0
 19 21  1  0  0  0
 19 22  1  0  0  0
 27 28  1  0  0  0
 28 29  2  0  0  0
 29 24  1  0  0  0
 10  1  1  0  0  0
 17 12  1  0  0  0
 10  4  1  0  0  0
 32 35  1  0  0  0
  7 11  1  0  0  0
M  END
> <minimizedAffinity>
2.09094

> <CNNscore>
0.5760688186

> <CNNaffinity>
8.4944515228

> <CNN_VS>
4.8933887482

> <CNNaffinity_variance>
1.5189058781

$$$$
[H]OC(=O)/C([H])=C(\[H])c1c([H])c([H])c(Oc2c(-c3c([H])c([H])c([H])c([H])c3OC(F)(F)F)sc3c([H])c(O[H])c([H])c([H])c23)c([H])c1[H]


 35 38  0  0  0  0  0  0  0  0999 V2000
    8.5942   46.6304  131.1781 C   0  0  0  0  0  0  0  0  0  0  0  0
    9.4335   46.7853  132.2097 C   0  0  0  0  0  0  0  0  0  0  0  0
    9.5965   48.5155  132.2863 S   0  0  0  0  0  0  0  0  0  0  0  0
    8.5788   48.9460  130.9949 C   0  0  0  0  0  0  0  0  0  0  0  0
    8.1998   50.1825  130.4375 C   0  0  0  0  0  0  0  0  0  0  0  0
    7.3372   50.2320  129.3655 C   0  0  0  0  0  0  0  0  0  0  0  0
    6.9745   51.4504  128.8294 O   0  0  0  0  0  0  0  0  0  0  0  0
    6.8970   49.0179  128.9065 C   0  0  0  0  0  0  0  0  0  0  0  0
    7.2470   47.7957  129.4270 C   0  0  0  0  0  0  0  0  0  0  0  0
    8.1353   47.7415  130.5312 C   0  0  0  0  0  0  0  0  0  0  0  0
    7.4775   51.9099  128.0854 H   0  0  0  0  0  0  0  0  0  0  0  0
   10.1309   45.8825  133.1257 C   0  0  0  0  0  0  0  0  0  0  0  0
    9.6812   45.5827  134.3554 C   0  0  0  0  0  0  0  0  0  0  0  0
   10.3268   44.6912  135.2198 C   0  0  0  0  0  0  0  0  0  0  0  0
   11.4809   44.0841  134.8054 C   0  0  0  0  0  0  0  0  0  0  0  0
   11.9674   44.3783  133.5384 C   0  0  0  0  0  0  0  0  0  0  0  0
   11.3110   45.2601  132.7067 C   0  0  0  0  0  0  0  0  0  0  0  0
   11.8031   45.5473  131.4447 O   0  0  0  0  0  0  0  0  0  0  0  0
   12.5454   44.6514  130.6653 C   0  0  0  0  0  0  0  0  0  0  0  0
   13.8218   44.5613  131.2346 F   0  0  0  0  0  0  0  0  0  0  0  0
   12.7221   45.0995  129.3576 F   0  0  0  0  0  0  0  0  0  0  0  0
   12.0145   43.3857  130.7153 F   0  0  0  0  0  0  0  0  0  0  0  0
    8.1941   45.3113  130.7612 O   0  0  0  0  0  0  0  0  0  0  0  0
   10.5531   43.6337  127.7183 C   0  0  0  0  0  0  0  0  0  0  0  0
   10.4544   44.9823  127.9031 C   0  0  0  0  0  0  0  0  0  0  0  0
    9.6649   45.4923  128.9190 C   0  0  0  0  0  0  0  0  0  0  0  0
    8.9557   44.6787  129.7748 C   0  0  0  0  0  0  0  0  0  0  0  0
    9.0486   43.3320  129.5976 C   0  0  0  0  0  0  0  0  0  0  0  0
    9.8420   42.8048  128.5758 C   0  0  0  0  0  0  0  0  0  0  0  0
   12.6741   43.0456  126.6710 C   0  0  0  0  0  0  0  0  0  0  0  0
   11.3627   43.0330  126.6731 C   0  0  0  0  0  0  0  0  0  0  0  0
   13.1518   41.0655  125.3172 O   0  0  0  0  0  0  0  0  0  0  0  0
   13.3893   42.4015  125.5529 C   0  0  0  0  0  0  0  0  0  0  0  0
   14.1801   43.0436  124.8467 O   0  0  0  0  0  0  0  0  0  0  0  0
   12.2354   40.6655  125.1296 H   0  0  0  0  0  0  0  0  0  0  0  0
 32 33  1  0  0  0
 33 34  2  0  0  0
 33 30  1  0  0  0
 30 31  2  0  0  0
 31 24  1  0  0  0
 24 25  2  0  0  0
 25 26  1  0  0  0
 26 27  2  0  0  0
 27 23  1  0  0  0
 23  1  1  0  0  0
  1  2  2  0  0  0
  2  3  1  0  0  0
  3  4  1  0  0  0
  4  5  2  0  0  0
  5  6  1  0  0  0
  6  7  1  0  0  0
  6  8  2  0  0  0
  8  9  1  0  0  0
  9 10  2  0  0  0
  2 12  1  0  0  0
 12 13  2  0  0  0
 13 14  1  0  0  0
 14 15  2  0  0  0
 15 16  1  0  0  0
 16 17  2  0  0  0
 17 18  1  0  0  0
 18 19  1  0  0  0
 19 20  1  0  0  0
 19 21  1  0  0  0
 19 22  1  0  0  0
 27 28  1  0  0  0
 28 29  2  0  0  0
 29 24  1  0  0  0
 10  1  1  0  0  0
 17 12  1  0  0  0
 10  4  1  0  0  0
 32 35  1  0  0  0
  7 11  1  0  0  0
M  END
> <minimizedAffinity>
3.21353

> <CNNscore>
0.5634594560

> <CNNaffinity>
8.1309862137

> <CNN_VS>
4.5814809799

> <CNNaffinity_variance>
0.5909073949

$$$$
[H]OC(=O)/C([H])=C(\[H])c1c([H])c([H])c(Oc2c(-c3c([H])c([H])c([H])c([H])c3OC(F)(F)F)sc3c([H])c(O[H])c([H])c([H])c23)c([H])c1[H]


 35 38  0  0  0  0  0  0  0  0999 V2000
    9.3440   44.0239  132.4173 C   0  0  0  0  0  0  0  0  0  0  0  0
    9.9668   43.5592  131.3271 C   0  0  0  0  0  0  0  0  0  0  0  0
    9.1512   42.0456  131.0626 S   0  0  0  0  0  0  0  0  0  0  0  0
    8.0553   42.0921  132.3609 C   0  0  0  0  0  0  0  0  0  0  0  0
    7.0544   41.2087  132.8092 C   0  0  0  0  0  0  0  0  0  0  0  0
    6.2993   41.5121  133.9198 C   0  0  0  0  0  0  0  0  0  0  0  0
    5.3220   40.6374  134.3478 O   0  0  0  0  0  0  0  0  0  0  0  0
    6.5967   42.7043  134.5272 C   0  0  0  0  0  0  0  0  0  0  0  0
    7.5653   43.5872  134.1158 C   0  0  0  0  0  0  0  0  0  0  0  0
    8.3447   43.2775  132.9722 C   0  0  0  0  0  0  0  0  0  0  0  0
    5.4837   39.8929  135.0091 H   0  0  0  0  0  0  0  0  0  0  0  0
   11.0525   44.0345  130.4693 C   0  0  0  0  0  0  0  0  0  0  0  0
   10.8526   44.6127  129.2734 C   0  0  0  0  0  0  0  0  0  0  0  0
   11.8869   45.1015  128.4672 C   0  0  0  0  0  0  0  0  0  0  0  0
   13.1782   44.9913  128.9059 C   0  0  0  0  0  0  0  0  0  0  0  0
   13.4116   44.3962  130.1387 C   0  0  0  0  0  0  0  0  0  0  0  0
   12.3740   43.9236  130.9133 C   0  0  0  0  0  0  0  0  0  0  0  0
   12.6160   43.3319  132.1416 O   0  0  0  0  0  0  0  0  0  0  0  0
   12.6083   44.0180  133.3623 C   0  0  0  0  0  0  0  0  0  0  0  0
   11.4821   43.5881  134.0755 F   0  0  0  0  0  0  0  0  0  0  0  0
   12.4766   45.3959  133.2005 F   0  0  0  0  0  0  0  0  0  0  0  0
   13.6970   43.6851  134.1304 F   0  0  0  0  0  0  0  0  0  0  0  0
    9.7330   45.2861  132.9914 O   0  0  0  0  0  0  0  0  0  0  0  0
    8.6094   48.9225  131.2160 C   0  0  0  0  0  0  0  0  0  0  0  0
    9.4996   48.8610  132.2487 C   0  0  0  0  0  0  0  0  0  0  0  0
    9.8417   47.6404  132.8043 C   0  0  0  0  0  0  0  0  0  0  0  0
    9.3103   46.4536  132.3501 C   0  0  0  0  0  0  0  0  0  0  0  0
    8.4214   46.5058  131.3201 C   0  0  0  0  0  0  0  0  0  0  0  0
    8.0679   47.7316  130.7506 C   0  0  0  0  0  0  0  0  0  0  0  0
    7.2429   50.2596  129.7039 C   0  0  0  0  0  0  0  0  0  0  0  0
    8.2074   50.1686  130.5880 C   0  0  0  0  0  0  0  0  0  0  0  0
    7.1097   51.7656  127.7815 O   0  0  0  0  0  0  0  0  0  0  0  0
    6.9240   51.5824  129.1338 C   0  0  0  0  0  0  0  0  0  0  0  0
    6.5015   52.5013  129.8504 O   0  0  0  0  0  0  0  0  0  0  0  0
    6.6690   51.2047  127.0562 H   0  0  0  0  0  0  0  0  0  0  0  0
 32 33  1  0  0  0
 33 34  2  0  0  0
 33 30  1  0  0  0
 30 31  2  0  0  0
 31 24  1  0  0  0
 24 25  2  0  0  0
 25 26  1  0  0  0
 26 27  2  0  0  0
 27 23  1  0  0  0
 23  1  1  0  0  0
  1  2  2  0  0  0
  2  3  1  0  0  0
  3  4  1  0  0  0
  4  5  2  0  0  0
  5  6  1  0  0  0
  6  7  1  0  0  0
  6  8  2  0  0  0
  8  9  1  0  0  0
  9 10  2  0  0  0
  2 12  1  0  0  0
 12 13  2  0  0  0
 13 14  1  0  0  0
 14 15  2  0  0  0
 15 16  1  0  0  0
 16 17  2  0  0  0
 17 18  1  0  0  0
 18 19  1  0  0  0
 19 20  1  0  0  0
 19 21  1  0  0  0
 19 22  1  0  0  0
 27 28  1  0  0  0
 28 29  2  0  0  0
 29 24  1  0  0  0
 10  1  1  0  0  0
 17 12  1  0  0  0
 10  4  1  0  0  0
 32 35  1  0  0  0
  7 11  1  0  0  0
M  END
> <minimizedAffinity>
6.77131

> <CNNscore>
0.5373056531

> <CNNaffinity>
8.1399822235

> <CNN_VS>
4.3736586571

> <CNNaffinity_variance>
1.4358717203

$$$$
[H]OC(=O)/C([H])=C(\[H])c1c([H])c([H])c(Oc2c(-c3c([H])c([H])c([H])c([H])c3OC(F)(F)F)sc3c([H])c(O[H])c([H])c([H])c23)c([H])c1[H]


 35 38  0  0  0  0  0  0  0  0999 V2000
   11.5452   45.9594  132.4229 C   0  0  0  0  0  0  0  0  0  0  0  0
   11.8596   44.8534  131.7369 C   0  0  0  0  0  0  0  0  0  0  0  0
   11.5009   43.5998  132.8883 S   0  0  0  0  0  0  0  0  0  0  0  0
   10.9653   44.5604  134.1842 C   0  0  0  0  0  0  0  0  0  0  0  0
   10.4994   44.2595  135.4787 C   0  0  0  0  0  0  0  0  0  0  0  0
   10.1235   45.2665  136.3389 C   0  0  0  0  0  0  0  0  0  0  0  0
    9.6689   44.9572  137.6043 O   0  0  0  0  0  0  0  0  0  0  0  0
   10.2384   46.5391  135.8429 C   0  0  0  0  0  0  0  0  0  0  0  0
   10.6885   46.8661  134.5869 C   0  0  0  0  0  0  0  0  0  0  0  0
   11.0765   45.8309  133.6985 C   0  0  0  0  0  0  0  0  0  0  0  0
   10.2672   44.8741  138.4123 H   0  0  0  0  0  0  0  0  0  0  0  0
   12.3816   44.5744  130.3990 C   0  0  0  0  0  0  0  0  0  0  0  0
   13.6874   44.4030  130.1343 C   0  0  0  0  0  0  0  0  0  0  0  0
   14.1862   44.0998  128.8623 C   0  0  0  0  0  0  0  0  0  0  0  0
   13.3094   43.9684  127.8202 C   0  0  0  0  0  0  0  0  0  0  0  0
   11.9540   44.1421  128.0675 C   0  0  0  0  0  0  0  0  0  0  0  0
   11.4893   44.4398  129.3306 C   0  0  0  0  0  0  0  0  0  0  0  0
   10.1359   44.6109  129.5682 O   0  0  0  0  0  0  0  0  0  0  0  0
    9.1824   43.5905  129.4658 C   0  0  0  0  0  0  0  0  0  0  0  0
    8.9061   43.4126  128.1043 F   0  0  0  0  0  0  0  0  0  0  0  0
    7.9755   43.9229  130.0782 F   0  0  0  0  0  0  0  0  0  0  0  0
    9.6817   42.3921  129.9141 F   0  0  0  0  0  0  0  0  0  0  0  0
   11.7088   47.2570  131.8200 O   0  0  0  0  0  0  0  0  0  0  0  0
    8.2002   49.3203  130.7851 C   0  0  0  0  0  0  0  0  0  0  0  0
    8.6186   48.2109  130.1092 C   0  0  0  0  0  0  0  0  0  0  0  0
    9.7818   47.5616  130.4844 C   0  0  0  0  0  0  0  0  0  0  0  0
   10.5568   47.9959  131.5371 C   0  0  0  0  0  0  0  0  0  0  0  0
   10.1467   49.1019  132.2169 C   0  0  0  0  0  0  0  0  0  0  0  0
    8.9744   49.7663  131.8480 C   0  0  0  0  0  0  0  0  0  0  0  0
    5.8468   49.4695  130.1683 C   0  0  0  0  0  0  0  0  0  0  0  0
    6.9909   50.0483  130.4441 C   0  0  0  0  0  0  0  0  0  0  0  0
    3.9495   49.9922  128.7162 O   0  0  0  0  0  0  0  0  0  0  0  0
    4.6847   50.3151  129.8352 C   0  0  0  0  0  0  0  0  0  0  0  0
    4.3791   51.2869  130.5412 O   0  0  0  0  0  0  0  0  0  0  0  0
    3.5018   49.0925  128.5583 H   0  0  0  0  0  0  0  0  0  0  0  0
 32 33  1  0  0  0
 33 34  2  0  0  0
 33 30  1  0  0  0
 30 31  2  0  0  0
 31 24  1  0  0  0
 24 25  2  0  0  0
 25 26  1  0  0  0
 26 27  2  0  0  0
 27 23  1  0  0  0
 23  1  1  0  0  0
  1  2  2  0  0  0
  2  3  1  0  0  0
  3  4  1  0  0  0
  4  5  2  0  0  0
  5  6  1  0  0  0
  6  7  1  0  0  0
  6  8  2  0  0  0
  8  9  1  0  0  0
  9 10  2  0  0  0
  2 12  1  0  0  0
 12 13  2  0  0  0
 13 14  1  0  0  0
 14 15  2  0  0  0
 15 16  1  0  0  0
 16 17  2  0  0  0
 17 18  1  0  0  0
 18 19  1  0  0  0
 19 20  1  0  0  0
 19 21  1  0  0  0
 19 22  1  0  0  0
 27 28  1  0  0  0
 28 29  2  0  0  0
 29 24  1  0  0  0
 10  1  1  0  0  0
 17 12  1  0  0  0
 10  4  1  0  0  0
 32 35  1  0  0  0
  7 11  1  0  0  0
M  END
> <minimizedAffinity>
4.13310

> <CNNscore>
0.4950256348

> <CNNaffinity>
7.9646377563

> <CNN_VS>
3.9426999092

> <CNNaffinity_variance>
0.9276180267

$$$$
[H]OC(=O)/C([H])=C(\[H])c1c([H])c([H])c(Oc2c(-c3c([H])c([H])c([H])c([H])c3OC(F)(F)F)sc3c([H])c(O[H])c([H])c([H])c23)c([H])c1[H]


 35 38  0  0  0  0  0  0  0  0999 V2000
    9.5121   46.5719  131.0344 C   0  0  0  0  0  0  0  0  0  0  0  0
    8.8955   45.9008  132.0152 C   0  0  0  0  0  0  0  0  0  0  0  0
    7.5762   46.9648  132.4071 S   0  0  0  0  0  0  0  0  0  0  0  0
    7.8848   48.2094  131.2916 C   0  0  0  0  0  0  0  0  0  0  0  0
    7.2393   49.4276  131.0039 C   0  0  0  0  0  0  0  0  0  0  0  0
    7.7236   50.2613  130.0210 C   0  0  0  0  0  0  0  0  0  0  0  0
    7.0811   51.4517  129.7497 O   0  0  0  0  0  0  0  0  0  0  0  0
    8.8465   49.8177  129.3723 C   0  0  0  0  0  0  0  0  0  0  0  0
    9.4994   48.6365  129.6285 C   0  0  0  0  0  0  0  0  0  0  0  0
    9.0029   47.7757  130.6404 C   0  0  0  0  0  0  0  0  0  0  0  0
    7.2992   52.3251  130.2049 H   0  0  0  0  0  0  0  0  0  0  0  0
    9.1212   44.6311  132.7059 C   0  0  0  0  0  0  0  0  0  0  0  0
    8.2967   43.5755  132.6035 C   0  0  0  0  0  0  0  0  0  0  0  0
    8.5291   42.3476  133.2336 C   0  0  0  0  0  0  0  0  0  0  0  0
    9.6524   42.1979  134.0004 C   0  0  0  0  0  0  0  0  0  0  0  0
   10.5203   43.2749  134.1233 C   0  0  0  0  0  0  0  0  0  0  0  0
   10.2676   44.4735  133.4911 C   0  0  0  0  0  0  0  0  0  0  0  0
   11.1389   45.5421  133.6189 O   0  0  0  0  0  0  0  0  0  0  0  0
   12.4744   45.5251  133.1981 C   0  0  0  0  0  0  0  0  0  0  0  0
   12.6665   46.6410  132.3739 F   0  0  0  0  0  0  0  0  0  0  0  0
   12.7784   44.4035  132.4289 F   0  0  0  0  0  0  0  0  0  0  0  0
   13.3349   45.6796  134.2573 F   0  0  0  0  0  0  0  0  0  0  0  0
   10.6947   46.0291  130.4173 O   0  0  0  0  0  0  0  0  0  0  0  0
   10.2018   42.6776  127.9349 C   0  0  0  0  0  0  0  0  0  0  0  0
   10.2079   42.5806  129.2962 C   0  0  0  0  0  0  0  0  0  0  0  0
   10.3735   43.7117  130.0764 C   0  0  0  0  0  0  0  0  0  0  0  0
   10.5366   44.9640  129.5264 C   0  0  0  0  0  0  0  0  0  0  0  0
   10.5316   45.0698  128.1691 C   0  0  0  0  0  0  0  0  0  0  0  0
   10.3654   43.9357  127.3705 C   0  0  0  0  0  0  0  0  0  0  0  0
   10.8958   40.5484  126.9725 C   0  0  0  0  0  0  0  0  0  0  0  0
   10.0328   41.5321  127.0584 C   0  0  0  0  0  0  0  0  0  0  0  0
   11.6787   38.6828  125.5982 O   0  0  0  0  0  0  0  0  0  0  0  0
   10.6156   39.4362  126.0446 C   0  0  0  0  0  0  0  0  0  0  0  0
    9.4581   39.1872  125.6778 O   0  0  0  0  0  0  0  0  0  0  0  0
   12.3281   38.1844  126.2022 H   0  0  0  0  0  0  0  0  0  0  0  0
 32 33  1  0  0  0
 33 34  2  0  0  0
 33 30  1  0  0  0
 30 31  2  0  0  0
 31 24  1  0  0  0
 24 25  2  0  0  0
 25 26  1  0  0  0
 26 27  2  0  0  0
 27 23  1  0  0  0
 23  1  1  0  0  0
  1  2  2  0  0  0
  2  3  1  0  0  0
  3  4  1  0  0  0
  4  5  2  0  0  0
  5  6  1  0  0  0
  6  7  1  0  0  0
  6  8  2  0  0  0
  8  9  1  0  0  0
  9 10  2  0  0  0
  2 12  1  0  0  0
 12 13  2  0  0  0
 13 14  1  0  0  0
 14 15  2  0  0  0
 15 16  1  0  0  0
 16 17  2  0  0  0
 17 18  1  0  0  0
 18 19  1  0  0  0
 19 20  1  0  0  0
 19 21  1  0  0  0
 19 22  1  0  0  0
 27 28  1  0  0  0
 28 29  2  0  0  0
 29 24  1  0  0  0
 10  1  1  0  0  0
 17 12  1  0  0  0
 10  4  1  0  0  0
 32 35  1  0  0  0
  7 11  1  0  0  0
M  END
> <minimizedAffinity>
8.56038

> <CNNscore>
0.4746056199

> <CNNaffinity>
7.7723746300

> <CNN_VS>
3.6888127327

> <CNNaffinity_variance>
1.2968375683

$$$$
[H]OC(=O)/C([H])=C(\[H])c1c([H])c([H])c(Oc2c(-c3c([H])c([H])c([H])c([H])c3OC(F)(F)F)sc3c([H])c(O[H])c([H])c([H])c23)c([H])c1[H]


 35 38  0  0  0  0  0  0  0  0999 V2000
   10.4316   45.4522  130.9371 C   0  0  0  0  0  0  0  0  0  0  0  0
   10.5369   45.6322  132.2596 C   0  0  0  0  0  0  0  0  0  0  0  0
   12.2007   45.2156  132.5496 S   0  0  0  0  0  0  0  0  0  0  0  0
   12.6712   44.8365  130.9610 C   0  0  0  0  0  0  0  0  0  0  0  0
   13.8869   44.4107  130.3916 C   0  0  0  0  0  0  0  0  0  0  0  0
   13.9808   44.1728  129.0388 C   0  0  0  0  0  0  0  0  0  0  0  0
   15.1781   43.7561  128.4945 O   0  0  0  0  0  0  0  0  0  0  0  0
   12.8304   44.3790  128.3227 C   0  0  0  0  0  0  0  0  0  0  0  0
   11.6301   44.7933  128.8469 C   0  0  0  0  0  0  0  0  0  0  0  0
   11.5303   45.0392  130.2401 C   0  0  0  0  0  0  0  0  0  0  0  0
   15.4454   42.7882  128.3976 H   0  0  0  0  0  0  0  0  0  0  0  0
    9.6256   46.0438  133.3275 C   0  0  0  0  0  0  0  0  0  0  0  0
    9.8087   47.1456  134.0738 C   0  0  0  0  0  0  0  0  0  0  0  0
    8.9195   47.5617  135.0712 C   0  0  0  0  0  0  0  0  0  0  0  0
    7.7980   46.8161  135.3129 C   0  0  0  0  0  0  0  0  0  0  0  0
    7.5862   45.6714  134.5556 C   0  0  0  0  0  0  0  0  0  0  0  0
    8.4782   45.2846  133.5785 C   0  0  0  0  0  0  0  0  0  0  0  0
    8.2589   44.1419  132.8278 O   0  0  0  0  0  0  0  0  0  0  0  0
    8.9362   42.9312  133.0186 C   0  0  0  0  0  0  0  0  0  0  0  0
    7.9995   41.9969  133.4782 F   0  0  0  0  0  0  0  0  0  0  0  0
    9.9248   43.0199  133.9968 F   0  0  0  0  0  0  0  0  0  0  0  0
    9.4196   42.4359  131.8324 F   0  0  0  0  0  0  0  0  0  0  0  0
    9.1758   45.6855  130.2718 O   0  0  0  0  0  0  0  0  0  0  0  0
    7.8037   49.5817  129.5134 C   0  0  0  0  0  0  0  0  0  0  0  0
    7.1203   48.4755  129.0986 C   0  0  0  0  0  0  0  0  0  0  0  0
    7.6093   47.2096  129.3703 C   0  0  0  0  0  0  0  0  0  0  0  0
    8.7856   47.0104  130.0587 C   0  0  0  0  0  0  0  0  0  0  0  0
    9.4737   48.1085  130.4763 C   0  0  0  0  0  0  0  0  0  0  0  0
    8.9907   49.3917  130.2083 C   0  0  0  0  0  0  0  0  0  0  0  0
    7.4888   51.5507  128.1116 C   0  0  0  0  0  0  0  0  0  0  0  0
    7.3473   50.9371  129.2620 C   0  0  0  0  0  0  0  0  0  0  0  0
    7.0177   53.5107  126.7266 O   0  0  0  0  0  0  0  0  0  0  0  0
    6.9842   52.9303  127.9751 C   0  0  0  0  0  0  0  0  0  0  0  0
    6.5432   53.5484  128.9548 O   0  0  0  0  0  0  0  0  0  0  0  0
    6.5672   53.1278  125.8988 H   0  0  0  0  0  0  0  0  0  0  0  0
 32 33  1  0  0  0
 33 34  2  0  0  0
 33 30  1  0  0  0
 30 31  2  0  0  0
 31 24  1  0  0  0
 24 25  2  0  0  0
 25 26  1  0  0  0
 26 27  2  0  0  0
 27 23  1  0  0  0
 23  1  1  0  0  0
  1  2  2  0  0  0
  2  3  1  0  0  0
  3  4  1  0  0  0
  4  5  2  0  0  0
  5  6  1  0  0  0
  6  7  1  0  0  0
  6  8  2  0  0  0
  8  9  1  0  0  0
  9 10  2  0  0  0
  2 12  1  0  0  0
 12 13  2  0  0  0
 13 14  1  0  0  0
 14 15  2  0  0  0
 15 16  1  0  0  0
 16 17  2  0  0  0
 17 18  1  0  0  0
 18 19  1  0  0  0
 19 20  1  0  0  0
 19 21  1  0  0  0
 19 22  1  0  0  0
 27 28  1  0  0  0
 28 29  2  0  0  0
 29 24  1  0  0  0
 10  1  1  0  0  0
 17 12  1  0  0  0
 10  4  1  0  0  0
 32 35  1  0  0  0
  7 11  1  0  0  0
M  END
> <minimizedAffinity>
-0.46302

> <CNNscore>
0.4513748884

> <CNNaffinity>
7.7549958229

> <CNN_VS>
3.5004103184

> <CNNaffinity_variance>
0.8403251767

$$$$
[H]OC(=O)/C([H])=C(\[H])c1c([H])c([H])c(Oc2c(-c3c([H])c([H])c([H])c([H])c3OC(F)(F)F)sc3c([H])c(O[H])c([H])c([H])c23)c([H])c1[H]


 35 38  0  0  0  0  0  0  0  0999 V2000
   11.0084   44.6852  132.1132 C   0  0  0  0  0  0  0  0  0  0  0  0
   10.3287   43.8473  131.3203 C   0  0  0  0  0  0  0  0  0  0  0  0
    9.9621   42.5391  132.4068 S   0  0  0  0  0  0  0  0  0  0  0  0
   10.6967   43.1380  133.8176 C   0  0  0  0  0  0  0  0  0  0  0  0
   10.8202   42.6357  135.1275 C   0  0  0  0  0  0  0  0  0  0  0  0
   11.4867   43.3558  136.0933 C   0  0  0  0  0  0  0  0  0  0  0  0
   11.6000   42.8516  137.3725 O   0  0  0  0  0  0  0  0  0  0  0  0
   11.9998   44.5586  135.6828 C   0  0  0  0  0  0  0  0  0  0  0  0
   11.8971   45.0765  134.4146 C   0  0  0  0  0  0  0  0  0  0  0  0
   11.2111   44.3371  133.4175 C   0  0  0  0  0  0  0  0  0  0  0  0
   12.3625   42.2679  137.6816 H   0  0  0  0  0  0  0  0  0  0  0  0
    9.9212   43.8480  129.9153 C   0  0  0  0  0  0  0  0  0  0  0  0
    8.6533   44.0329  129.5119 C   0  0  0  0  0  0  0  0  0  0  0  0
    8.2662   44.0707  128.1674 C   0  0  0  0  0  0  0  0  0  0  0  0
    9.2189   43.9111  127.1984 C   0  0  0  0  0  0  0  0  0  0  0  0
   10.5372   43.7171  127.5895 C   0  0  0  0  0  0  0  0  0  0  0  0
   10.8913   43.6848  128.9213 C   0  0  0  0  0  0  0  0  0  0  0  0
   12.2084   43.4912  129.3022 O   0  0  0  0  0  0  0  0  0  0  0  0
   13.1883   44.4915  129.2879 C   0  0  0  0  0  0  0  0  0  0  0  0
   13.5799   44.7111  130.6146 F   0  0  0  0  0  0  0  0  0  0  0  0
   12.7047   45.7071  128.8078 F   0  0  0  0  0  0  0  0  0  0  0  0
   14.3153   44.0786  128.6202 F   0  0  0  0  0  0  0  0  0  0  0  0
   11.5186   45.9255  131.5887 O   0  0  0  0  0  0  0  0  0  0  0  0
    8.7650   49.0011  130.8163 C   0  0  0  0  0  0  0  0  0  0  0  0
    9.3353   48.8258  132.0439 C   0  0  0  0  0  0  0  0  0  0  0  0
   10.2384   47.7984  132.2542 C   0  0  0  0  0  0  0  0  0  0  0  0
   10.5973   46.9217  131.2543 C   0  0  0  0  0  0  0  0  0  0  0  0
   10.0332   47.0894  130.0266 C   0  0  0  0  0  0  0  0  0  0  0  0
    9.1202   48.1226  129.8014 C   0  0  0  0  0  0  0  0  0  0  0  0
    7.6109   50.5491  129.3287 C   0  0  0  0  0  0  0  0  0  0  0  0
    7.8113   50.0575  130.5279 C   0  0  0  0  0  0  0  0  0  0  0  0
    6.7279   52.4430  128.0578 O   0  0  0  0  0  0  0  0  0  0  0  0
    6.6136   51.6228  129.1583 C   0  0  0  0  0  0  0  0  0  0  0  0
    5.7002   51.7819  129.9809 O   0  0  0  0  0  0  0  0  0  0  0  0
    6.7325   52.1192  127.0934 H   0  0  0  0  0  0  0  0  0  0  0  0
 32 33  1  0  0  0
 33 34  2  0  0  0
 33 30  1  0  0  0
 30 31  2  0  0  0
 31 24  1  0  0  0
 24 25  2  0  0  0
 25 26  1  0  0  0
 26 27  2  0  0  0
 27 23  1  0  0  0
 23  1  1  0  0  0
  1  2  2  0  0  0
  2  3  1  0  0  0
  3  4  1  0  0  0
  4  5  2  0  0  0
  5  6  1  0  0  0
  6  7  1  0  0  0
  6  8  2  0  0  0
  8  9  1  0  0  0
  9 10  2  0  0  0
  2 12  1  0  0  0
 12 13  2  0  0  0
 13 14  1  0  0  0
 14 15  2  0  0  0
 15 16  1  0  0  0
 16 17  2  0  0  0
 17 18  1  0  0  0
 18 19  1  0  0  0
 19 20  1  0  0  0
 19 21  1  0  0  0
 19 22  1  0  0  0
 27 28  1  0  0  0
 28 29  2  0  0  0
 29 24  1  0  0  0
 10  1  1  0  0  0
 17 12  1  0  0  0
 10  4  1  0  0  0
 32 35  1  0  0  0
  7 11  1  0  0  0
M  END
> <minimizedAffinity>
3.61318

> <CNNscore>
0.4513322711

> <CNNaffinity>
7.8220720291

> <CNN_VS>
3.5303535461

> <CNNaffinity_variance>
0.9279937744

$$$$
[H]OC(=O)/C([H])=C(\[H])c1c([H])c([H])c(Oc2c(-c3c([H])c([H])c([H])c([H])c3OC(F)(F)F)sc3c([H])c(O[H])c([H])c([H])c23)c([H])c1[H]


 35 38  0  0  0  0  0  0  0  0999 V2000
    9.1017   45.7134  130.8462 C   0  0  0  0  0  0  0  0  0  0  0  0
    9.8256   45.8845  131.9594 C   0  0  0  0  0  0  0  0  0  0  0  0
   11.3631   45.2149  131.4971 S   0  0  0  0  0  0  0  0  0  0  0  0
   10.9956   44.7550  129.9026 C   0  0  0  0  0  0  0  0  0  0  0  0
   11.7439   44.1401  128.8803 C   0  0  0  0  0  0  0  0  0  0  0  0
   11.1731   43.8804  127.6545 C   0  0  0  0  0  0  0  0  0  0  0  0
   11.9180   43.2775  126.6620 O   0  0  0  0  0  0  0  0  0  0  0  0
    9.8623   44.2588  127.5226 C   0  0  0  0  0  0  0  0  0  0  0  0
    9.1053   44.8597  128.4987 C   0  0  0  0  0  0  0  0  0  0  0  0
    9.6905   45.1284  129.7624 C   0  0  0  0  0  0  0  0  0  0  0  0
   11.9769   42.2790  126.5309 H   0  0  0  0  0  0  0  0  0  0  0  0
    9.5715   46.4415  133.2881 C   0  0  0  0  0  0  0  0  0  0  0  0
    9.1309   47.6937  133.4944 C   0  0  0  0  0  0  0  0  0  0  0  0
    8.8519   48.2172  134.7620 C   0  0  0  0  0  0  0  0  0  0  0  0
    9.0336   47.4239  135.8618 C   0  0  0  0  0  0  0  0  0  0  0  0
    9.4895   46.1254  135.6754 C   0  0  0  0  0  0  0  0  0  0  0  0
    9.7562   45.6346  134.4153 C   0  0  0  0  0  0  0  0  0  0  0  0
   10.2102   44.3384  134.2386 O   0  0  0  0  0  0  0  0  0  0  0  0
   11.5090   43.9101  134.5396 C   0  0  0  0  0  0  0  0  0  0  0  0
   12.3346   45.0414  134.5280 F   0  0  0  0  0  0  0  0  0  0  0  0
   12.0184   43.0341  133.5829 F   0  0  0  0  0  0  0  0  0  0  0  0
   11.5843   43.3951  135.8105 F   0  0  0  0  0  0  0  0  0  0  0  0
    7.7254   46.1354  130.8049 O   0  0  0  0  0  0  0  0  0  0  0  0
    7.0821   50.0518  129.4316 C   0  0  0  0  0  0  0  0  0  0  0  0
    8.0937   49.7393  130.2929 C   0  0  0  0  0  0  0  0  0  0  0  0
    8.2693   48.4347  130.7202 C   0  0  0  0  0  0  0  0  0  0  0  0
    7.4477   47.4103  130.3044 C   0  0  0  0  0  0  0  0  0  0  0  0
    6.4360   47.7133  129.4450 C   0  0  0  0  0  0  0  0  0  0  0  0
    6.2482   49.0263  129.0064 C   0  0  0  0  0  0  0  0  0  0  0  0
    7.4504   51.9149  127.9037 C   0  0  0  0  0  0  0  0  0  0  0  0
    6.8422   51.3987  128.9446 C   0  0  0  0  0  0  0  0  0  0  0  0
    7.2896   53.6424  126.1798 O   0  0  0  0  0  0  0  0  0  0  0  0
    7.1237   53.2965  127.5026 C   0  0  0  0  0  0  0  0  0  0  0  0
    6.7121   54.1213  128.3313 O   0  0  0  0  0  0  0  0  0  0  0  0
    6.8382   53.1728  125.3984 H   0  0  0  0  0  0  0  0  0  0  0  0
 32 33  1  0  0  0
 33 34  2  0  0  0
 33 30  1  0  0  0
 30 31  2  0  0  0
 31 24  1  0  0  0
 24 25  2  0  0  0
 25 26  1  0  0  0
 26 27  2  0  0  0
 27 23  1  0  0  0
 23  1  1  0  0  0
  1  2  2  0  0  0
  2  3  1  0  0  0
  3  4  1  0  0  0
  4  5  2  0  0  0
  5  6  1  0  0  0
  6  7  1  0  0  0
  6  8  2  0  0  0
  8  9  1  0  0  0
  9 10  2  0  0  0
  2 12  1  0  0  0
 12 13  2  0  0  0
 13 14  1  0  0  0
 14 15  2  0  0  0
 15 16  1  0  0  0
 16 17  2  0  0  0
 17 18  1  0  0  0
 18 19  1  0  0  0
 19 20  1  0  0  0
 19 21  1  0  0  0
 19 22  1  0  0  0
 27 28  1  0  0  0
 28 29  2  0  0  0
 29 24  1  0  0  0
 10  1  1  0  0  0
 17 12  1  0  0  0
 10  4  1  0  0  0
 32 35  1  0  0  0
  7 11  1  0  0  0
M  END
> <minimizedAffinity>
0.00801

> <CNNscore>
0.4509089589

> <CNNaffinity>
7.7726221085

> <CNN_VS>
3.5047450066

> <CNNaffinity_variance>
1.0608742237

$$$$
[H]OC(=O)/C([H])=C(\[H])c1c([H])c([H])c(/C(=C(\c2c([H])c([H])nc([H])c2C([H])([H])[H])C([H])([H])C([H])([H])[H])c2c([H])c([H])c3c(c([H])nn3[H])c2[H])c([H])c1[H]


 33 36  0  0  0  0  0  0  0  0999 V2000
   10.1554   43.9282  131.0390 C   0  0  0  0  0  0  0  0  0  0  0  0
    9.8605   44.9512  131.7732 C   0  0  0  0  0  0  0  0  0  0  0  0
   10.0951   44.8359  133.2456 C   0  0  0  0  0  0  0  0  0  0  0  0
   10.7758   43.7865  133.7891 C   0  0  0  0  0  0  0  0  0  0  0  0
   10.9528   43.7070  135.1636 C   0  0  0  0  0  0  0  0  0  0  0  0
   10.4529   44.6742  136.0108 C   0  0  0  0  0  0  0  0  0  0  0  0
   10.4904   44.8215  137.3435 N   0  0  0  0  0  0  0  0  0  0  0  0
    9.8533   45.9366  137.6660 N   0  0  0  0  0  0  0  0  0  0  0  0
    9.3960   46.5227  136.5380 C   0  0  0  0  0  0  0  0  0  0  0  0
    9.7709   45.7267  135.4635 C   0  0  0  0  0  0  0  0  0  0  0  0
    9.5951   45.8040  134.0892 C   0  0  0  0  0  0  0  0  0  0  0  0
   10.9303   44.1940  138.0442 H   0  0  0  0  0  0  0  0  0  0  0  0
   10.1063   43.9695  129.5760 C   0  0  0  0  0  0  0  0  0  0  0  0
    8.9679   43.4675  128.9236 C   0  0  0  0  0  0  0  0  0  0  0  0
    8.8644   43.4048  127.5600 C   0  0  0  0  0  0  0  0  0  0  0  0
    9.9140   43.8505  126.8475 N   0  0  0  0  0  0  0  0  0  0  0  0
   11.0170   44.3348  127.4249 C   0  0  0  0  0  0  0  0  0  0  0  0
   11.1324   44.4015  128.7966 C   0  0  0  0  0  0  0  0  0  0  0  0
   12.4398   44.8899  129.3070 C   0  0  0  0  0  0  0  0  0  0  0  0
    9.3615   46.2669  131.3171 C   0  0  0  0  0  0  0  0  0  0  0  0
   10.1855   47.3822  131.3951 C   0  0  0  0  0  0  0  0  0  0  0  0
    9.7532   48.6299  131.0285 C   0  0  0  0  0  0  0  0  0  0  0  0
    8.4636   48.8351  130.5594 C   0  0  0  0  0  0  0  0  0  0  0  0
    7.6547   47.7390  130.4830 C   0  0  0  0  0  0  0  0  0  0  0  0
    8.0985   46.4726  130.8578 C   0  0  0  0  0  0  0  0  0  0  0  0
    8.0255   50.1707  130.1769 C   0  0  0  0  0  0  0  0  0  0  0  0
    7.3537   50.4716  129.0877 C   0  0  0  0  0  0  0  0  0  0  0  0
    6.9560   51.8409  128.7862 C   0  0  0  0  0  0  0  0  0  0  0  0
    7.1127   52.3081  127.4980 O   0  0  0  0  0  0  0  0  0  0  0  0
    6.4758   52.6116  129.6536 O   0  0  0  0  0  0  0  0  0  0  0  0
    6.4669   52.0475  126.7534 H   0  0  0  0  0  0  0  0  0  0  0  0
   12.1377   42.5499  131.7073 C   0  0  0  0  0  0  0  0  0  0  0  0
   10.6523   42.5993  131.5885 C   0  0  0  0  0  0  0  0  0  0  0  0
 32 33  1  0  0  0
 33  1  1  0  0  0
  1  2  2  0  0  0
  2 20  1  0  0  0
 20 21  2  0  0  0
 21 22  1  0  0  0
 22 23  2  0  0  0
 23 26  1  0  0  0
 26 27  2  0  0  0
 27 28  1  0  0  0
 28 29  1  0  0  0
 28 30  2  0  0  0
 23 24  1  0  0  0
 24 25  2  0  0  0
  2  3  1  0  0  0
  3  4  2  0  0  0
  4  5  1  0  0  0
  5  6  2  0  0  0
  6  7  1  0  0  0
  7  8  1  0  0  0
  8  9  2  0  0  0
  9 10  1  0  0  0
 10 11  2  0  0  0
  1 13  1  0  0  0
 13 14  2  0  0  0
 14 15  1  0  0  0
 15 16  2  0  0  0
 16 17  1  0  0  0
 17 18  2  0  0  0
 18 19  1  0  0  0
 25 20  1  0  0  0
 11  3  1  0  0  0
 18 13  1  0  0  0
 10  6  1  0  0  0
 29 31  1  0  0  0
  7 12  1  0  0  0
M  END
> <minimizedAffinity>
2.83790

> <CNNscore>
0.5268881917

> <CNNaffinity>
8.2034025192

> <CNN_VS>
4.3222761154

> <CNNaffinity_variance>
1.0785968304

$$$$
[H]OC(=O)/C([H])=C(\[H])c1c([H])c([H])c(/C(=C(\c2c([H])c([H])nc([H])c2C([H])([H])[H])C([H])([H])C([H])([H])[H])c2c([H])c([H])c3c(c([H])nn3[H])c2[H])c([H])c1[H]


 33 36  0  0  0  0  0  0  0  0999 V2000
    9.9199   44.0697  131.1548 C   0  0  0  0  0  0  0  0  0  0  0  0
    9.6455   45.1483  131.8135 C   0  0  0  0  0  0  0  0  0  0  0  0
    9.7774   45.1014  133.3025 C   0  0  0  0  0  0  0  0  0  0  0  0
    9.0792   45.9433  134.1169 C   0  0  0  0  0  0  0  0  0  0  0  0
    9.2474   45.8807  135.4934 C   0  0  0  0  0  0  0  0  0  0  0  0
   10.1140   44.9767  136.0722 C   0  0  0  0  0  0  0  0  0  0  0  0
   10.4452   44.7248  137.3474 N   0  0  0  0  0  0  0  0  0  0  0  0
   11.3349   43.7445  137.3697 N   0  0  0  0  0  0  0  0  0  0  0  0
   11.5878   43.3523  136.1019 C   0  0  0  0  0  0  0  0  0  0  0  0
   10.8131   44.1322  135.2534 C   0  0  0  0  0  0  0  0  0  0  0  0
   10.6433   44.1968  133.8776 C   0  0  0  0  0  0  0  0  0  0  0  0
   10.0924   45.1933  138.2043 H   0  0  0  0  0  0  0  0  0  0  0  0
    9.9673   44.0320  129.6917 C   0  0  0  0  0  0  0  0  0  0  0  0
    8.8582   43.5276  128.9924 C   0  0  0  0  0  0  0  0  0  0  0  0
    8.8416   43.3932  127.6302 C   0  0  0  0  0  0  0  0  0  0  0  0
    9.9490   43.7691  126.9666 N   0  0  0  0  0  0  0  0  0  0  0  0
   11.0271   44.2528  127.5898 C   0  0  0  0  0  0  0  0  0  0  0  0
   11.0552   44.3913  128.9606 C   0  0  0  0  0  0  0  0  0  0  0  0
   12.3416   44.8695  129.5304 C   0  0  0  0  0  0  0  0  0  0  0  0
    9.2630   46.4645  131.2574 C   0  0  0  0  0  0  0  0  0  0  0  0
   10.0934   47.5615  131.4471 C   0  0  0  0  0  0  0  0  0  0  0  0
    9.7601   48.8102  130.9914 C   0  0  0  0  0  0  0  0  0  0  0  0
    8.5697   49.0350  130.3149 C   0  0  0  0  0  0  0  0  0  0  0  0
    7.7545   47.9568  130.1288 C   0  0  0  0  0  0  0  0  0  0  0  0
    8.0971   46.6893  130.5949 C   0  0  0  0  0  0  0  0  0  0  0  0
    8.2358   50.3713  129.8409 C   0  0  0  0  0  0  0  0  0  0  0  0
    7.2547   50.6667  129.0172 C   0  0  0  0  0  0  0  0  0  0  0  0
    6.9939   52.0374  128.5961 C   0  0  0  0  0  0  0  0  0  0  0  0
    7.2715   52.3945  127.2931 O   0  0  0  0  0  0  0  0  0  0  0  0
    6.5260   52.9056  129.3733 O   0  0  0  0  0  0  0  0  0  0  0  0
    6.6549   52.1320  126.5248 H   0  0  0  0  0  0  0  0  0  0  0  0
   11.7526   42.4539  131.7086 C   0  0  0  0  0  0  0  0  0  0  0  0
   10.2936   42.7457  131.8047 C   0  0  0  0  0  0  0  0  0  0  0  0
 32 33  1  0  0  0
 33  1  1  0  0  0
  1  2  2  0  0  0
  2 20  1  0  0  0
 20 21  2  0  0  0
 21 22  1  0  0  0
 22 23  2  0  0  0
 23 26  1  0  0  0
 26 27  2  0  0  0
 27 28  1  0  0  0
 28 29  1  0  0  0
 28 30  2  0  0  0
 23 24  1  0  0  0
 24 25  2  0  0  0
  2  3  1  0  0  0
  3  4  2  0  0  0
  4  5  1  0  0  0
  5  6  2  0  0  0
  6  7  1  0  0  0
  7  8  1  0  0  0
  8  9  2  0  0  0
  9 10  1  0  0  0
 10 11  2  0  0  0
  1 13  1  0  0  0
 13 14  2  0  0  0
 14 15  1  0  0  0
 15 16  2  0  0  0
 16 17  1  0  0  0
 17 18  2  0  0  0
 18 19  1  0  0  0
 25 20  1  0  0  0
 11  3  1  0  0  0
 18 13  1  0  0  0
 10  6  1  0  0  0
 29 31  1  0  0  0
  7 12  1  0  0  0
M  END
> <minimizedAffinity>
2.39810

> <CNNscore>
0.4771840572

> <CNNaffinity>
8.0898790359

> <CNN_VS>
3.8603613377

> <CNNaffinity_variance>
0.8421039581

$$$$
[H]OC(=O)/C([H])=C(\[H])c1c([H])c([H])c(/C(=C(\c2c([H])c([H])nc([H])c2C([H])([H])[H])C([H])([H])C([H])([H])[H])c2c([H])c([H])c3c(c([H])nn3[H])c2[H])c([H])c1[H]


 33 36  0  0  0  0  0  0  0  0999 V2000
    9.2413   45.9483  132.2893 C   0  0  0  0  0  0  0  0  0  0  0  0
    9.0014   45.9735  131.0186 C   0  0  0  0  0  0  0  0  0  0  0  0
    7.9972   46.9654  130.5244 C   0  0  0  0  0  0  0  0  0  0  0  0
    6.8020   46.5801  129.9924 C   0  0  0  0  0  0  0  0  0  0  0  0
    5.9071   47.5330  129.5255 C   0  0  0  0  0  0  0  0  0  0  0  0
    6.1948   48.8809  129.5849 C   0  0  0  0  0  0  0  0  0  0  0  0
    5.5121   49.9726  129.2092 N   0  0  0  0  0  0  0  0  0  0  0  0
    6.2379   51.0445  129.4875 N   0  0  0  0  0  0  0  0  0  0  0  0
    7.4025   50.6524  130.0487 C   0  0  0  0  0  0  0  0  0  0  0  0
    7.3941   49.2655  130.1198 C   0  0  0  0  0  0  0  0  0  0  0  0
    8.2873   48.3111  130.5858 C   0  0  0  0  0  0  0  0  0  0  0  0
    4.5727   50.0196  128.7692 H   0  0  0  0  0  0  0  0  0  0  0  0
   10.3028   45.1258  132.8732 C   0  0  0  0  0  0  0  0  0  0  0  0
   11.5733   45.6953  133.0605 C   0  0  0  0  0  0  0  0  0  0  0  0
   12.6404   44.9822  133.5366 C   0  0  0  0  0  0  0  0  0  0  0  0
   12.4278   43.6866  133.8265 N   0  0  0  0  0  0  0  0  0  0  0  0
   11.2374   43.1027  133.6631 C   0  0  0  0  0  0  0  0  0  0  0  0
   10.1566   43.8107  133.1835 C   0  0  0  0  0  0  0  0  0  0  0  0
    8.9137   43.0225  132.9787 C   0  0  0  0  0  0  0  0  0  0  0  0
    9.6536   45.1621  129.9678 C   0  0  0  0  0  0  0  0  0  0  0  0
   10.8248   45.6145  129.3740 C   0  0  0  0  0  0  0  0  0  0  0  0
   11.4403   44.9214  128.3647 C   0  0  0  0  0  0  0  0  0  0  0  0
   10.9166   43.7281  127.8883 C   0  0  0  0  0  0  0  0  0  0  0  0
    9.7661   43.2843  128.4721 C   0  0  0  0  0  0  0  0  0  0  0  0
    9.1434   43.9929  129.4974 C   0  0  0  0  0  0  0  0  0  0  0  0
   11.5875   43.0093  126.8134 C   0  0  0  0  0  0  0  0  0  0  0  0
   12.8819   43.0126  126.5838 C   0  0  0  0  0  0  0  0  0  0  0  0
   13.4666   42.2605  125.4808 C   0  0  0  0  0  0  0  0  0  0  0  0
   14.2725   42.9244  124.5796 O   0  0  0  0  0  0  0  0  0  0  0  0
   13.2654   41.0315  125.3193 O   0  0  0  0  0  0  0  0  0  0  0  0
   15.2346   43.1737  124.8068 H   0  0  0  0  0  0  0  0  0  0  0  0
    8.6944   46.3148  134.7064 C   0  0  0  0  0  0  0  0  0  0  0  0
    8.5140   46.8092  133.3114 C   0  0  0  0  0  0  0  0  0  0  0  0
 32 33  1  0  0  0
 33  1  1  0  0  0
  1  2  2  0  0  0
  2 20  1  0  0  0
 20 21  2  0  0  0
 21 22  1  0  0  0
 22 23  2  0  0  0
 23 26  1  0  0  0
 26 27  2  0  0  0
 27 28  1  0  0  0
 28 29  1  0  0  0
 28 30  2  0  0  0
 23 24  1  0  0  0
 24 25  2  0  0  0
  2  3  1  0  0  0
  3  4  2  0  0  0
  4  5  1  0  0  0
  5  6  2  0  0  0
  6  7  1  0  0  0
  7  8  1  0  0  0
  8  9  2  0  0  0
  9 10  1  0  0  0
 10 11  2  0  0  0
  1 13  1  0  0  0
 13 14  2  0  0  0
 14 15  1  0  0  0
 15 16  2  0  0  0
 16 17  1  0  0  0
 17 18  2  0  0  0
 18 19  1  0  0  0
 25 20  1  0  0  0
 11  3  1  0  0  0
 18 13  1  0  0  0
 10  6  1  0  0  0
 29 31  1  0  0  0
  7 12  1  0  0  0
M  END
> <minimizedAffinity>
3.22441

> <CNNscore>
0.4210675061

> <CNNaffinity>
8.0803318024

> <CNN_VS>
3.4023652077

> <CNNaffinity_variance>
0.2080642283

$$$$
[H]OC(=O)/C([H])=C(\[H])c1c([H])c([H])c(/C(=C(\c2c([H])c([H])nc([H])c2C([H])([H])[H])C([H])([H])C([H])([H])[H])c2c([H])c([H])c3c(c([H])nn3[H])c2[H])c([H])c1[H]


 33 36  0  0  0  0  0  0  0  0999 V2000
   10.4964   44.9013  132.3757 C   0  0  0  0  0  0  0  0  0  0  0  0
   10.5922   45.5735  131.2749 C   0  0  0  0  0  0  0  0  0  0  0  0
   11.4976   45.0356  130.2132 C   0  0  0  0  0  0  0  0  0  0  0  0
   11.0277   44.6353  128.9971 C   0  0  0  0  0  0  0  0  0  0  0  0
   11.8999   44.1216  128.0472 C   0  0  0  0  0  0  0  0  0  0  0  0
   13.2508   44.0023  128.3003 C   0  0  0  0  0  0  0  0  0  0  0  0
   14.2760   43.5481  127.5642 N   0  0  0  0  0  0  0  0  0  0  0  0
   15.3878   43.6483  128.2763 N   0  0  0  0  0  0  0  0  0  0  0  0
   15.0889   44.1711  129.4856 C   0  0  0  0  0  0  0  0  0  0  0  0
   13.7205   44.4053  129.5207 C   0  0  0  0  0  0  0  0  0  0  0  0
   12.8466   44.9183  130.4688 C   0  0  0  0  0  0  0  0  0  0  0  0
   14.2512   43.1708  126.5971 H   0  0  0  0  0  0  0  0  0  0  0  0
    9.5378   45.2466  133.4274 C   0  0  0  0  0  0  0  0  0  0  0  0
    8.2407   44.7110  133.3619 C   0  0  0  0  0  0  0  0  0  0  0  0
    7.2617   45.0322  134.2632 C   0  0  0  0  0  0  0  0  0  0  0  0
    7.5900   45.8986  135.2376 N   0  0  0  0  0  0  0  0  0  0  0  0
    8.8099   46.4337  135.3382 C   0  0  0  0  0  0  0  0  0  0  0  0
    9.8026   46.1184  134.4359 C   0  0  0  0  0  0  0  0  0  0  0  0
   11.0881   46.8412  134.6184 C   0  0  0  0  0  0  0  0  0  0  0  0
    9.8575   46.8045  130.9104 C   0  0  0  0  0  0  0  0  0  0  0  0
   10.3508   48.0432  131.2992 C   0  0  0  0  0  0  0  0  0  0  0  0
    9.6825   49.2079  131.0256 C   0  0  0  0  0  0  0  0  0  0  0  0
    8.4747   49.2006  130.3427 C   0  0  0  0  0  0  0  0  0  0  0  0
    7.9907   47.9834  129.9611 C   0  0  0  0  0  0  0  0  0  0  0  0
    8.6733   46.8018  130.2424 C   0  0  0  0  0  0  0  0  0  0  0  0
    7.7813   50.4511  130.0643 C   0  0  0  0  0  0  0  0  0  0  0  0
    7.5605   50.9526  128.8694 C   0  0  0  0  0  0  0  0  0  0  0  0
    6.8552   52.2147  128.6861 C   0  0  0  0  0  0  0  0  0  0  0  0
    6.9065   52.8295  127.4525 O   0  0  0  0  0  0  0  0  0  0  0  0
    6.2022   52.7639  129.6075 O   0  0  0  0  0  0  0  0  0  0  0  0
    6.3445   52.5003  126.6682 H   0  0  0  0  0  0  0  0  0  0  0  0
   10.6476   42.4096  132.1644 C   0  0  0  0  0  0  0  0  0  0  0  0
   11.3007   43.6464  132.6810 C   0  0  0  0  0  0  0  0  0  0  0  0
 32 33  1  0  0  0
 33  1  1  0  0  0
  1  2  2  0  0  0
  2 20  1  0  0  0
 20 21  2  0  0  0
 21 22  1  0  0  0
 22 23  2  0  0  0
 23 26  1  0  0  0
 26 27  2  0  0  0
 27 28  1  0  0  0
 28 29  1  0  0  0
 28 30  2  0  0  0
 23 24  1  0  0  0
 24 25  2  0  0  0
  2  3  1  0  0  0
  3  4  2  0  0  0
  4  5  1  0  0  0
  5  6  2  0  0  0
  6  7  1  0  0  0
  7  8  1  0  0  0
  8  9  2  0  0  0
  9 10  1  0  0  0
 10 11  2  0  0  0
  1 13  1  0  0  0
 13 14  2  0  0  0
 14 15  1  0  0  0
 15 16  2  0  0  0
 16 17  1  0  0  0
 17 18  2  0  0  0
 18 19  1  0  0  0
 25 20  1  0  0  0
 11  3  1  0  0  0
 18 13  1  0  0  0
 10  6  1  0  0  0
 29 31  1  0  0  0
  7 12  1  0  0  0
M  END
> <minimizedAffinity>
6.21591

> <CNNscore>
0.4007290602

> <CNNaffinity>
7.6219534874

> <CNN_VS>
3.0543382168

> <CNNaffinity_variance>
0.5433540940

$$$$
[H]OC(=O)/C([H])=C(\[H])c1c([H])c([H])c(/C(=C(\c2c([H])c([H])nc([H])c2C([H])([H])[H])C([H])([H])C([H])([H])[H])c2c([H])c([H])c3c(c([H])nn3[H])c2[H])c([H])c1[H]


 33 36  0  0  0  0  0  0  0  0999 V2000
    9.3551   46.0918  132.2839 C   0  0  0  0  0  0  0  0  0  0  0  0
    8.9148   45.9351  131.0779 C   0  0  0  0  0  0  0  0  0  0  0  0
    7.9771   46.9707  130.5444 C   0  0  0  0  0  0  0  0  0  0  0  0
    6.7802   46.6402  129.9805 C   0  0  0  0  0  0  0  0  0  0  0  0
    5.9487   47.6316  129.4779 C   0  0  0  0  0  0  0  0  0  0  0  0
    6.3024   48.9640  129.5331 C   0  0  0  0  0  0  0  0  0  0  0  0
    5.6871   50.0844  129.1267 N   0  0  0  0  0  0  0  0  0  0  0  0
    6.4577   51.1215  129.4165 N   0  0  0  0  0  0  0  0  0  0  0  0
    7.5840   50.6775  130.0161 C   0  0  0  0  0  0  0  0  0  0  0  0
    7.5033   49.2936  130.1001 C   0  0  0  0  0  0  0  0  0  0  0  0
    8.3329   48.3007  130.6017 C   0  0  0  0  0  0  0  0  0  0  0  0
    4.7646   50.1737  128.6584 H   0  0  0  0  0  0  0  0  0  0  0  0
   10.3851   45.2275  132.8639 C   0  0  0  0  0  0  0  0  0  0  0  0
   11.7212   45.6609  132.8430 C   0  0  0  0  0  0  0  0  0  0  0  0
   12.7558   44.8904  133.3012 C   0  0  0  0  0  0  0  0  0  0  0  0
   12.4438   43.6749  133.7841 N   0  0  0  0  0  0  0  0  0  0  0  0
   11.1880   43.2209  133.8224 C   0  0  0  0  0  0  0  0  0  0  0  0
   10.1391   43.9875  133.3628 C   0  0  0  0  0  0  0  0  0  0  0  0
    8.8052   43.3333  133.3934 C   0  0  0  0  0  0  0  0  0  0  0  0
    9.2773   44.8640  130.1243 C   0  0  0  0  0  0  0  0  0  0  0  0
   10.1814   45.1261  129.1031 C   0  0  0  0  0  0  0  0  0  0  0  0
   10.5131   44.1806  128.1683 C   0  0  0  0  0  0  0  0  0  0  0  0
    9.9562   42.9102  128.2014 C   0  0  0  0  0  0  0  0  0  0  0  0
    9.0682   42.6533  129.2049 C   0  0  0  0  0  0  0  0  0  0  0  0
    8.7334   43.6183  130.1526 C   0  0  0  0  0  0  0  0  0  0  0  0
   10.3227   41.9217  127.1962 C   0  0  0  0  0  0  0  0  0  0  0  0
   10.1801   40.6204  127.3168 C   0  0  0  0  0  0  0  0  0  0  0  0
   10.5758   39.7042  126.2547 C   0  0  0  0  0  0  0  0  0  0  0  0
    9.5947   39.1404  125.4661 O   0  0  0  0  0  0  0  0  0  0  0  0
   11.7753   39.4085  126.0295 O   0  0  0  0  0  0  0  0  0  0  0  0
    9.1381   39.6684  124.7231 H   0  0  0  0  0  0  0  0  0  0  0  0
    8.8141   46.7792  134.6314 C   0  0  0  0  0  0  0  0  0  0  0  0
    8.9207   47.2178  133.2104 C   0  0  0  0  0  0  0  0  0  0  0  0
 32 33  1  0  0  0
 33  1  1  0  0  0
  1  2  2  0  0  0
  2 20  1  0  0  0
 20 21  2  0  0  0
 21 22  1  0  0  0
 22 23  2  0  0  0
 23 26  1  0  0  0
 26 27  2  0  0  0
 27 28  1  0  0  0
 28 29  1  0  0  0
 28 30  2  0  0  0
 23 24  1  0  0  0
 24 25  2  0  0  0
  2  3  1  0  0  0
  3  4  2  0  0  0
  4  5  1  0  0  0
  5  6  2  0  0  0
  6  7  1  0  0  0
  7  8  1  0  0  0
  8  9  2  0  0  0
  9 10  1  0  0  0
 10 11  2  0  0  0
  1 13  1  0  0  0
 13 14  2  0  0  0
 14 15  1  0  0  0
 15 16  2  0  0  0
 16 17  1  0  0  0
 17 18  2  0  0  0
 18 19  1  0  0  0
 25 20  1  0  0  0
 11  3  1  0  0  0
 18 13  1  0  0  0
 10  6  1  0  0  0
 29 31  1  0  0  0
  7 12  1  0  0  0
M  END
> <minimizedAffinity>
2.19337

> <CNNscore>
0.3838661015

> <CNNaffinity>
7.9749207497

> <CNN_VS>
3.0613017082

> <CNNaffinity_variance>
0.3806126416

$$$$
[H]OC(=O)/C([H])=C(\[H])c1c([H])c([H])c(/C(=C(\c2c([H])c([H])nc([H])c2C([H])([H])[H])C([H])([H])C([H])([H])[H])c2c([H])c([H])c3c(c([H])nn3[H])c2[H])c([H])c1[H]


 33 36  0  0  0  0  0  0  0  0999 V2000
    9.7824   46.3123  132.3312 C   0  0  0  0  0  0  0  0  0  0  0  0
    9.4520   46.3795  131.0826 C   0  0  0  0  0  0  0  0  0  0  0  0
    8.8331   47.6521  130.5989 C   0  0  0  0  0  0  0  0  0  0  0  0
    9.5382   48.8173  130.5276 C   0  0  0  0  0  0  0  0  0  0  0  0
    8.9192   49.9813  130.0929 C   0  0  0  0  0  0  0  0  0  0  0  0
    7.5900   49.9951  129.7242 C   0  0  0  0  0  0  0  0  0  0  0  0
    6.7808   50.9684  129.2802 N   0  0  0  0  0  0  0  0  0  0  0  0
    5.5787   50.4566  129.0650 N   0  0  0  0  0  0  0  0  0  0  0  0
    5.6009   49.1407  129.3699 C   0  0  0  0  0  0  0  0  0  0  0  0
    6.8845   48.8248  129.7956 C   0  0  0  0  0  0  0  0  0  0  0  0
    7.5053   47.6624  130.2306 C   0  0  0  0  0  0  0  0  0  0  0  0
    7.0114   51.9679  129.1186 H   0  0  0  0  0  0  0  0  0  0  0  0
   10.5238   45.1794  132.8889 C   0  0  0  0  0  0  0  0  0  0  0  0
   11.9104   45.3056  133.0761 C   0  0  0  0  0  0  0  0  0  0  0  0
   12.6922   44.2768  133.5282 C   0  0  0  0  0  0  0  0  0  0  0  0
   12.0745   43.1124  133.7939 N   0  0  0  0  0  0  0  0  0  0  0  0
   10.7591   42.9464  133.6295 C   0  0  0  0  0  0  0  0  0  0  0  0
    9.9628   43.9748  133.1740 C   0  0  0  0  0  0  0  0  0  0  0  0
    8.5318   43.6332  132.9647 C   0  0  0  0  0  0  0  0  0  0  0  0
    9.6674   45.3499  130.0425 C   0  0  0  0  0  0  0  0  0  0  0  0
    8.6753   44.4133  129.7828 C   0  0  0  0  0  0  0  0  0  0  0  0
    8.8464   43.4127  128.8622 C   0  0  0  0  0  0  0  0  0  0  0  0
   10.0269   43.2908  128.1435 C   0  0  0  0  0  0  0  0  0  0  0  0
   11.0010   44.2113  128.3991 C   0  0  0  0  0  0  0  0  0  0  0  0
   10.8229   45.2263  129.3368 C   0  0  0  0  0  0  0  0  0  0  0  0
   10.1867   42.2181  127.1709 C   0  0  0  0  0  0  0  0  0  0  0  0
   10.2788   40.9377  127.4541 C   0  0  0  0  0  0  0  0  0  0  0  0
   10.4373   39.9316  126.4116 C   0  0  0  0  0  0  0  0  0  0  0  0
   11.7063   39.4816  126.1123 O   0  0  0  0  0  0  0  0  0  0  0  0
    9.4634   39.4583  125.7756 O   0  0  0  0  0  0  0  0  0  0  0  0
   12.1908   38.8136  126.7111 H   0  0  0  0  0  0  0  0  0  0  0  0
    8.7798   46.9193  134.5454 C   0  0  0  0  0  0  0  0  0  0  0  0
    9.5125   47.4143  133.3449 C   0  0  0  0  0  0  0  0  0  0  0  0
 32 33  1  0  0  0
 33  1  1  0  0  0
  1  2  2  0  0  0
  2 20  1  0  0  0
 20 21  2  0  0  0
 21 22  1  0  0  0
 22 23  2  0  0  0
 23 26  1  0  0  0
 26 27  2  0  0  0
 27 28  1  0  0  0
 28 29  1  0  0  0
 28 30  2  0  0  0
 23 24  1  0  0  0
 24 25  2  0  0  0
  2  3  1  0  0  0
  3  4  2  0  0  0
  4  5  1  0  0  0
  5  6  2  0  0  0
  6  7  1  0  0  0
  7  8  1  0  0  0
  8  9  2  0  0  0
  9 10  1  0  0  0
 10 11  2  0  0  0
  1 13  1  0  0  0
 13 14  2  0  0  0
 14 15  1  0  0  0
 15 16  2  0  0  0
 16 17  1  0  0  0
 17 18  2  0  0  0
 18 19  1  0  0  0
 25 20  1  0  0  0
 11  3  1  0  0  0
 18 13  1  0  0  0
 10  6  1  0  0  0
 29 31  1  0  0  0
  7 12  1  0  0  0
M  END
> <minimizedAffinity>
2.97275

> <CNNscore>
0.3343346417

> <CNNaffinity>
7.8656435013

> <CNN_VS>
2.6297571659

> <CNNaffinity_variance>
0.5283349156

$$$$
[H]OC(=O)/C([H])=C(\[H])c1c([H])c([H])c(/C(=C(\c2c([H])c([H])nc([H])c2C([H])([H])[H])C([H])([H])C([H])([H])[H])c2c([H])c([H])c3c(c([H])nn3[H])c2[H])c([H])c1[H]


 33 36  0  0  0  0  0  0  0  0999 V2000
    8.9233   45.6472  132.2068 C   0  0  0  0  0  0  0  0  0  0  0  0
    8.7892   45.7855  130.9279 C   0  0  0  0  0  0  0  0  0  0  0  0
    7.8765   46.8657  130.4413 C   0  0  0  0  0  0  0  0  0  0  0  0
    6.6559   46.5908  129.8989 C   0  0  0  0  0  0  0  0  0  0  0  0
    5.8486   47.6224  129.4397 C   0  0  0  0  0  0  0  0  0  0  0  0
    6.2504   48.9399  129.5174 C   0  0  0  0  0  0  0  0  0  0  0  0
    5.6659   50.0905  129.1521 N   0  0  0  0  0  0  0  0  0  0  0  0
    6.4793   51.0928  129.4472 N   0  0  0  0  0  0  0  0  0  0  0  0
    7.6027   50.5955  130.0089 C   0  0  0  0  0  0  0  0  0  0  0  0
    7.4751   49.2137  130.0627 C   0  0  0  0  0  0  0  0  0  0  0  0
    8.2805   48.1807  130.5209 C   0  0  0  0  0  0  0  0  0  0  0  0
    4.7365   50.2232  128.7083 H   0  0  0  0  0  0  0  0  0  0  0  0
    9.8936   44.7254  132.8009 C   0  0  0  0  0  0  0  0  0  0  0  0
    9.4403   43.4875  133.2863 C   0  0  0  0  0  0  0  0  0  0  0  0
   10.2638   42.5938  133.9165 C   0  0  0  0  0  0  0  0  0  0  0  0
   11.5530   42.9480  134.0592 N   0  0  0  0  0  0  0  0  0  0  0  0
   12.0279   44.1149  133.6147 C   0  0  0  0  0  0  0  0  0  0  0  0
   11.2077   45.0224  132.9801 C   0  0  0  0  0  0  0  0  0  0  0  0
   11.8465   46.3104  132.6042 C   0  0  0  0  0  0  0  0  0  0  0  0
    9.4860   45.0258  129.8670 C   0  0  0  0  0  0  0  0  0  0  0  0
   10.6750   45.5111  129.3382 C   0  0  0  0  0  0  0  0  0  0  0  0
   11.3326   44.8675  128.3226 C   0  0  0  0  0  0  0  0  0  0  0  0
   10.8359   43.6938  127.7743 C   0  0  0  0  0  0  0  0  0  0  0  0
    9.6678   43.2175  128.2944 C   0  0  0  0  0  0  0  0  0  0  0  0
    9.0023   43.8759  129.3262 C   0  0  0  0  0  0  0  0  0  0  0  0
   11.5515   43.0278  126.6943 C   0  0  0  0  0  0  0  0  0  0  0  0
   12.8575   42.9981  126.5476 C   0  0  0  0  0  0  0  0  0  0  0  0
   13.4879   42.3041  125.4317 C   0  0  0  0  0  0  0  0  0  0  0  0
   14.2704   43.0291  124.5573 O   0  0  0  0  0  0  0  0  0  0  0  0
   13.3466   41.0718  125.2357 O   0  0  0  0  0  0  0  0  0  0  0  0
   15.2174   43.3171  124.8016 H   0  0  0  0  0  0  0  0  0  0  0  0
    9.0213   47.4520  133.9415 C   0  0  0  0  0  0  0  0  0  0  0  0
    8.1564   46.4624  133.2374 C   0  0  0  0  0  0  0  0  0  0  0  0
 32 33  1  0  0  0
 33  1  1  0  0  0
  1  2  2  0  0  0
  2 20  1  0  0  0
 20 21  2  0  0  0
 21 22  1  0  0  0
 22 23  2  0  0  0
 23 26  1  0  0  0
 26 27  2  0  0  0
 27 28  1  0  0  0
 28 29  1  0  0  0
 28 30  2  0  0  0
 23 24  1  0  0  0
 24 25  2  0  0  0
  2  3  1  0  0  0
  3  4  2  0  0  0
  4  5  1  0  0  0
  5  6  2  0  0  0
  6  7  1  0  0  0
  7  8  1  0  0  0
  8  9  2  0  0  0
  9 10  1  0  0  0
 10 11  2  0  0  0
  1 13  1  0  0  0
 13 14  2  0  0  0
 14 15  1  0  0  0
 15 16  2  0  0  0
 16 17  1  0  0  0
 17 18  2  0  0  0
 18 19  1  0  0  0
 25 20  1  0  0  0
 11  3  1  0  0  0
 18 13  1  0  0  0
 10  6  1  0  0  0
 29 31  1  0  0  0
  7 12  1  0  0  0
M  END
> <minimizedAffinity>
4.45474

> <CNNscore>
0.2468888462

> <CNNaffinity>
7.8368139267

> <CNN_VS>
1.9348219633

> <CNNaffinity_variance>
0.3688272834

$$$$
[H]OC(=O)/C([H])=C(\[H])c1c([H])c([H])c(/C(=C(\c2c([H])c([H])nc([H])c2C([H])([H])[H])C([H])([H])C([H])([H])[H])c2c([H])c([H])c3c(c([H])nn3[H])c2[H])c([H])c1[H]


 33 36  0  0  0  0  0  0  0  0999 V2000
    9.5471   45.2031  133.0089 C   0  0  0  0  0  0  0  0  0  0  0  0
    9.3100   45.6101  131.8044 C   0  0  0  0  0  0  0  0  0  0  0  0
    9.3962   44.6008  130.7042 C   0  0  0  0  0  0  0  0  0  0  0  0
    8.6853   43.4374  130.7333 C   0  0  0  0  0  0  0  0  0  0  0  0
    8.8109   42.5175  129.7013 C   0  0  0  0  0  0  0  0  0  0  0  0
    9.6471   42.7489  128.6287 C   0  0  0  0  0  0  0  0  0  0  0  0
    9.9360   42.0334  127.5316 N   0  0  0  0  0  0  0  0  0  0  0  0
   10.8111   42.7083  126.8022 N   0  0  0  0  0  0  0  0  0  0  0  0
   11.0967   43.8724  127.4253 C   0  0  0  0  0  0  0  0  0  0  0  0
   10.3588   43.9173  128.6010 C   0  0  0  0  0  0  0  0  0  0  0  0
   10.2317   44.8353  129.6339 C   0  0  0  0  0  0  0  0  0  0  0  0
    9.5639   41.1032  127.2583 H   0  0  0  0  0  0  0  0  0  0  0  0
    9.3539   46.0594  134.1810 C   0  0  0  0  0  0  0  0  0  0  0  0
    8.0447   46.3220  134.6176 C   0  0  0  0  0  0  0  0  0  0  0  0
    7.7681   47.1634  135.6614 C   0  0  0  0  0  0  0  0  0  0  0  0
    8.8164   47.7449  136.2705 N   0  0  0  0  0  0  0  0  0  0  0  0
   10.0777   47.5257  135.8887 C   0  0  0  0  0  0  0  0  0  0  0  0
   10.3675   46.6816  134.8387 C   0  0  0  0  0  0  0  0  0  0  0  0
   11.8040   46.5862  134.4704 C   0  0  0  0  0  0  0  0  0  0  0  0
    8.9014   46.9676  131.3819 C   0  0  0  0  0  0  0  0  0  0  0  0
    7.7685   47.1339  130.5958 C   0  0  0  0  0  0  0  0  0  0  0  0
    7.3763   48.3657  130.1412 C   0  0  0  0  0  0  0  0  0  0  0  0
    8.0990   49.5095  130.4488 C   0  0  0  0  0  0  0  0  0  0  0  0
    9.2118   49.3453  131.2211 C   0  0  0  0  0  0  0  0  0  0  0  0
    9.6072   48.0907  131.6802 C   0  0  0  0  0  0  0  0  0  0  0  0
    7.6638   50.8083  129.9531 C   0  0  0  0  0  0  0  0  0  0  0  0
    7.4596   51.1150  128.6912 C   0  0  0  0  0  0  0  0  0  0  0  0
    7.0226   52.4453  128.2867 C   0  0  0  0  0  0  0  0  0  0  0  0
    7.2445   52.8489  126.9867 O   0  0  0  0  0  0  0  0  0  0  0  0
    6.4517   53.2380  129.0758 O   0  0  0  0  0  0  0  0  0  0  0  0
    6.6622   52.5177  126.2182 H   0  0  0  0  0  0  0  0  0  0  0  0
   11.4520   43.5935  133.2466 C   0  0  0  0  0  0  0  0  0  0  0  0
    9.9781   43.7870  133.3609 C   0  0  0  0  0  0  0  0  0  0  0  0
 32 33  1  0  0  0
 33  1  1  0  0  0
  1  2  2  0  0  0
  2 20  1  0  0  0
 20 21  2  0  0  0
 21 22  1  0  0  0
 22 23  2  0  0  0
 23 26  1  0  0  0
 26 27  2  0  0  0
 27 28  1  0  0  0
 28 29  1  0  0  0
 28 30  2  0  0  0
 23 24  1  0  0  0
 24 25  2  0  0  0
  2  3  1  0  0  0
  3  4  2  0  0  0
  4  5  1  0  0  0
  5  6  2  0  0  0
  6  7  1  0  0  0
  7  8  1  0  0  0
  8  9  2  0  0  0
  9 10  1  0  0  0
 10 11  2  0  0  0
  1 13  1  0  0  0
 13 14  2  0  0  0
 14 15  1  0  0  0
 15 16  2  0  0  0
 16 17  1  0  0  0
 17 18  2  0  0  0
 18 19  1  0  0  0
 25 20  1  0  0  0
 11  3  1  0  0  0
 18 13  1  0  0  0
 10  6  1  0  0  0
 29 31  1  0  0  0
  7 12  1  0  0  0
M  END
> <minimizedAffinity>
6.25754

> <CNNscore>
0.2437420487

> <CNNaffinity>
7.6705102921

> <CNN_VS>
1.8696259260

> <CNNaffinity_variance>
0.5363423228

$$$$
[H]Oc1c([H])c([H])c(C2=C(c3c([H])c([H])c(OC([H])([H])C([H])([H])N4C([H])([H])C([H])([H])C([H])([H])C([H])([H])C4([H])[H])c([H])c3[H])c3c([H])c([H])c(O[H])c([H])c3C2([H])[H])c([H])c1[H]


 34 38  0  0  0  0  0  0  0  0999 V2000
   10.1363   48.1883  132.7693 C   0  0  0  0  0  0  0  0  0  0  0  0
   10.8745   47.1789  133.1242 C   0  0  0  0  0  0  0  0  0  0  0  0
   11.8239   47.5565  134.2053 C   0  0  0  0  0  0  0  0  0  0  0  0
   12.7840   46.8544  134.8948 C   0  0  0  0  0  0  0  0  0  0  0  0
   13.5204   47.5265  135.8754 C   0  0  0  0  0  0  0  0  0  0  0  0
   13.2967   48.8559  136.1494 C   0  0  0  0  0  0  0  0  0  0  0  0
   14.0573   49.4946  137.1409 O   0  0  0  0  0  0  0  0  0  0  0  0
   12.3389   49.5526  135.4601 C   0  0  0  0  0  0  0  0  0  0  0  0
   11.6150   48.8712  134.4886 C   0  0  0  0  0  0  0  0  0  0  0  0
   10.5574   49.3734  133.6278 C   0  0  0  0  0  0  0  0  0  0  0  0
   13.7580   49.5142  138.1028 H   0  0  0  0  0  0  0  0  0  0  0  0
    6.0510   49.1275  128.9230 O   0  0  0  0  0  0  0  0  0  0  0  0
    7.0516   48.8956  129.8528 C   0  0  0  0  0  0  0  0  0  0  0  0
    7.1091   47.6903  130.5113 C   0  0  0  0  0  0  0  0  0  0  0  0
    8.1136   47.4363  131.4551 C   0  0  0  0  0  0  0  0  0  0  0  0
    9.0697   48.3442  131.7712 C   0  0  0  0  0  0  0  0  0  0  0  0
    8.9967   49.5761  131.0858 C   0  0  0  0  0  0  0  0  0  0  0  0
    8.0157   49.8275  130.1614 C   0  0  0  0  0  0  0  0  0  0  0  0
    6.0061   50.0164  128.4346 H   0  0  0  0  0  0  0  0  0  0  0  0
   10.8896   45.8186  132.6338 C   0  0  0  0  0  0  0  0  0  0  0  0
   11.7317   45.3220  131.7075 C   0  0  0  0  0  0  0  0  0  0  0  0
   11.6745   44.0210  131.2568 C   0  0  0  0  0  0  0  0  0  0  0  0
   10.7059   43.1357  131.7636 C   0  0  0  0  0  0  0  0  0  0  0  0
    9.8424   43.6383  132.7114 C   0  0  0  0  0  0  0  0  0  0  0  0
    9.9202   44.9521  133.1485 C   0  0  0  0  0  0  0  0  0  0  0  0
   10.6997   41.8685  131.2781 O   0  0  0  0  0  0  0  0  0  0  0  0
   10.0086   41.2851  130.2408 C   0  0  0  0  0  0  0  0  0  0  0  0
    8.7989   42.0424  129.7382 C   0  0  0  0  0  0  0  0  0  0  0  0
    9.2471   43.2847  129.2070 N   0  0  0  0  0  0  0  0  0  0  0  0
    9.9977   43.2434  128.0098 C   0  0  0  0  0  0  0  0  0  0  0  0
   10.8696   44.4273  127.7676 C   0  0  0  0  0  0  0  0  0  0  0  0
   10.3902   45.6507  128.5022 C   0  0  0  0  0  0  0  0  0  0  0  0
    8.9062   45.6594  128.7342 C   0  0  0  0  0  0  0  0  0  0  0  0
    8.4054   44.4063  129.4152 C   0  0  0  0  0  0  0  0  0  0  0  0
 12 13  1  0  0  0
 13 14  2  0  0  0
 14 15  1  0  0  0
 15 16  2  0  0  0
 16 17  1  0  0  0
 17 18  2  0  0  0
 16  1  1  0  0  0
  1  2  2  0  0  0
  2  3  1  0  0  0
  3  4  2  0  0  0
  4  5  1  0  0  0
  5  6  2  0  0  0
  6  7  1  0  0  0
  6  8  1  0  0  0
  8  9  2  0  0  0
  9 10  1  0  0  0
  2 20  1  0  0  0
 20 21  2  0  0  0
 21 22  1  0  0  0
 22 23  2  0  0  0
 23 26  1  0  0  0
 26 27  1  0  0  0
 27 28  1  0  0  0
 28 29  1  0  0  0
 29 30  1  0  0  0
 30 31  1  0  0  0
 31 32  1  0  0  0
 32 33  1  0  0  0
 33 34  1  0  0  0
 23 24  1  0  0  0
 24 25  2  0  0  0
 18 13  1  0  0  0
 10  1  1  0  0  0
 25 20  1  0  0  0
  9  3  1  0  0  0
 34 29  1  0  0  0
 12 19  1  0  0  0
  7 11  1  0  0  0
M  END
> <minimizedAffinity>
8.97858

> <CNNscore>
0.4574669600

> <CNNaffinity>
7.8416318893

> <CNN_VS>
3.5872874260

> <CNNaffinity_variance>
0.6074431539

$$$$
[H]Oc1c([H])c([H])c(C2=C(c3c([H])c([H])c(OC([H])([H])C([H])([H])N4C([H])([H])C([H])([H])C([H])([H])C([H])([H])C4([H])[H])c([H])c3[H])c3c([H])c([H])c(O[H])c([H])c3C2([H])[H])c([H])c1[H]


 34 38  0  0  0  0  0  0  0  0999 V2000
   10.3567   43.4063  131.4742 C   0  0  0  0  0  0  0  0  0  0  0  0
   10.7201   44.6270  131.2139 C   0  0  0  0  0  0  0  0  0  0  0  0
   12.0531   44.6657  130.5548 C   0  0  0  0  0  0  0  0  0  0  0  0
   12.8413   45.6953  130.0978 C   0  0  0  0  0  0  0  0  0  0  0  0
   14.0713   45.3790  129.5125 C   0  0  0  0  0  0  0  0  0  0  0  0
   14.4899   44.0739  129.3932 C   0  0  0  0  0  0  0  0  0  0  0  0
   15.7313   43.7979  128.8000 O   0  0  0  0  0  0  0  0  0  0  0  0
   13.7016   43.0503  129.8499 C   0  0  0  0  0  0  0  0  0  0  0  0
   12.4818   43.3801  130.4291 C   0  0  0  0  0  0  0  0  0  0  0  0
   11.4734   42.4938  130.9852 C   0  0  0  0  0  0  0  0  0  0  0  0
   15.8179   43.6430  127.8082 H   0  0  0  0  0  0  0  0  0  0  0  0
    5.9143   41.0815  134.1623 O   0  0  0  0  0  0  0  0  0  0  0  0
    6.9930   41.6563  133.5100 C   0  0  0  0  0  0  0  0  0  0  0  0
    6.9116   41.9359  132.1665 C   0  0  0  0  0  0  0  0  0  0  0  0
    7.9916   42.5174  131.4886 C   0  0  0  0  0  0  0  0  0  0  0  0
    9.1589   42.8326  132.1022 C   0  0  0  0  0  0  0  0  0  0  0  0
    9.2258   42.5398  133.4814 C   0  0  0  0  0  0  0  0  0  0  0  0
    8.1707   41.9715  134.1477 C   0  0  0  0  0  0  0  0  0  0  0  0
    5.9711   40.8743  135.1546 H   0  0  0  0  0  0  0  0  0  0  0  0
   10.0363   45.8758  131.4663 C   0  0  0  0  0  0  0  0  0  0  0  0
    9.2688   46.1539  132.5375 C   0  0  0  0  0  0  0  0  0  0  0  0
    8.6153   47.3555  132.7053 C   0  0  0  0  0  0  0  0  0  0  0  0
    8.7299   48.3679  131.7352 C   0  0  0  0  0  0  0  0  0  0  0  0
    9.5139   48.0888  130.6379 C   0  0  0  0  0  0  0  0  0  0  0  0
   10.1612   46.8711  130.4920 C   0  0  0  0  0  0  0  0  0  0  0  0
    8.0606   49.5273  131.9572 O   0  0  0  0  0  0  0  0  0  0  0  0
    7.9160   50.6650  131.1965 C   0  0  0  0  0  0  0  0  0  0  0  0
    6.6811   50.7297  130.3245 C   0  0  0  0  0  0  0  0  0  0  0  0
    6.5287   49.4680  129.6835 N   0  0  0  0  0  0  0  0  0  0  0  0
    5.2182   48.9476  129.5822 C   0  0  0  0  0  0  0  0  0  0  0  0
    5.1352   47.4704  129.4051 C   0  0  0  0  0  0  0  0  0  0  0  0
    6.3941   46.8932  128.8152 C   0  0  0  0  0  0  0  0  0  0  0  0
    7.1387   47.8629  127.9425 C   0  0  0  0  0  0  0  0  0  0  0  0
    7.4339   49.1751  128.6323 C   0  0  0  0  0  0  0  0  0  0  0  0
 12 13  1  0  0  0
 13 14  2  0  0  0
 14 15  1  0  0  0
 15 16  2  0  0  0
 16 17  1  0  0  0
 17 18  2  0  0  0
 16  1  1  0  0  0
  1  2  2  0  0  0
  2  3  1  0  0  0
  3  4  2  0  0  0
  4  5  1  0  0  0
  5  6  2  0  0  0
  6  7  1  0  0  0
  6  8  1  0  0  0
  8  9  2  0  0  0
  9 10  1  0  0  0
  2 20  1  0  0  0
 20 21  2  0  0  0
 21 22  1  0  0  0
 22 23  2  0  0  0
 23 26  1  0  0  0
 26 27  1  0  0  0
 27 28  1  0  0  0
 28 29  1  0  0  0
 29 30  1  0  0  0
 30 31  1  0  0  0
 31 32  1  0  0  0
 32 33  1  0  0  0
 33 34  1  0  0  0
 23 24  1  0  0  0
 24 25  2  0  0  0
 18 13  1  0  0  0
 10  1  1  0  0  0
 25 20  1  0  0  0
  9  3  1  0  0  0
 34 29  1  0  0  0
 12 19  1  0  0  0
  7 11  1  0  0  0
M  END
> <minimizedAffinity>
12.37993

> <CNNscore>
0.4134899080

> <CNNaffinity>
7.5217523575

> <CNN_VS>
3.1101686954

> <CNNaffinity_variance>
1.3262584209

$$$$
[H]Oc1c([H])c([H])c(C2=C(c3c([H])c([H])c(OC([H])([H])C([H])([H])N4C([H])([H])C([H])([H])C([H])([H])C([H])([H])C4([H])[H])c([H])c3[H])c3c([H])c([H])c(O[H])c([H])c3C2([H])[H])c([H])c1[H]


 34 38  0  0  0  0  0  0  0  0999 V2000
   11.5322   45.0734  132.1003 C   0  0  0  0  0  0  0  0  0  0  0  0
   10.7768   46.0601  132.4821 C   0  0  0  0  0  0  0  0  0  0  0  0
   10.4359   45.9532  133.9261 C   0  0  0  0  0  0  0  0  0  0  0  0
    9.6834   46.7351  134.7702 C   0  0  0  0  0  0  0  0  0  0  0  0
    9.5620   46.3412  136.1065 C   0  0  0  0  0  0  0  0  0  0  0  0
   10.1761   45.2019  136.5729 C   0  0  0  0  0  0  0  0  0  0  0  0
   10.0296   44.8403  137.9209 O   0  0  0  0  0  0  0  0  0  0  0  0
   10.9253   44.4249  135.7286 C   0  0  0  0  0  0  0  0  0  0  0  0
   11.0370   44.8292  134.4033 C   0  0  0  0  0  0  0  0  0  0  0  0
   11.7638   44.1905  133.3192 C   0  0  0  0  0  0  0  0  0  0  0  0
   10.6738   45.1629  138.6253 H   0  0  0  0  0  0  0  0  0  0  0  0
   14.1546   43.8199  127.2098 O   0  0  0  0  0  0  0  0  0  0  0  0
   13.5159   44.1160  128.4030 C   0  0  0  0  0  0  0  0  0  0  0  0
   12.1436   44.1853  128.4469 C   0  0  0  0  0  0  0  0  0  0  0  0
   11.4788   44.4832  129.6441 C   0  0  0  0  0  0  0  0  0  0  0  0
   12.1336   44.7173  130.8081 C   0  0  0  0  0  0  0  0  0  0  0  0
   13.5417   44.6416  130.7461 C   0  0  0  0  0  0  0  0  0  0  0  0
   14.1952   44.3499  129.5765 C   0  0  0  0  0  0  0  0  0  0  0  0
   15.1679   43.7675  127.1742 H   0  0  0  0  0  0  0  0  0  0  0  0
   10.2578   47.1805  131.7296 C   0  0  0  0  0  0  0  0  0  0  0  0
   10.0081   47.1958  130.4063 C   0  0  0  0  0  0  0  0  0  0  0  0
    9.5429   48.3085  129.7395 C   0  0  0  0  0  0  0  0  0  0  0  0
    9.3029   49.5060  130.4375 C   0  0  0  0  0  0  0  0  0  0  0  0
    9.5563   49.4958  131.7911 C   0  0  0  0  0  0  0  0  0  0  0  0
   10.0246   48.3627  132.4392 C   0  0  0  0  0  0  0  0  0  0  0  0
    8.8475   50.5668  129.7243 O   0  0  0  0  0  0  0  0  0  0  0  0
    7.6428   50.8085  129.1044 C   0  0  0  0  0  0  0  0  0  0  0  0
    6.4089   50.3340  129.8406 C   0  0  0  0  0  0  0  0  0  0  0  0
    6.3410   48.9175  129.7178 N   0  0  0  0  0  0  0  0  0  0  0  0
    6.4801   48.1579  130.9019 C   0  0  0  0  0  0  0  0  0  0  0  0
    6.9226   46.7491  130.7023 C   0  0  0  0  0  0  0  0  0  0  0  0
    6.6014   46.2383  129.3232 C   0  0  0  0  0  0  0  0  0  0  0  0
    5.3982   46.8979  128.7121 C   0  0  0  0  0  0  0  0  0  0  0  0
    5.4879   48.4067  128.7071 C   0  0  0  0  0  0  0  0  0  0  0  0
 12 13  1  0  0  0
 13 14  2  0  0  0
 14 15  1  0  0  0
 15 16  2  0  0  0
 16 17  1  0  0  0
 17 18  2  0  0  0
 16  1  1  0  0  0
  1  2  2  0  0  0
  2  3  1  0  0  0
  3  4  2  0  0  0
  4  5  1  0  0  0
  5  6  2  0  0  0
  6  7  1  0  0  0
  6  8  1  0  0  0
  8  9  2  0  0  0
  9 10  1  0  0  0
  2 20  1  0  0  0
 20 21  2  0  0  0
 21 22  1  0  0  0
 22 23  2  0  0  0
 23 26  1  0  0  0
 26 27  1  0  0  0
 27 28  1  0  0  0
 28 29  1  0  0  0
 29 30  1  0  0  0
 30 31  1  0  0  0
 31 32  1  0  0  0
 32 33  1  0  0  0
 33 34  1  0  0  0
 23 24  1  0  0  0
 24 25  2  0  0  0
 18 13  1  0  0  0
 10  1  1  0  0  0
 25 20  1  0  0  0
  9  3  1  0  0  0
 34 29  1  0  0  0
 12 19  1  0  0  0
  7 11  1  0  0  0
M  END
> <minimizedAffinity>
7.26899

> <CNNscore>
0.3973948956

> <CNNaffinity>
7.8380355835

> <CNN_VS>
3.1147954464

> <CNNaffinity_variance>
1.6345294714

$$$$
[H]Oc1c([H])c([H])c(C2=C(c3c([H])c([H])c(OC([H])([H])C([H])([H])N4C([H])([H])C([H])([H])C([H])([H])C([H])([H])C4([H])[H])c([H])c3[H])c3c([H])c([H])c(O[H])c([H])c3C2([H])[H])c([H])c1[H]


 34 38  0  0  0  0  0  0  0  0999 V2000
    8.6119   47.0082  129.2952 C   0  0  0  0  0  0  0  0  0  0  0  0
    9.3849   46.4217  130.1603 C   0  0  0  0  0  0  0  0  0  0  0  0
   10.3566   45.5159  129.4910 C   0  0  0  0  0  0  0  0  0  0  0  0
   11.3539   44.6978  129.9666 C   0  0  0  0  0  0  0  0  0  0  0  0
   12.1032   43.9609  129.0440 C   0  0  0  0  0  0  0  0  0  0  0  0
   11.8553   44.0461  127.6935 C   0  0  0  0  0  0  0  0  0  0  0  0
   12.6292   43.2900  126.7998 O   0  0  0  0  0  0  0  0  0  0  0  0
   10.8603   44.8625  127.2231 C   0  0  0  0  0  0  0  0  0  0  0  0
   10.1242   45.5888  128.1519 C   0  0  0  0  0  0  0  0  0  0  0  0
    9.0290   46.5144  127.9165 C   0  0  0  0  0  0  0  0  0  0  0  0
   13.4805   43.6542  126.4025 H   0  0  0  0  0  0  0  0  0  0  0  0
    4.1667   50.5435  129.6229 O   0  0  0  0  0  0  0  0  0  0  0  0
    5.2477   49.6799  129.5520 C   0  0  0  0  0  0  0  0  0  0  0  0
    6.5094   50.1353  129.8529 C   0  0  0  0  0  0  0  0  0  0  0  0
    7.6158   49.2774  129.7875 C   0  0  0  0  0  0  0  0  0  0  0  0
    7.5128   47.9736  129.4302 C   0  0  0  0  0  0  0  0  0  0  0  0
    6.2107   47.5218  129.1253 C   0  0  0  0  0  0  0  0  0  0  0  0
    5.1261   48.3584  129.1889 C   0  0  0  0  0  0  0  0  0  0  0  0
    3.2336   50.2100  129.4018 H   0  0  0  0  0  0  0  0  0  0  0  0
    9.4202   46.5310  131.6017 C   0  0  0  0  0  0  0  0  0  0  0  0
   10.3488   47.1890  132.3218 C   0  0  0  0  0  0  0  0  0  0  0  0
   10.3457   47.2294  133.6992 C   0  0  0  0  0  0  0  0  0  0  0  0
    9.3412   46.5658  134.4270 C   0  0  0  0  0  0  0  0  0  0  0  0
    8.3889   45.8915  133.6955 C   0  0  0  0  0  0  0  0  0  0  0  0
    8.4141   45.8656  132.3092 C   0  0  0  0  0  0  0  0  0  0  0  0
    9.3944   46.6412  135.7808 O   0  0  0  0  0  0  0  0  0  0  0  0
   10.1553   45.9685  136.7096 C   0  0  0  0  0  0  0  0  0  0  0  0
   10.2019   44.4628  136.5666 C   0  0  0  0  0  0  0  0  0  0  0  0
   10.7317   44.1593  135.2808 N   0  0  0  0  0  0  0  0  0  0  0  0
   12.1390   44.1369  135.1495 C   0  0  0  0  0  0  0  0  0  0  0  0
   12.6492   44.3395  133.7642 C   0  0  0  0  0  0  0  0  0  0  0  0
   11.6295   43.9723  132.7195 C   0  0  0  0  0  0  0  0  0  0  0  0
   10.6664   42.9145  133.1771 C   0  0  0  0  0  0  0  0  0  0  0  0
    9.9838   43.2585  134.4812 C   0  0  0  0  0  0  0  0  0  0  0  0
 12 13  1  0  0  0
 13 14  2  0  0  0
 14 15  1  0  0  0
 15 16  2  0  0  0
 16 17  1  0  0  0
 17 18  2  0  0  0
 16  1  1  0  0  0
  1  2  2  0  0  0
  2  3  1  0  0  0
  3  4  2  0  0  0
  4  5  1  0  0  0
  5  6  2  0  0  0
  6  7  1  0  0  0
  6  8  1  0  0  0
  8  9  2  0  0  0
  9 10  1  0  0  0
  2 20  1  0  0  0
 20 21  2  0  0  0
 21 22  1  0  0  0
 22 23  2  0  0  0
 23 26  1  0  0  0
 26 27  1  0  0  0
 27 28  1  0  0  0
 28 29  1  0  0  0
 29 30  1  0  0  0
 30 31  1  0  0  0
 31 32  1  0  0  0
 32 33  1  0  0  0
 33 34  1  0  0  0
 23 24  1  0  0  0
 24 25  2  0  0  0
 18 13  1  0  0  0
 10  1  1  0  0  0
 25 20  1  0  0  0
  9  3  1  0  0  0
 34 29  1  0  0  0
 12 19  1  0  0  0
  7 11  1  0  0  0
M  END
> <minimizedAffinity>
4.36001

> <CNNscore>
0.3956280649

> <CNNaffinity>
7.8782515526

> <CNN_VS>
3.1168575287

> <CNNaffinity_variance>
1.0992561579

$$$$
[H]Oc1c([H])c([H])c(C2=C(c3c([H])c([H])c(OC([H])([H])C([H])([H])N4C([H])([H])C([H])([H])C([H])([H])C([H])([H])C4([H])[H])c([H])c3[H])c3c([H])c([H])c(O[H])c([H])c3C2([H])[H])c([H])c1[H]


 34 38  0  0  0  0  0  0  0  0999 V2000
   10.3520   45.6029  129.2851 C   0  0  0  0  0  0  0  0  0  0  0  0
   11.0820   45.2620  130.3052 C   0  0  0  0  0  0  0  0  0  0  0  0
   12.3685   44.6545  129.8710 C   0  0  0  0  0  0  0  0  0  0  0  0
   13.4450   44.1496  130.5613 C   0  0  0  0  0  0  0  0  0  0  0  0
   14.5222   43.6404  129.8292 C   0  0  0  0  0  0  0  0  0  0  0  0
   14.5133   43.6404  128.4536 C   0  0  0  0  0  0  0  0  0  0  0  0
   15.6137   43.1199  127.7554 O   0  0  0  0  0  0  0  0  0  0  0  0
   13.4386   44.1445  127.7689 C   0  0  0  0  0  0  0  0  0  0  0  0
   12.3755   44.6472  128.5100 C   0  0  0  0  0  0  0  0  0  0  0  0
   11.1334   45.2306  128.0322 C   0  0  0  0  0  0  0  0  0  0  0  0
   16.3926   43.7020  127.4912 H   0  0  0  0  0  0  0  0  0  0  0  0
    5.3750   48.3217  128.8342 O   0  0  0  0  0  0  0  0  0  0  0  0
    6.5864   47.6569  128.9349 C   0  0  0  0  0  0  0  0  0  0  0  0
    6.6179   46.3514  129.3644 C   0  0  0  0  0  0  0  0  0  0  0  0
    7.8330   45.6615  129.4728 C   0  0  0  0  0  0  0  0  0  0  0  0
    9.0271   46.2269  129.1684 C   0  0  0  0  0  0  0  0  0  0  0  0
    8.9772   47.5673  128.7284 C   0  0  0  0  0  0  0  0  0  0  0  0
    7.7900   48.2448  128.6207 C   0  0  0  0  0  0  0  0  0  0  0  0
    5.3484   49.2858  128.5169 H   0  0  0  0  0  0  0  0  0  0  0  0
   10.8207   45.3907  131.7216 C   0  0  0  0  0  0  0  0  0  0  0  0
   11.6382   45.9606  132.6273 C   0  0  0  0  0  0  0  0  0  0  0  0
   11.3459   46.0238  133.9725 C   0  0  0  0  0  0  0  0  0  0  0  0
   10.1456   45.4799  134.4649 C   0  0  0  0  0  0  0  0  0  0  0  0
    9.3057   44.8961  133.5428 C   0  0  0  0  0  0  0  0  0  0  0  0
    9.6229   44.8449  132.1937 C   0  0  0  0  0  0  0  0  0  0  0  0
    9.9167   45.5717  135.7993 O   0  0  0  0  0  0  0  0  0  0  0  0
    9.5140   46.6216  136.5926 C   0  0  0  0  0  0  0  0  0  0  0  0
    8.4297   47.5092  136.0214 C   0  0  0  0  0  0  0  0  0  0  0  0
    8.8668   47.9742  134.7491 N   0  0  0  0  0  0  0  0  0  0  0  0
    7.8807   48.1551  133.7524 C   0  0  0  0  0  0  0  0  0  0  0  0
    8.3842   48.1249  132.3503 C   0  0  0  0  0  0  0  0  0  0  0  0
    9.8467   48.4700  132.2600 C   0  0  0  0  0  0  0  0  0  0  0  0
   10.3107   49.3785  133.3625 C   0  0  0  0  0  0  0  0  0  0  0  0
    9.9771   48.8558  134.7411 C   0  0  0  0  0  0  0  0  0  0  0  0
 12 13  1  0  0  0
 13 14  2  0  0  0
 14 15  1  0  0  0
 15 16  2  0  0  0
 16 17  1  0  0  0
 17 18  2  0  0  0
 16  1  1  0  0  0
  1  2  2  0  0  0
  2  3  1  0  0  0
  3  4  2  0  0  0
  4  5  1  0  0  0
  5  6  2  0  0  0
  6  7  1  0  0  0
  6  8  1  0  0  0
  8  9  2  0  0  0
  9 10  1  0  0  0
  2 20  1  0  0  0
 20 21  2  0  0  0
 21 22  1  0  0  0
 22 23  2  0  0  0
 23 26  1  0  0  0
 26 27  1  0  0  0
 27 28  1  0  0  0
 28 29  1  0  0  0
 29 30  1  0  0  0
 30 31  1  0  0  0
 31 32  1  0  0  0
 32 33  1  0  0  0
 33 34  1  0  0  0
 23 24  1  0  0  0
 24 25  2  0  0  0
 18 13  1  0  0  0
 10  1  1  0  0  0
 25 20  1  0  0  0
  9  3  1  0  0  0
 34 29  1  0  0  0
 12 19  1  0  0  0
  7 11  1  0  0  0
M  END
> <minimizedAffinity>
9.73120

> <CNNscore>
0.3872928321

> <CNNaffinity>
7.6581220627

> <CNN_VS>
2.9659357071

> <CNNaffinity_variance>
1.1825435162

$$$$
[H]Oc1c([H])c([H])c(C2=C(c3c([H])c([H])c(OC([H])([H])C([H])([H])N4C([H])([H])C([H])([H])C([H])([H])C([H])([H])C4([H])[H])c([H])c3[H])c3c([H])c([H])c(O[H])c([H])c3C2([H])[H])c([H])c1[H]


 34 38  0  0  0  0  0  0  0  0999 V2000
    9.6817   43.9038  131.4703 C   0  0  0  0  0  0  0  0  0  0  0  0
    9.1898   44.5826  132.4639 C   0  0  0  0  0  0  0  0  0  0  0  0
    8.1943   43.7820  133.2259 C   0  0  0  0  0  0  0  0  0  0  0  0
    7.4223   44.0547  134.3303 C   0  0  0  0  0  0  0  0  0  0  0  0
    6.5680   43.0546  134.8053 C   0  0  0  0  0  0  0  0  0  0  0  0
    6.4953   41.8267  134.1891 C   0  0  0  0  0  0  0  0  0  0  0  0
    5.6250   40.8496  134.6962 O   0  0  0  0  0  0  0  0  0  0  0  0
    7.2663   41.5585  133.0884 C   0  0  0  0  0  0  0  0  0  0  0  0
    8.1106   42.5621  132.6281 C   0  0  0  0  0  0  0  0  0  0  0  0
    9.0197   42.5327  131.4948 C   0  0  0  0  0  0  0  0  0  0  0  0
    5.9248   40.1900  135.3964 H   0  0  0  0  0  0  0  0  0  0  0  0
   13.3231   45.3936  127.3611 O   0  0  0  0  0  0  0  0  0  0  0  0
   12.4422   45.0345  128.3683 C   0  0  0  0  0  0  0  0  0  0  0  0
   12.5277   43.7878  128.9411 C   0  0  0  0  0  0  0  0  0  0  0  0
   11.6460   43.4057  129.9613 C   0  0  0  0  0  0  0  0  0  0  0  0
   10.6745   44.2238  130.4358 C   0  0  0  0  0  0  0  0  0  0  0  0
   10.6007   45.5002  129.8376 C   0  0  0  0  0  0  0  0  0  0  0  0
   11.4621   45.8773  128.8396 C   0  0  0  0  0  0  0  0  0  0  0  0
   13.2629   46.3139  126.9364 H   0  0  0  0  0  0  0  0  0  0  0  0
    9.4699   45.9332  132.8979 C   0  0  0  0  0  0  0  0  0  0  0  0
   10.4651   46.3072  133.7246 C   0  0  0  0  0  0  0  0  0  0  0  0
   10.6608   47.6103  134.1278 C   0  0  0  0  0  0  0  0  0  0  0  0
    9.8033   48.6299  133.6764 C   0  0  0  0  0  0  0  0  0  0  0  0
    8.7840   48.2530  132.8305 C   0  0  0  0  0  0  0  0  0  0  0  0
    8.6078   46.9343  132.4394 C   0  0  0  0  0  0  0  0  0  0  0  0
   10.0470   49.8921  134.1110 O   0  0  0  0  0  0  0  0  0  0  0  0
   10.0484   51.1043  133.4593 C   0  0  0  0  0  0  0  0  0  0  0  0
    9.9947   52.3333  134.3403 C   0  0  0  0  0  0  0  0  0  0  0  0
   11.3229   52.8209  134.4963 N   0  0  0  0  0  0  0  0  0  0  0  0
   12.3629   52.0654  133.9082 C   0  0  0  0  0  0  0  0  0  0  0  0
   13.7135   52.2783  134.5007 C   0  0  0  0  0  0  0  0  0  0  0  0
   13.8318   53.6106  135.1914 C   0  0  0  0  0  0  0  0  0  0  0  0
   12.9288   54.6614  134.6113 C   0  0  0  0  0  0  0  0  0  0  0  0
   11.4819   54.2289  134.5457 C   0  0  0  0  0  0  0  0  0  0  0  0
 12 13  1  0  0  0
 13 14  2  0  0  0
 14 15  1  0  0  0
 15 16  2  0  0  0
 16 17  1  0  0  0
 17 18  2  0  0  0
 16  1  1  0  0  0
  1  2  2  0  0  0
  2  3  1  0  0  0
  3  4  2  0  0  0
  4  5  1  0  0  0
  5  6  2  0  0  0
  6  7  1  0  0  0
  6  8  1  0  0  0
  8  9  2  0  0  0
  9 10  1  0  0  0
  2 20  1  0  0  0
 20 21  2  0  0  0
 21 22  1  0  0  0
 22 23  2  0  0  0
 23 26  1  0  0  0
 26 27  1  0  0  0
 27 28  1  0  0  0
 28 29  1  0  0  0
 29 30  1  0  0  0
 30 31  1  0  0  0
 31 32  1  0  0  0
 32 33  1  0  0  0
 33 34  1  0  0  0
 23 24  1  0  0  0
 24 25  2  0  0  0
 18 13  1  0  0  0
 10  1  1  0  0  0
 25 20  1  0  0  0
  9  3  1  0  0  0
 34 29  1  0  0  0
 12 19  1  0  0  0
  7 11  1  0  0  0
M  END
> <minimizedAffinity>
40.04820

> <CNNscore>
0.3836361766

> <CNNaffinity>
7.0121202469

> <CNN_VS>
2.6901030540

> <CNNaffinity_variance>
2.5882172585

$$$$
[H]Oc1c([H])c([H])c(C2=C(c3c([H])c([H])c(OC([H])([H])C([H])([H])N4C([H])([H])C([H])([H])C([H])([H])C([H])([H])C4([H])[H])c([H])c3[H])c3c([H])c([H])c(O[H])c([H])c3C2([H])[H])c([H])c1[H]


 34 38  0  0  0  0  0  0  0  0999 V2000
    8.5963   47.0206  129.4608 C   0  0  0  0  0  0  0  0  0  0  0  0
    9.0204   46.1620  130.3399 C   0  0  0  0  0  0  0  0  0  0  0  0
    9.3765   44.8661  129.7025 C   0  0  0  0  0  0  0  0  0  0  0  0
    9.8593   43.6794  130.2014 C   0  0  0  0  0  0  0  0  0  0  0  0
   10.0933   42.6305  129.3066 C   0  0  0  0  0  0  0  0  0  0  0  0
    9.8492   42.7735  127.9603 C   0  0  0  0  0  0  0  0  0  0  0  0
   10.0965   41.6968  127.0949 O   0  0  0  0  0  0  0  0  0  0  0  0
    9.3679   43.9577  127.4666 C   0  0  0  0  0  0  0  0  0  0  0  0
    9.1403   44.9912  128.3679 C   0  0  0  0  0  0  0  0  0  0  0  0
    8.6390   46.3294  128.1046 C   0  0  0  0  0  0  0  0  0  0  0  0
   10.9938   41.5713  126.6540 H   0  0  0  0  0  0  0  0  0  0  0  0
    6.6966   52.3825  129.5394 O   0  0  0  0  0  0  0  0  0  0  0  0
    7.1517   51.0741  129.5255 C   0  0  0  0  0  0  0  0  0  0  0  0
    8.0386   50.6469  130.4851 C   0  0  0  0  0  0  0  0  0  0  0  0
    8.5106   49.3273  130.4884 C   0  0  0  0  0  0  0  0  0  0  0  0
    8.1308   48.4101  129.5648 C   0  0  0  0  0  0  0  0  0  0  0  0
    7.2196   48.8646  128.5872 C   0  0  0  0  0  0  0  0  0  0  0  0
    6.7555   50.1548  128.5816 C   0  0  0  0  0  0  0  0  0  0  0  0
    6.0411   52.7009  128.8324 H   0  0  0  0  0  0  0  0  0  0  0  0
    9.1818   46.2970  131.7705 C   0  0  0  0  0  0  0  0  0  0  0  0
   10.1891   46.9364  132.3952 C   0  0  0  0  0  0  0  0  0  0  0  0
   10.3045   47.0027  133.7668 C   0  0  0  0  0  0  0  0  0  0  0  0
    9.3447   46.3875  134.5909 C   0  0  0  0  0  0  0  0  0  0  0  0
    8.3122   45.7325  133.9573 C   0  0  0  0  0  0  0  0  0  0  0  0
    8.2185   45.6797  132.5747 C   0  0  0  0  0  0  0  0  0  0  0  0
    9.5153   46.4865  135.9335 O   0  0  0  0  0  0  0  0  0  0  0  0
   10.2740   45.7564  136.8198 C   0  0  0  0  0  0  0  0  0  0  0  0
   10.3483   44.2672  136.5624 C   0  0  0  0  0  0  0  0  0  0  0  0
   10.9170   44.0717  135.2723 N   0  0  0  0  0  0  0  0  0  0  0  0
   12.3244   44.1518  135.1666 C   0  0  0  0  0  0  0  0  0  0  0  0
   12.8406   44.4647  133.8042 C   0  0  0  0  0  0  0  0  0  0  0  0
   11.8644   44.0877  132.7220 C   0  0  0  0  0  0  0  0  0  0  0  0
   10.9691   42.9435  133.1034 C   0  0  0  0  0  0  0  0  0  0  0  0
   10.2449   43.1680  134.4111 C   0  0  0  0  0  0  0  0  0  0  0  0
 12 13  1  0  0  0
 13 14  2  0  0  0
 14 15  1  0  0  0
 15 16  2  0  0  0
 16 17  1  0  0  0
 17 18  2  0  0  0
 16  1  1  0  0  0
  1  2  2  0  0  0
  2  3  1  0  0  0
  3  4  2  0  0  0
  4  5  1  0  0  0
  5  6  2  0  0  0
  6  7  1  0  0  0
  6  8  1  0  0  0
  8  9  2  0  0  0
  9 10  1  0  0  0
  2 20  1  0  0  0
 20 21  2  0  0  0
 21 22  1  0  0  0
 22 23  2  0  0  0
 23 26  1  0  0  0
 26 27  1  0  0  0
 27 28  1  0  0  0
 28 29  1  0  0  0
 29 30  1  0  0  0
 30 31  1  0  0  0
 31 32  1  0  0  0
 32 33  1  0  0  0
 33 34  1  0  0  0
 23 24  1  0  0  0
 24 25  2  0  0  0
 18 13  1  0  0  0
 10  1  1  0  0  0
 25 20  1  0  0  0
  9  3  1  0  0  0
 34 29  1  0  0  0
 12 19  1  0  0  0
  7 11  1  0  0  0
M  END
> <minimizedAffinity>
2.56463

> <CNNscore>
0.3755713999

> <CNNaffinity>
7.8811392784

> <CNN_VS>
2.9599304199

> <CNNaffinity_variance>
0.9133383036

$$$$
[H]Oc1c([H])c([H])c(C2=C(c3c([H])c([H])c(OC([H])([H])C([H])([H])N4C([H])([H])C([H])([H])C([H])([H])C([H])([H])C4([H])[H])c([H])c3[H])c3c([H])c([H])c(O[H])c([H])c3C2([H])[H])c([H])c1[H]


 34 38  0  0  0  0  0  0  0  0999 V2000
    9.6887   48.4907  131.4544 C   0  0  0  0  0  0  0  0  0  0  0  0
    9.1417   47.9972  130.3833 C   0  0  0  0  0  0  0  0  0  0  0  0
    8.3033   49.0103  129.6881 C   0  0  0  0  0  0  0  0  0  0  0  0
    7.5427   48.9692  128.5435 C   0  0  0  0  0  0  0  0  0  0  0  0
    6.8620   50.1283  128.1580 C   0  0  0  0  0  0  0  0  0  0  0  0
    6.9453   51.2843  128.8992 C   0  0  0  0  0  0  0  0  0  0  0  0
    6.2466   52.4264  128.4790 O   0  0  0  0  0  0  0  0  0  0  0  0
    7.7043   51.3215  130.0395 C   0  0  0  0  0  0  0  0  0  0  0  0
    8.3752   50.1619  130.4099 C   0  0  0  0  0  0  0  0  0  0  0  0
    9.2348   49.9404  131.5604 C   0  0  0  0  0  0  0  0  0  0  0  0
    6.6659   53.1018  127.8597 H   0  0  0  0  0  0  0  0  0  0  0  0
   13.1548   46.5944  135.5478 O   0  0  0  0  0  0  0  0  0  0  0  0
   12.3036   47.0512  134.5547 C   0  0  0  0  0  0  0  0  0  0  0  0
   12.2127   46.3707  133.3636 C   0  0  0  0  0  0  0  0  0  0  0  0
   11.3574   46.8165  132.3468 C   0  0  0  0  0  0  0  0  0  0  0  0
   10.5839   47.9231  132.4716 C   0  0  0  0  0  0  0  0  0  0  0  0
   10.6885   48.6097  133.7005 C   0  0  0  0  0  0  0  0  0  0  0  0
   11.5239   48.1759  134.6975 C   0  0  0  0  0  0  0  0  0  0  0  0
   13.2238   47.0945  136.4287 H   0  0  0  0  0  0  0  0  0  0  0  0
    9.2385   46.6711  129.8150 C   0  0  0  0  0  0  0  0  0  0  0  0
   10.2787   46.1882  129.1089 C   0  0  0  0  0  0  0  0  0  0  0  0
   10.2974   44.9225  128.5640 C   0  0  0  0  0  0  0  0  0  0  0  0
    9.1980   44.0610  128.7311 C   0  0  0  0  0  0  0  0  0  0  0  0
    8.1317   44.5498  129.4527 C   0  0  0  0  0  0  0  0  0  0  0  0
    8.1369   45.8278  129.9908 C   0  0  0  0  0  0  0  0  0  0  0  0
    9.2763   42.8284  128.1688 O   0  0  0  0  0  0  0  0  0  0  0  0
    9.7162   41.6204  128.6600 C   0  0  0  0  0  0  0  0  0  0  0  0
    9.1029   41.1713  129.9683 C   0  0  0  0  0  0  0  0  0  0  0  0
    9.6465   41.9769  131.0084 N   0  0  0  0  0  0  0  0  0  0  0  0
   10.9283   42.5330  130.7934 C   0  0  0  0  0  0  0  0  0  0  0  0
   11.6726   42.9054  132.0294 C   0  0  0  0  0  0  0  0  0  0  0  0
   10.7553   43.1518  133.1973 C   0  0  0  0  0  0  0  0  0  0  0  0
    9.3922   43.6330  132.7893 C   0  0  0  0  0  0  0  0  0  0  0  0
    8.7242   42.7319  131.7761 C   0  0  0  0  0  0  0  0  0  0  0  0
 12 13  1  0  0  0
 13 14  2  0  0  0
 14 15  1  0  0  0
 15 16  2  0  0  0
 16 17  1  0  0  0
 17 18  2  0  0  0
 16  1  1  0  0  0
  1  2  2  0  0  0
  2  3  1  0  0  0
  3  4  2  0  0  0
  4  5  1  0  0  0
  5  6  2  0  0  0
  6  7  1  0  0  0
  6  8  1  0  0  0
  8  9  2  0  0  0
  9 10  1  0  0  0
  2 20  1  0  0  0
 20 21  2  0  0  0
 21 22  1  0  0  0
 22 23  2  0  0  0
 23 26  1  0  0  0
 26 27  1  0  0  0
 27 28  1  0  0  0
 28 29  1  0  0  0
 29 30  1  0  0  0
 30 31  1  0  0  0
 31 32  1  0  0  0
 32 33  1  0  0  0
 33 34  1  0  0  0
 23 24  1  0  0  0
 24 25  2  0  0  0
 18 13  1  0  0  0
 10  1  1  0  0  0
 25 20  1  0  0  0
  9  3  1  0  0  0
 34 29  1  0  0  0
 12 19  1  0  0  0
  7 11  1  0  0  0
M  END
> <minimizedAffinity>
5.15510

> <CNNscore>
0.3623609841

> <CNNaffinity>
7.6716260910

> <CNN_VS>
2.7798979282

> <CNNaffinity_variance>
0.8874071836

$$$$
[H]Oc1c([H])c([H])c(C2=C(c3c([H])c([H])c(OC([H])([H])C([H])([H])N4C([H])([H])C([H])([H])C([H])([H])C([H])([H])C4([H])[H])c([H])c3[H])c3c([H])c([H])c(O[H])c([H])c3C2([H])[H])c([H])c1[H]


 34 38  0  0  0  0  0  0  0  0999 V2000
    9.4123   45.6599  131.4214 C   0  0  0  0  0  0  0  0  0  0  0  0
    9.0141   46.8547  131.7436 C   0  0  0  0  0  0  0  0  0  0  0  0
    9.0670   47.0642  133.2153 C   0  0  0  0  0  0  0  0  0  0  0  0
    8.7552   48.1345  134.0199 C   0  0  0  0  0  0  0  0  0  0  0  0
    8.9247   47.9970  135.4012 C   0  0  0  0  0  0  0  0  0  0  0  0
    9.3905   46.8244  135.9494 C   0  0  0  0  0  0  0  0  0  0  0  0
    9.5463   46.7261  137.3406 O   0  0  0  0  0  0  0  0  0  0  0  0
    9.7001   45.7596  135.1444 C   0  0  0  0  0  0  0  0  0  0  0  0
    9.5268   45.9112  133.7736 C   0  0  0  0  0  0  0  0  0  0  0  0
    9.7786   44.9469  132.7161 C   0  0  0  0  0  0  0  0  0  0  0  0
   10.4113   46.9768  137.7924 H   0  0  0  0  0  0  0  0  0  0  0  0
    9.7579   42.7150  126.5662 O   0  0  0  0  0  0  0  0  0  0  0  0
    9.6676   43.4381  127.7445 C   0  0  0  0  0  0  0  0  0  0  0  0
   10.5565   44.4569  127.9931 C   0  0  0  0  0  0  0  0  0  0  0  0
   10.4816   45.2002  129.1789 C   0  0  0  0  0  0  0  0  0  0  0  0
    9.5486   44.9652  130.1342 C   0  0  0  0  0  0  0  0  0  0  0  0
    8.6433   43.9166  129.8632 C   0  0  0  0  0  0  0  0  0  0  0  0
    8.7136   43.1878  128.7038 C   0  0  0  0  0  0  0  0  0  0  0  0
    9.1026   41.9624  126.3794 H   0  0  0  0  0  0  0  0  0  0  0  0
    8.5553   47.9406  130.9061 C   0  0  0  0  0  0  0  0  0  0  0  0
    9.1621   49.1335  130.7561 C   0  0  0  0  0  0  0  0  0  0  0  0
    8.6563   50.1427  129.9657 C   0  0  0  0  0  0  0  0  0  0  0  0
    7.4513   49.9586  129.2635 C   0  0  0  0  0  0  0  0  0  0  0  0
    6.8268   48.7403  129.4130 C   0  0  0  0  0  0  0  0  0  0  0  0
    7.3562   47.7405  130.2150 C   0  0  0  0  0  0  0  0  0  0  0  0
    7.0045   50.9906  128.5041 O   0  0  0  0  0  0  0  0  0  0  0  0
    7.4902   52.2628  128.3049 C   0  0  0  0  0  0  0  0  0  0  0  0
    6.4924   53.2854  127.8066 C   0  0  0  0  0  0  0  0  0  0  0  0
    6.9554   53.7775  126.5537 N   0  0  0  0  0  0  0  0  0  0  0  0
    6.0729   54.5981  125.8147 C   0  0  0  0  0  0  0  0  0  0  0  0
    6.3426   54.6607  124.3506 C   0  0  0  0  0  0  0  0  0  0  0  0
    7.7719   54.3259  124.0172 C   0  0  0  0  0  0  0  0  0  0  0  0
    8.7321   54.6584  125.1233 C   0  0  0  0  0  0  0  0  0  0  0  0
    8.3435   54.0463  126.4496 C   0  0  0  0  0  0  0  0  0  0  0  0
 12 13  1  0  0  0
 13 14  2  0  0  0
 14 15  1  0  0  0
 15 16  2  0  0  0
 16 17  1  0  0  0
 17 18  2  0  0  0
 16  1  1  0  0  0
  1  2  2  0  0  0
  2  3  1  0  0  0
  3  4  2  0  0  0
  4  5  1  0  0  0
  5  6  2  0  0  0
  6  7  1  0  0  0
  6  8  1  0  0  0
  8  9  2  0  0  0
  9 10  1  0  0  0
  2 20  1  0  0  0
 20 21  2  0  0  0
 21 22  1  0  0  0
 22 23  2  0  0  0
 23 26  1  0  0  0
 26 27  1  0  0  0
 27 28  1  0  0  0
 28 29  1  0  0  0
 29 30  1  0  0  0
 30 31  1  0  0  0
 31 32  1  0  0  0
 32 33  1  0  0  0
 33 34  1  0  0  0
 23 24  1  0  0  0
 24 25  2  0  0  0
 18 13  1  0  0  0
 10  1  1  0  0  0
 25 20  1  0  0  0
  9  3  1  0  0  0
 34 29  1  0  0  0
 12 19  1  0  0  0
  7 11  1  0  0  0
M  END
> <minimizedAffinity>
1.84238

> <CNNscore>
0.3614148796

> <CNNaffinity>
7.3941283226

> <CNN_VS>
2.6723480225

> <CNNaffinity_variance>
1.3255195618

$$$$
[H]OC(=O)[C@@]([H])(C([H])([H])[H])C([H])([H])N1[C@]([H])(c2c(F)c([H])c([H])c(OC([H])([H])C([H])([H])N([H])C([H])([H])C([H])([H])C([H])([H])F)c2F)c2c(c3c([H])c([H])c([H])c([H])c3n2[H])C([H])([H])[C@@]1([H])C([H])([H])[H]


 39 42  0  0  0  0  0  0  0  0999 V2000
    8.8914   44.9709  130.8711 N   0  0  0  0  0  0  0  0  0  0  0  0
    9.1895   44.5532  129.5287 C   0  0  0  0  0  0  0  0  0  0  0  0
    7.9846   44.0938  128.7634 C   0  0  0  0  0  0  0  0  0  0  0  0
   10.2743   43.4631  129.5557 C   0  0  0  0  0  0  0  0  0  0  0  0
   11.4800   44.2019  129.9788 C   0  0  0  0  0  0  0  0  0  0  0  0
   11.3533   45.1203  130.9677 C   0  0  0  0  0  0  0  0  0  0  0  0
   12.5742   45.6604  131.1592 N   0  0  0  0  0  0  0  0  0  0  0  0
   13.4504   45.0948  130.3121 C   0  0  0  0  0  0  0  0  0  0  0  0
   14.8052   45.2546  130.0746 C   0  0  0  0  0  0  0  0  0  0  0  0
   15.4977   44.5275  129.1174 C   0  0  0  0  0  0  0  0  0  0  0  0
   14.8169   43.5955  128.3559 C   0  0  0  0  0  0  0  0  0  0  0  0
   13.4730   43.4301  128.5856 C   0  0  0  0  0  0  0  0  0  0  0  0
   12.7806   44.1632  129.5492 C   0  0  0  0  0  0  0  0  0  0  0  0
   10.0274   45.3311  131.6125 C   0  0  0  0  0  0  0  0  0  0  0  0
   12.8148   46.3975  131.8464 H   0  0  0  0  0  0  0  0  0  0  0  0
    9.9918   46.7241  132.2062 C   0  0  0  0  0  0  0  0  0  0  0  0
   10.4600   47.0243  133.4553 C   0  0  0  0  0  0  0  0  0  0  0  0
   11.0295   46.0955  134.2226 F   0  0  0  0  0  0  0  0  0  0  0  0
   10.3705   48.3179  133.9684 C   0  0  0  0  0  0  0  0  0  0  0  0
    9.8144   49.3308  133.2441 C   0  0  0  0  0  0  0  0  0  0  0  0
    9.3186   49.0642  131.9482 C   0  0  0  0  0  0  0  0  0  0  0  0
    9.4382   47.7451  131.4903 C   0  0  0  0  0  0  0  0  0  0  0  0
    8.9520   47.5329  130.2367 F   0  0  0  0  0  0  0  0  0  0  0  0
    8.7880   50.0286  131.2644 O   0  0  0  0  0  0  0  0  0  0  0  0
    8.2146   50.9568  130.5922 C   0  0  0  0  0  0  0  0  0  0  0  0
    7.4715   50.6520  129.2941 C   0  0  0  0  0  0  0  0  0  0  0  0
    6.7009   51.7819  128.8377 N   0  0  0  0  0  0  0  0  0  0  0  0
    5.7227   51.4665  128.6703 H   0  0  0  0  0  0  0  0  0  0  0  0
    7.2215   52.3539  127.6458 C   0  0  0  0  0  0  0  0  0  0  0  0
    6.9598   53.8089  127.4226 C   0  0  0  0  0  0  0  0  0  0  0  0
    7.9934   54.5134  126.6079 C   0  0  0  0  0  0  0  0  0  0  0  0
    8.0855   53.8799  125.3589 F   0  0  0  0  0  0  0  0  0  0  0  0
    8.0652   44.0358  131.5597 C   0  0  0  0  0  0  0  0  0  0  0  0
    7.4806   41.8874  132.5126 C   0  0  0  0  0  0  0  0  0  0  0  0
    8.6440   42.6913  131.8782 C   0  0  0  0  0  0  0  0  0  0  0  0
    9.6952   42.7113  132.9270 C   0  0  0  0  0  0  0  0  0  0  0  0
   10.8824   42.0048  132.7054 O   0  0  0  0  0  0  0  0  0  0  0  0
    9.6164   43.3179  134.0165 O   0  0  0  0  0  0  0  0  0  0  0  0
   11.0683   41.6633  131.7668 H   0  0  0  0  0  0  0  0  0  0  0  0
 34 35  1  0  0  0
 35 33  1  0  0  0
 33  1  1  0  0  0
  1  2  1  0  0  0
  2  3  1  0  0  0
  2  4  1  0  0  0
  4  5  1  0  0  0
  5  6  2  0  0  0
  6  7  1  0  0  0
  7  8  1  0  0  0
  8  9  2  0  0  0
  9 10  1  0  0  0
 10 11  2  0  0  0
 11 12  1  0  0  0
 12 13  2  0  0  0
  6 14  1  0  0  0
 14 16  1  0  0  0
 16 17  2  0  0  0
 17 18  1  0  0  0
 17 19  1  0  0  0
 19 20  2  0  0  0
 20 21  1  0  0  0
 21 24  1  0  0  0
 24 25  1  0  0  0
 25 26  1  0  0  0
 26 27  1  0  0  0
 27 29  1  0  0  0
 29 30  1  0  0  0
 30 31  1  0  0  0
 31 32  1  0  0  0
 21 22  2  0  0  0
 22 23  1  0  0  0
 35 36  1  0  0  0
 36 37  1  0  0  0
 36 38  2  0  0  0
 14  1  1  0  0  0
 22 16  1  0  0  0
 13  5  1  0  0  0
 13  8  1  0  0  0
  7 15  1  0  0  0
 27 28  1  0  0  0
 37 39  1  0  0  0
M  END
> <minimizedAffinity>
6.94582

> <CNNscore>
0.4033317864

> <CNNaffinity>
7.6427054405

> <CNN_VS>
3.0825459957

> <CNNaffinity_variance>
0.8089853525

$$$$
[H]OC(=O)[C@@]([H])(C([H])([H])[H])C([H])([H])N1[C@]([H])(c2c(F)c([H])c([H])c(OC([H])([H])C([H])([H])N([H])C([H])([H])C([H])([H])C([H])([H])F)c2F)c2c(c3c([H])c([H])c([H])c([H])c3n2[H])C([H])([H])[C@@]1([H])C([H])([H])[H]


 39 42  0  0  0  0  0  0  0  0999 V2000
    8.1041   46.0305  129.1207 N   0  0  0  0  0  0  0  0  0  0  0  0
    7.2332   47.1656  129.2563 C   0  0  0  0  0  0  0  0  0  0  0  0
    6.1164   47.1861  128.2560 C   0  0  0  0  0  0  0  0  0  0  0  0
    8.0590   48.4614  129.1876 C   0  0  0  0  0  0  0  0  0  0  0  0
    8.8212   48.4394  130.4514 C   0  0  0  0  0  0  0  0  0  0  0  0
    9.3568   47.2615  130.8550 C   0  0  0  0  0  0  0  0  0  0  0  0
    9.9824   47.4967  132.0264 N   0  0  0  0  0  0  0  0  0  0  0  0
    9.8458   48.7927  132.3531 C   0  0  0  0  0  0  0  0  0  0  0  0
   10.2731   49.5715  133.4153 C   0  0  0  0  0  0  0  0  0  0  0  0
    9.9944   50.9263  133.5221 C   0  0  0  0  0  0  0  0  0  0  0  0
    9.2554   51.5428  132.5293 C   0  0  0  0  0  0  0  0  0  0  0  0
    8.8282   50.7778  131.4717 C   0  0  0  0  0  0  0  0  0  0  0  0
    9.1109   49.4158  131.3681 C   0  0  0  0  0  0  0  0  0  0  0  0
    9.1917   46.0479  130.0075 C   0  0  0  0  0  0  0  0  0  0  0  0
   10.4915   46.7982  132.5977 H   0  0  0  0  0  0  0  0  0  0  0  0
    9.3244   44.8206  130.8853 C   0  0  0  0  0  0  0  0  0  0  0  0
    8.2875   43.9719  131.1577 C   0  0  0  0  0  0  0  0  0  0  0  0
    7.0832   44.1547  130.6171 F   0  0  0  0  0  0  0  0  0  0  0  0
    8.4550   42.8748  132.0022 C   0  0  0  0  0  0  0  0  0  0  0  0
    9.6579   42.6071  132.5862 C   0  0  0  0  0  0  0  0  0  0  0  0
   10.7562   43.4586  132.3311 C   0  0  0  0  0  0  0  0  0  0  0  0
   10.5232   44.5428  131.4744 C   0  0  0  0  0  0  0  0  0  0  0  0
   11.6079   45.3346  131.2527 F   0  0  0  0  0  0  0  0  0  0  0  0
   11.8967   43.2027  132.8905 O   0  0  0  0  0  0  0  0  0  0  0  0
   12.9975   42.9345  133.4893 C   0  0  0  0  0  0  0  0  0  0  0  0
   13.4823   43.7724  134.6696 C   0  0  0  0  0  0  0  0  0  0  0  0
   12.4632   44.6765  135.1418 N   0  0  0  0  0  0  0  0  0  0  0  0
   12.8514   45.2217  135.9394 H   0  0  0  0  0  0  0  0  0  0  0  0
   11.2852   44.0020  135.5617 C   0  0  0  0  0  0  0  0  0  0  0  0
   10.0939   44.8501  135.8728 C   0  0  0  0  0  0  0  0  0  0  0  0
    9.6788   45.7736  134.7759 C   0  0  0  0  0  0  0  0  0  0  0  0
   10.2029   47.0478  135.0428 F   0  0  0  0  0  0  0  0  0  0  0  0
    8.5053   45.8125  127.7705 C   0  0  0  0  0  0  0  0  0  0  0  0
   10.1086   45.5595  125.9730 C   0  0  0  0  0  0  0  0  0  0  0  0
    9.9428   45.4793  127.5120 C   0  0  0  0  0  0  0  0  0  0  0  0
   10.3173   44.0831  127.8523 C   0  0  0  0  0  0  0  0  0  0  0  0
   11.6041   43.8300  128.3398 O   0  0  0  0  0  0  0  0  0  0  0  0
    9.5698   43.0881  127.7426 O   0  0  0  0  0  0  0  0  0  0  0  0
   12.1721   44.6222  128.6260 H   0  0  0  0  0  0  0  0  0  0  0  0
 34 35  1  0  0  0
 35 33  1  0  0  0
 33  1  1  0  0  0
  1  2  1  0  0  0
  2  3  1  0  0  0
  2  4  1  0  0  0
  4  5  1  0  0  0
  5  6  2  0  0  0
  6  7  1  0  0  0
  7  8  1  0  0  0
  8  9  2  0  0  0
  9 10  1  0  0  0
 10 11  2  0  0  0
 11 12  1  0  0  0
 12 13  2  0  0  0
  6 14  1  0  0  0
 14 16  1  0  0  0
 16 17  2  0  0  0
 17 18  1  0  0  0
 17 19  1  0  0  0
 19 20  2  0  0  0
 20 21  1  0  0  0
 21 24  1  0  0  0
 24 25  1  0  0  0
 25 26  1  0  0  0
 26 27  1  0  0  0
 27 29  1  0  0  0
 29 30  1  0  0  0
 30 31  1  0  0  0
 31 32  1  0  0  0
 21 22  2  0  0  0
 22 23  1  0  0  0
 35 36  1  0  0  0
 36 37  1  0  0  0
 36 38  2  0  0  0
 14  1  1  0  0  0
 22 16  1  0  0  0
 13  5  1  0  0  0
 13  8  1  0  0  0
  7 15  1  0  0  0
 27 28  1  0  0  0
 37 39  1  0  0  0
M  END
> <minimizedAffinity>
7.43759

> <CNNscore>
0.4002931714

> <CNNaffinity>
7.8391447067

> <CNN_VS>
3.1379561424

> <CNNaffinity_variance>
0.7213020325

$$$$
[H]OC(=O)[C@@]([H])(C([H])([H])[H])C([H])([H])N1[C@]([H])(c2c(F)c([H])c([H])c(OC([H])([H])C([H])([H])N([H])C([H])([H])C([H])([H])C([H])([H])F)c2F)c2c(c3c([H])c([H])c([H])c([H])c3n2[H])C([H])([H])[C@@]1([H])C([H])([H])[H]


 39 42  0  0  0  0  0  0  0  0999 V2000
    8.8882   44.9411  130.6331 N   0  0  0  0  0  0  0  0  0  0  0  0
    9.2021   44.9238  129.2308 C   0  0  0  0  0  0  0  0  0  0  0  0
    7.9924   44.8522  128.3476 C   0  0  0  0  0  0  0  0  0  0  0  0
   10.1720   43.7679  128.9326 C   0  0  0  0  0  0  0  0  0  0  0  0
   11.4249   44.2084  129.5765 C   0  0  0  0  0  0  0  0  0  0  0  0
   11.3463   44.7889  130.7989 C   0  0  0  0  0  0  0  0  0  0  0  0
   12.6049   45.1105  131.1613 N   0  0  0  0  0  0  0  0  0  0  0  0
   13.4573   44.7402  130.1911 C   0  0  0  0  0  0  0  0  0  0  0  0
   14.8303   44.8186  130.0297 C   0  0  0  0  0  0  0  0  0  0  0  0
   15.4890   44.3488  128.9028 C   0  0  0  0  0  0  0  0  0  0  0  0
   14.7536   43.7726  127.8834 C   0  0  0  0  0  0  0  0  0  0  0  0
   13.3912   43.6900  128.0357 C   0  0  0  0  0  0  0  0  0  0  0  0
   12.7329   44.1636  129.1706 C   0  0  0  0  0  0  0  0  0  0  0  0
   10.0206   44.9335  131.4622 C   0  0  0  0  0  0  0  0  0  0  0  0
   12.8866   45.5722  132.0450 H   0  0  0  0  0  0  0  0  0  0  0  0
   10.0965   46.0741  132.4561 C   0  0  0  0  0  0  0  0  0  0  0  0
   10.3719   45.9007  133.7841 C   0  0  0  0  0  0  0  0  0  0  0  0
   10.6405   44.6948  134.2836 F   0  0  0  0  0  0  0  0  0  0  0  0
   10.3945   46.9823  134.6641 C   0  0  0  0  0  0  0  0  0  0  0  0
   10.1443   48.2518  134.2334 C   0  0  0  0  0  0  0  0  0  0  0  0
    9.8558   48.4756  132.8685 C   0  0  0  0  0  0  0  0  0  0  0  0
    9.8485   47.3482  132.0362 C   0  0  0  0  0  0  0  0  0  0  0  0
    9.5703   47.6088  130.7294 F   0  0  0  0  0  0  0  0  0  0  0  0
    9.6154   49.6829  132.4637 O   0  0  0  0  0  0  0  0  0  0  0  0
    9.3239   50.8651  132.0640 C   0  0  0  0  0  0  0  0  0  0  0  0
    8.2440   51.1021  131.0114 C   0  0  0  0  0  0  0  0  0  0  0  0
    8.3487   50.1718  129.9148 N   0  0  0  0  0  0  0  0  0  0  0  0
    8.8026   50.6579  129.1137 H   0  0  0  0  0  0  0  0  0  0  0  0
    7.0863   49.6655  129.5042 C   0  0  0  0  0  0  0  0  0  0  0  0
    7.0881   48.3806  128.7399 C   0  0  0  0  0  0  0  0  0  0  0  0
    5.9134   47.4965  128.9982 C   0  0  0  0  0  0  0  0  0  0  0  0
    4.7771   48.3023  129.1685 F   0  0  0  0  0  0  0  0  0  0  0  0
    7.9445   43.9345  130.9905 C   0  0  0  0  0  0  0  0  0  0  0  0
    7.2224   41.6541  131.3696 C   0  0  0  0  0  0  0  0  0  0  0  0
    8.4686   42.5752  131.3397 C   0  0  0  0  0  0  0  0  0  0  0  0
    9.0377   42.4725  132.7075 C   0  0  0  0  0  0  0  0  0  0  0  0
   10.3770   42.0948  132.8540 O   0  0  0  0  0  0  0  0  0  0  0  0
    8.4159   42.6998  133.7671 O   0  0  0  0  0  0  0  0  0  0  0  0
   10.9664   42.0902  132.0265 H   0  0  0  0  0  0  0  0  0  0  0  0
 34 35  1  0  0  0
 35 33  1  0  0  0
 33  1  1  0  0  0
  1  2  1  0  0  0
  2  3  1  0  0  0
  2  4  1  0  0  0
  4  5  1  0  0  0
  5  6  2  0  0  0
  6  7  1  0  0  0
  7  8  1  0  0  0
  8  9  2  0  0  0
  9 10  1  0  0  0
 10 11  2  0  0  0
 11 12  1  0  0  0
 12 13  2  0  0  0
  6 14  1  0  0  0
 14 16  1  0  0  0
 16 17  2  0  0  0
 17 18  1  0  0  0
 17 19  1  0  0  0
 19 20  2  0  0  0
 20 21  1  0  0  0
 21 24  1  0  0  0
 24 25  1  0  0  0
 25 26  1  0  0  0
 26 27  1  0  0  0
 27 29  1  0  0  0
 29 30  1  0  0  0
 30 31  1  0  0  0
 31 32  1  0  0  0
 21 22  2  0  0  0
 22 23  1  0  0  0
 35 36  1  0  0  0
 36 37  1  0  0  0
 36 38  2  0  0  0
 14  1  1  0  0  0
 22 16  1  0  0  0
 13  5  1  0  0  0
 13  8  1  0  0  0
  7 15  1  0  0  0
 27 28  1  0  0  0
 37 39  1  0  0  0
M  END
> <minimizedAffinity>
5.59917

> <CNNscore>
0.3559111357

> <CNNaffinity>
7.7346296310

> <CNN_VS>
2.7528407574

> <CNNaffinity_variance>
0.4815069139

$$$$
[H]OC(=O)[C@@]([H])(C([H])([H])[H])C([H])([H])N1[C@]([H])(c2c(F)c([H])c([H])c(OC([H])([H])C([H])([H])N([H])C([H])([H])C([H])([H])C([H])([H])F)c2F)c2c(c3c([H])c([H])c([H])c([H])c3n2[H])C([H])([H])[C@@]1([H])C([H])([H])[H]


 39 42  0  0  0  0  0  0  0  0999 V2000
    9.1484   46.0794  129.2692 N   0  0  0  0  0  0  0  0  0  0  0  0
    7.9853   46.8198  129.6748 C   0  0  0  0  0  0  0  0  0  0  0  0
    6.7523   46.4709  128.8961 C   0  0  0  0  0  0  0  0  0  0  0  0
    8.2792   48.3275  129.5961 C   0  0  0  0  0  0  0  0  0  0  0  0
    9.2414   48.5382  130.6954 C   0  0  0  0  0  0  0  0  0  0  0  0
   10.2217   47.6190  130.8725 C   0  0  0  0  0  0  0  0  0  0  0  0
   10.9509   48.0236  131.9324 N   0  0  0  0  0  0  0  0  0  0  0  0
   10.4435   49.1716  132.4115 C   0  0  0  0  0  0  0  0  0  0  0  0
   10.7808   50.0154  133.4562 C   0  0  0  0  0  0  0  0  0  0  0  0
   10.0782   51.1745  133.7515 C   0  0  0  0  0  0  0  0  0  0  0  0
    8.9865   51.5171  132.9752 C   0  0  0  0  0  0  0  0  0  0  0  0
    8.6453   50.6862  131.9363 C   0  0  0  0  0  0  0  0  0  0  0  0
    9.3547   49.5216  131.6428 C   0  0  0  0  0  0  0  0  0  0  0  0
   10.3186   46.4569  129.9460 C   0  0  0  0  0  0  0  0  0  0  0  0
   11.7750   47.5361  132.3284 H   0  0  0  0  0  0  0  0  0  0  0  0
   11.0431   45.3305  130.6535 C   0  0  0  0  0  0  0  0  0  0  0  0
   12.2642   44.8555  130.2626 C   0  0  0  0  0  0  0  0  0  0  0  0
   12.9234   45.3995  129.2401 F   0  0  0  0  0  0  0  0  0  0  0  0
   12.8718   43.7912  130.9280 C   0  0  0  0  0  0  0  0  0  0  0  0
   12.2722   43.1860  131.9929 C   0  0  0  0  0  0  0  0  0  0  0  0
   11.0099   43.6459  132.4302 C   0  0  0  0  0  0  0  0  0  0  0  0
   10.4528   44.7180  131.7202 C   0  0  0  0  0  0  0  0  0  0  0  0
    9.2391   45.1319  132.1767 F   0  0  0  0  0  0  0  0  0  0  0  0
   10.4419   43.0661  133.4403 O   0  0  0  0  0  0  0  0  0  0  0  0
    9.8576   42.4566  134.4044 C   0  0  0  0  0  0  0  0  0  0  0  0
    8.4420   41.9060  134.2519 C   0  0  0  0  0  0  0  0  0  0  0  0
    7.6810   42.6430  133.2739 N   0  0  0  0  0  0  0  0  0  0  0  0
    6.7488   42.8643  133.6816 H   0  0  0  0  0  0  0  0  0  0  0  0
    7.5057   41.9235  132.0613 C   0  0  0  0  0  0  0  0  0  0  0  0
    7.9102   42.6152  130.7991 C   0  0  0  0  0  0  0  0  0  0  0  0
    9.2912   42.3007  130.3275 C   0  0  0  0  0  0  0  0  0  0  0  0
    9.2422   41.1339  129.5491 F   0  0  0  0  0  0  0  0  0  0  0  0
    9.3174   46.0666  127.8540 C   0  0  0  0  0  0  0  0  0  0  0  0
   10.3188   45.4031  125.7511 C   0  0  0  0  0  0  0  0  0  0  0  0
   10.3796   45.1776  127.2834 C   0  0  0  0  0  0  0  0  0  0  0  0
   10.1183   43.7258  127.4545 C   0  0  0  0  0  0  0  0  0  0  0  0
   11.1817   42.8859  127.8032 O   0  0  0  0  0  0  0  0  0  0  0  0
    9.0078   43.1707  127.3142 O   0  0  0  0  0  0  0  0  0  0  0  0
   12.0485   43.3148  128.1144 H   0  0  0  0  0  0  0  0  0  0  0  0
 34 35  1  0  0  0
 35 33  1  0  0  0
 33  1  1  0  0  0
  1  2  1  0  0  0
  2  3  1  0  0  0
  2  4  1  0  0  0
  4  5  1  0  0  0
  5  6  2  0  0  0
  6  7  1  0  0  0
  7  8  1  0  0  0
  8  9  2  0  0  0
  9 10  1  0  0  0
 10 11  2  0  0  0
 11 12  1  0  0  0
 12 13  2  0  0  0
  6 14  1  0  0  0
 14 16  1  0  0  0
 16 17  2  0  0  0
 17 18  1  0  0  0
 17 19  1  0  0  0
 19 20  2  0  0  0
 20 21  1  0  0  0
 21 24  1  0  0  0
 24 25  1  0  0  0
 25 26  1  0  0  0
 26 27  1  0  0  0
 27 29  1  0  0  0
 29 30  1  0  0  0
 30 31  1  0  0  0
 31 32  1  0  0  0
 21 22  2  0  0  0
 22 23  1  0  0  0
 35 36  1  0  0  0
 36 37  1  0  0  0
 36 38  2  0  0  0
 14  1  1  0  0  0
 22 16  1  0  0  0
 13  5  1  0  0  0
 13  8  1  0  0  0
  7 15  1  0  0  0
 27 28  1  0  0  0
 37 39  1  0  0  0
M  END
> <minimizedAffinity>
11.49777

> <CNNscore>
0.3519155383

> <CNNaffinity>
7.3211798668

> <CNN_VS>
2.5764369965

> <CNNaffinity_variance>
0.3180663288

$$$$
[H]OC(=O)[C@@]([H])(C([H])([H])[H])C([H])([H])N1[C@]([H])(c2c(F)c([H])c([H])c(OC([H])([H])C([H])([H])N([H])C([H])([H])C([H])([H])C([H])([H])F)c2F)c2c(c3c([H])c([H])c([H])c([H])c3n2[H])C([H])([H])[C@@]1([H])C([H])([H])[H]


 39 42  0  0  0  0  0  0  0  0999 V2000
   10.0369   46.1981  129.9686 N   0  0  0  0  0  0  0  0  0  0  0  0
    9.0800   46.3369  128.9053 C   0  0  0  0  0  0  0  0  0  0  0  0
    9.1852   45.2652  127.8619 C   0  0  0  0  0  0  0  0  0  0  0  0
    9.2068   47.7343  128.2754 C   0  0  0  0  0  0  0  0  0  0  0  0
    8.6983   48.6263  129.3358 C   0  0  0  0  0  0  0  0  0  0  0  0
    9.0676   48.3741  130.6153 C   0  0  0  0  0  0  0  0  0  0  0  0
    8.4705   49.3059  131.3861 N   0  0  0  0  0  0  0  0  0  0  0  0
    7.7430   50.1273  130.6108 C   0  0  0  0  0  0  0  0  0  0  0  0
    6.9456   51.2324  130.8557 C   0  0  0  0  0  0  0  0  0  0  0  0
    6.2840   51.9268  129.8533 C   0  0  0  0  0  0  0  0  0  0  0  0
    6.4167   51.5076  128.5424 C   0  0  0  0  0  0  0  0  0  0  0  0
    7.2065   50.4126  128.2905 C   0  0  0  0  0  0  0  0  0  0  0  0
    7.8701   49.7174  129.3014 C   0  0  0  0  0  0  0  0  0  0  0  0
    9.9889   47.2408  130.9069 C   0  0  0  0  0  0  0  0  0  0  0  0
    8.5491   49.3881  132.4160 H   0  0  0  0  0  0  0  0  0  0  0  0
    9.7826   46.8038  132.3425 C   0  0  0  0  0  0  0  0  0  0  0  0
    9.9093   47.6450  133.4130 C   0  0  0  0  0  0  0  0  0  0  0  0
   10.1834   48.9387  133.2480 F   0  0  0  0  0  0  0  0  0  0  0  0
    9.7436   47.1827  134.7182 C   0  0  0  0  0  0  0  0  0  0  0  0
    9.4483   45.8764  134.9753 C   0  0  0  0  0  0  0  0  0  0  0  0
    9.3080   44.9732  133.8979 C   0  0  0  0  0  0  0  0  0  0  0  0
    9.4864   45.4995  132.6114 C   0  0  0  0  0  0  0  0  0  0  0  0
    9.3387   44.5970  131.6031 F   0  0  0  0  0  0  0  0  0  0  0  0
    9.0306   43.7321  134.1464 O   0  0  0  0  0  0  0  0  0  0  0  0
    8.8099   42.4932  134.3888 C   0  0  0  0  0  0  0  0  0  0  0  0
    9.5192   41.3933  133.6030 C   0  0  0  0  0  0  0  0  0  0  0  0
   10.2230   41.9181  132.4593 N   0  0  0  0  0  0  0  0  0  0  0  0
   10.0256   41.3040  131.6419 H   0  0  0  0  0  0  0  0  0  0  0  0
   11.6268   41.9898  132.6661 C   0  0  0  0  0  0  0  0  0  0  0  0
   12.2473   43.3497  132.6340 C   0  0  0  0  0  0  0  0  0  0  0  0
   12.5311   43.9404  133.9753 C   0  0  0  0  0  0  0  0  0  0  0  0
   12.5777   45.3372  133.8471 F   0  0  0  0  0  0  0  0  0  0  0  0
   11.3562   45.9615  129.4839 C   0  0  0  0  0  0  0  0  0  0  0  0
   13.2912   44.6201  128.9165 C   0  0  0  0  0  0  0  0  0  0  0  0
   11.9315   44.5895  129.6600 C   0  0  0  0  0  0  0  0  0  0  0  0
   11.1638   43.5134  128.9832 C   0  0  0  0  0  0  0  0  0  0  0  0
   10.3537   42.6746  129.7565 O   0  0  0  0  0  0  0  0  0  0  0  0
   11.1729   43.2829  127.7553 O   0  0  0  0  0  0  0  0  0  0  0  0
   10.1657   42.9438  130.7179 H   0  0  0  0  0  0  0  0  0  0  0  0
 34 35  1  0  0  0
 35 33  1  0  0  0
 33  1  1  0  0  0
  1  2  1  0  0  0
  2  3  1  0  0  0
  2  4  1  0  0  0
  4  5  1  0  0  0
  5  6  2  0  0  0
  6  7  1  0  0  0
  7  8  1  0  0  0
  8  9  2  0  0  0
  9 10  1  0  0  0
 10 11  2  0  0  0
 11 12  1  0  0  0
 12 13  2  0  0  0
  6 14  1  0  0  0
 14 16  1  0  0  0
 16 17  2  0  0  0
 17 18  1  0  0  0
 17 19  1  0  0  0
 19 20  2  0  0  0
 20 21  1  0  0  0
 21 24  1  0  0  0
 24 25  1  0  0  0
 25 26  1  0  0  0
 26 27  1  0  0  0
 27 29  1  0  0  0
 29 30  1  0  0  0
 30 31  1  0  0  0
 31 32  1  0  0  0
 21 22  2  0  0  0
 22 23  1  0  0  0
 35 36  1  0  0  0
 36 37  1  0  0  0
 36 38  2  0  0  0
 14  1  1  0  0  0
 22 16  1  0  0  0
 13  5  1  0  0  0
 13  8  1  0  0  0
  7 15  1  0  0  0
 27 28  1  0  0  0
 37 39  1  0  0  0
M  END
> <minimizedAffinity>
4.47141

> <CNNscore>
0.3404320180

> <CNNaffinity>
7.7215247154

> <CNN_VS>
2.6286542416

> <CNNaffinity_variance>
0.2430534810

$$$$
[H]OC(=O)[C@@]([H])(C([H])([H])[H])C([H])([H])N1[C@]([H])(c2c(F)c([H])c([H])c(OC([H])([H])C([H])([H])N([H])C([H])([H])C([H])([H])C([H])([H])F)c2F)c2c(c3c([H])c([H])c([H])c([H])c3n2[H])C([H])([H])[C@@]1([H])C([H])([H])[H]


 39 42  0  0  0  0  0  0  0  0999 V2000
    7.7628   47.0787  129.4816 N   0  0  0  0  0  0  0  0  0  0  0  0
    6.7677   47.0570  130.5183 C   0  0  0  0  0  0  0  0  0  0  0  0
    5.3914   47.4028  130.0340 C   0  0  0  0  0  0  0  0  0  0  0  0
    7.1978   47.9855  131.6667 C   0  0  0  0  0  0  0  0  0  0  0  0
    8.3487   47.2751  132.2576 C   0  0  0  0  0  0  0  0  0  0  0  0
    9.2449   46.7001  131.4188 C   0  0  0  0  0  0  0  0  0  0  0  0
   10.1808   46.1103  132.1903 N   0  0  0  0  0  0  0  0  0  0  0  0
    9.8828   46.3100  133.4850 C   0  0  0  0  0  0  0  0  0  0  0  0
   10.4773   45.9440  134.6808 C   0  0  0  0  0  0  0  0  0  0  0  0
    9.9580   46.2854  135.9211 C   0  0  0  0  0  0  0  0  0  0  0  0
    8.7918   47.0256  135.9830 C   0  0  0  0  0  0  0  0  0  0  0  0
    8.1959   47.3935  134.8016 C   0  0  0  0  0  0  0  0  0  0  0  0
    8.7215   47.0483  133.5565 C   0  0  0  0  0  0  0  0  0  0  0  0
    9.0633   46.8279  129.9461 C   0  0  0  0  0  0  0  0  0  0  0  0
   11.0054   45.5813  131.8529 H   0  0  0  0  0  0  0  0  0  0  0  0
    9.7771   45.6775  129.2668 C   0  0  0  0  0  0  0  0  0  0  0  0
   10.4973   45.8123  128.1124 C   0  0  0  0  0  0  0  0  0  0  0  0
   10.6540   47.0003  127.5292 F   0  0  0  0  0  0  0  0  0  0  0  0
   11.1059   44.7126  127.5083 C   0  0  0  0  0  0  0  0  0  0  0  0
   11.0068   43.4634  128.0464 C   0  0  0  0  0  0  0  0  0  0  0  0
   10.2723   43.2796  129.2393 C   0  0  0  0  0  0  0  0  0  0  0  0
    9.6852   44.4236  129.7966 C   0  0  0  0  0  0  0  0  0  0  0  0
    8.9908   44.2027  130.9464 F   0  0  0  0  0  0  0  0  0  0  0  0
   10.1777   42.0906  129.7457 O   0  0  0  0  0  0  0  0  0  0  0  0
   10.1255   40.9273  130.2808 C   0  0  0  0  0  0  0  0  0  0  0  0
   10.6308   40.6846  131.7007 C   0  0  0  0  0  0  0  0  0  0  0  0
   11.7822   41.4964  132.0077 N   0  0  0  0  0  0  0  0  0  0  0  0
   12.3769   40.9791  132.6881 H   0  0  0  0  0  0  0  0  0  0  0  0
   11.4309   42.7597  132.5547 C   0  0  0  0  0  0  0  0  0  0  0  0
   12.5388   43.7443  132.7508 C   0  0  0  0  0  0  0  0  0  0  0  0
   12.6770   44.7567  131.6625 C   0  0  0  0  0  0  0  0  0  0  0  0
   13.1985   44.1211  130.5251 F   0  0  0  0  0  0  0  0  0  0  0  0
    7.6875   48.2558  128.6815 C   0  0  0  0  0  0  0  0  0  0  0  0
    7.2969   50.6075  128.2541 C   0  0  0  0  0  0  0  0  0  0  0  0
    7.5277   49.5701  129.3824 C   0  0  0  0  0  0  0  0  0  0  0  0
    8.7513   50.0450  130.0771 C   0  0  0  0  0  0  0  0  0  0  0  0
    8.6164   50.9400  131.1442 O   0  0  0  0  0  0  0  0  0  0  0  0
    9.9202   49.7094  129.7909 O   0  0  0  0  0  0  0  0  0  0  0  0
    7.6889   51.0862  131.5322 H   0  0  0  0  0  0  0  0  0  0  0  0
 34 35  1  0  0  0
 35 33  1  0  0  0
 33  1  1  0  0  0
  1  2  1  0  0  0
  2  3  1  0  0  0
  2  4  1  0  0  0
  4  5  1  0  0  0
  5  6  2  0  0  0
  6  7  1  0  0  0
  7  8  1  0  0  0
  8  9  2  0  0  0
  9 10  1  0  0  0
 10 11  2  0  0  0
 11 12  1  0  0  0
 12 13  2  0  0  0
  6 14  1  0  0  0
 14 16  1  0  0  0
 16 17  2  0  0  0
 17 18  1  0  0  0
 17 19  1  0  0  0
 19 20  2  0  0  0
 20 21  1  0  0  0
 21 24  1  0  0  0
 24 25  1  0  0  0
 25 26  1  0  0  0
 26 27  1  0  0  0
 27 29  1  0  0  0
 29 30  1  0  0  0
 30 31  1  0  0  0
 31 32  1  0  0  0
 21 22  2  0  0  0
 22 23  1  0  0  0
 35 36  1  0  0  0
 36 37  1  0  0  0
 36 38  2  0  0  0
 14  1  1  0  0  0
 22 16  1  0  0  0
 13  5  1  0  0  0
 13  8  1  0  0  0
  7 15  1  0  0  0
 27 28  1  0  0  0
 37 39  1  0  0  0
M  END
> <minimizedAffinity>
2.90478

> <CNNscore>
0.3226010203

> <CNNaffinity>
7.5346183777

> <CNN_VS>
2.4306755066

> <CNNaffinity_variance>
0.1785138398

$$$$
[H]OC(=O)[C@@]([H])(C([H])([H])[H])C([H])([H])N1[C@]([H])(c2c(F)c([H])c([H])c(OC([H])([H])C([H])([H])N([H])C([H])([H])C([H])([H])C([H])([H])F)c2F)c2c(c3c([H])c([H])c([H])c([H])c3n2[H])C([H])([H])[C@@]1([H])C([H])([H])[H]


 39 42  0  0  0  0  0  0  0  0999 V2000
   10.8511   45.0253  129.4525 N   0  0  0  0  0  0  0  0  0  0  0  0
    9.6168   45.1687  128.7305 C   0  0  0  0  0  0  0  0  0  0  0  0
    9.4344   44.1471  127.6482 C   0  0  0  0  0  0  0  0  0  0  0  0
    9.5114   46.5955  128.1657 C   0  0  0  0  0  0  0  0  0  0  0  0
    9.3191   47.4202  129.3746 C   0  0  0  0  0  0  0  0  0  0  0  0
   10.0606   47.1299  130.4716 C   0  0  0  0  0  0  0  0  0  0  0  0
    9.6960   48.0028  131.4329 N   0  0  0  0  0  0  0  0  0  0  0  0
    8.7480   48.8251  130.9530 C   0  0  0  0  0  0  0  0  0  0  0  0
    8.0305   49.8848  131.4815 C   0  0  0  0  0  0  0  0  0  0  0  0
    7.0810   50.5926  130.7590 C   0  0  0  0  0  0  0  0  0  0  0  0
    6.8273   50.2348  129.4477 C   0  0  0  0  0  0  0  0  0  0  0  0
    7.5351   49.1852  128.9153 C   0  0  0  0  0  0  0  0  0  0  0  0
    8.4891   48.4763  129.6453 C   0  0  0  0  0  0  0  0  0  0  0  0
   11.0574   46.0246  130.4162 C   0  0  0  0  0  0  0  0  0  0  0  0
   10.0765   48.0448  132.3956 H   0  0  0  0  0  0  0  0  0  0  0  0
   11.3014   45.5195  131.8232 C   0  0  0  0  0  0  0  0  0  0  0  0
   12.2296   46.0606  132.6689 C   0  0  0  0  0  0  0  0  0  0  0  0
   12.9585   47.1175  132.3117 F   0  0  0  0  0  0  0  0  0  0  0  0
   12.4395   45.5339  133.9430 C   0  0  0  0  0  0  0  0  0  0  0  0
   11.7269   44.4617  134.3929 C   0  0  0  0  0  0  0  0  0  0  0  0
   10.7572   43.8724  133.5513 C   0  0  0  0  0  0  0  0  0  0  0  0
   10.5940   44.4477  132.2840 C   0  0  0  0  0  0  0  0  0  0  0  0
    9.6477   43.8523  131.5075 F   0  0  0  0  0  0  0  0  0  0  0  0
   10.0844   42.8517  133.9812 O   0  0  0  0  0  0  0  0  0  0  0  0
    9.4337   41.8151  134.3609 C   0  0  0  0  0  0  0  0  0  0  0  0
    7.9481   41.6536  134.0490 C   0  0  0  0  0  0  0  0  0  0  0  0
    7.4219   42.7907  133.3355 N   0  0  0  0  0  0  0  0  0  0  0  0
    8.0501   42.9927  132.5301 H   0  0  0  0  0  0  0  0  0  0  0  0
    7.3165   43.9485  134.1524 C   0  0  0  0  0  0  0  0  0  0  0  0
    7.7518   45.2451  133.5485 C   0  0  0  0  0  0  0  0  0  0  0  0
    8.4896   46.1519  134.4767 C   0  0  0  0  0  0  0  0  0  0  0  0
    8.3550   47.4700  134.0139 F   0  0  0  0  0  0  0  0  0  0  0  0
   11.9712   44.8643  128.5860 C   0  0  0  0  0  0  0  0  0  0  0  0
   12.3999   43.0899  130.1776 C   0  0  0  0  0  0  0  0  0  0  0  0
   12.9651   43.7936  128.9175 C   0  0  0  0  0  0  0  0  0  0  0  0
   14.2935   44.3032  129.3427 C   0  0  0  0  0  0  0  0  0  0  0  0
   14.4172   44.8915  130.6061 O   0  0  0  0  0  0  0  0  0  0  0  0
   15.3386   44.2523  128.6598 O   0  0  0  0  0  0  0  0  0  0  0  0
   13.6505   44.7800  131.2633 H   0  0  0  0  0  0  0  0  0  0  0  0
 34 35  1  0  0  0
 35 33  1  0  0  0
 33  1  1  0  0  0
  1  2  1  0  0  0
  2  3  1  0  0  0
  2  4  1  0  0  0
  4  5  1  0  0  0
  5  6  2  0  0  0
  6  7  1  0  0  0
  7  8  1  0  0  0
  8  9  2  0  0  0
  9 10  1  0  0  0
 10 11  2  0  0  0
 11 12  1  0  0  0
 12 13  2  0  0  0
  6 14  1  0  0  0
 14 16  1  0  0  0
 16 17  2  0  0  0
 17 18  1  0  0  0
 17 19  1  0  0  0
 19 20  2  0  0  0
 20 21  1  0  0  0
 21 24  1  0  0  0
 24 25  1  0  0  0
 25 26  1  0  0  0
 26 27  1  0  0  0
 27 29  1  0  0  0
 29 30  1  0  0  0
 30 31  1  0  0  0
 31 32  1  0  0  0
 21 22  2  0  0  0
 22 23  1  0  0  0
 35 36  1  0  0  0
 36 37  1  0  0  0
 36 38  2  0  0  0
 14  1  1  0  0  0
 22 16  1  0  0  0
 13  5  1  0  0  0
 13  8  1  0  0  0
  7 15  1  0  0  0
 27 28  1  0  0  0
 37 39  1  0  0  0
M  END
> <minimizedAffinity>
6.55981

> <CNNscore>
0.3017027676

> <CNNaffinity>
7.7164511681

> <CNN_VS>
2.3280746937

> <CNNaffinity_variance>
0.2214650661

$$$$
[H]OC(=O)[C@@]([H])(C([H])([H])[H])C([H])([H])N1[C@]([H])(c2c(F)c([H])c([H])c(OC([H])([H])C([H])([H])N([H])C([H])([H])C([H])([H])C([H])([H])F)c2F)c2c(c3c([H])c([H])c([H])c([H])c3n2[H])C([H])([H])[C@@]1([H])C([H])([H])[H]


 39 42  0  0  0  0  0  0  0  0999 V2000
    7.8057   46.6075  129.5072 N   0  0  0  0  0  0  0  0  0  0  0  0
    6.9053   46.3758  130.6031 C   0  0  0  0  0  0  0  0  0  0  0  0
    5.4689   46.6402  130.2637 C   0  0  0  0  0  0  0  0  0  0  0  0
    7.3468   47.2075  131.8193 C   0  0  0  0  0  0  0  0  0  0  0  0
    8.5998   46.5490  132.2375 C   0  0  0  0  0  0  0  0  0  0  0  0
    9.4699   46.1590  131.2741 C   0  0  0  0  0  0  0  0  0  0  0  0
   10.5140   45.5792  131.9008 N   0  0  0  0  0  0  0  0  0  0  0  0
   10.3078   45.6043  133.2282 C   0  0  0  0  0  0  0  0  0  0  0  0
   11.0285   45.1660  134.3262 C   0  0  0  0  0  0  0  0  0  0  0  0
   10.5860   45.3162  135.6324 C   0  0  0  0  0  0  0  0  0  0  0  0
    9.3692   45.9302  135.8654 C   0  0  0  0  0  0  0  0  0  0  0  0
    8.6481   46.3686  134.7819 C   0  0  0  0  0  0  0  0  0  0  0  0
    9.0969   46.2158  133.4701 C   0  0  0  0  0  0  0  0  0  0  0  0
    9.1569   46.4319  129.8438 C   0  0  0  0  0  0  0  0  0  0  0  0
   11.3505   45.1722  131.4446 H   0  0  0  0  0  0  0  0  0  0  0  0
    9.9090   45.4377  128.9834 C   0  0  0  0  0  0  0  0  0  0  0  0
   10.9127   45.7904  128.1245 C   0  0  0  0  0  0  0  0  0  0  0  0
   11.3274   47.0530  128.0260 F   0  0  0  0  0  0  0  0  0  0  0  0
   11.5491   44.8390  127.3279 C   0  0  0  0  0  0  0  0  0  0  0  0
   11.1955   43.5228  127.3766 C   0  0  0  0  0  0  0  0  0  0  0  0
   10.1634   43.1151  128.2511 C   0  0  0  0  0  0  0  0  0  0  0  0
    9.5640   44.1183  129.0244 C   0  0  0  0  0  0  0  0  0  0  0  0
    8.5781   43.6820  129.8554 F   0  0  0  0  0  0  0  0  0  0  0  0
    9.8281   41.8640  128.2921 O   0  0  0  0  0  0  0  0  0  0  0  0
    9.5394   40.6177  128.3662 C   0  0  0  0  0  0  0  0  0  0  0  0
   10.1064   39.6121  127.3674 C   0  0  0  0  0  0  0  0  0  0  0  0
   10.9821   40.2407  126.4099 N   0  0  0  0  0  0  0  0  0  0  0  0
   10.4101   40.8594  125.7982 H   0  0  0  0  0  0  0  0  0  0  0  0
   11.6803   39.2995  125.6065 C   0  0  0  0  0  0  0  0  0  0  0  0
   10.8563   38.2805  124.8868 C   0  0  0  0  0  0  0  0  0  0  0  0
   10.0514   38.8157  123.7493 C   0  0  0  0  0  0  0  0  0  0  0  0
    8.6962   38.7976  124.1139 F   0  0  0  0  0  0  0  0  0  0  0  0
    7.5629   47.8537  128.8596 C   0  0  0  0  0  0  0  0  0  0  0  0
    5.6114   49.2603  128.5789 C   0  0  0  0  0  0  0  0  0  0  0  0
    6.7270   48.8666  129.5804 C   0  0  0  0  0  0  0  0  0  0  0  0
    7.4291   50.1422  129.8724 C   0  0  0  0  0  0  0  0  0  0  0  0
    8.7282   50.0936  130.3901 O   0  0  0  0  0  0  0  0  0  0  0  0
    6.9559   51.2843  129.6923 O   0  0  0  0  0  0  0  0  0  0  0  0
    9.2188   49.2042  130.3694 H   0  0  0  0  0  0  0  0  0  0  0  0
 34 35  1  0  0  0
 35 33  1  0  0  0
 33  1  1  0  0  0
  1  2  1  0  0  0
  2  3  1  0  0  0
  2  4  1  0  0  0
  4  5  1  0  0  0
  5  6  2  0  0  0
  6  7  1  0  0  0
  7  8  1  0  0  0
  8  9  2  0  0  0
  9 10  1  0  0  0
 10 11  2  0  0  0
 11 12  1  0  0  0
 12 13  2  0  0  0
  6 14  1  0  0  0
 14 16  1  0  0  0
 16 17  2  0  0  0
 17 18  1  0  0  0
 17 19  1  0  0  0
 19 20  2  0  0  0
 20 21  1  0  0  0
 21 24  1  0  0  0
 24 25  1  0  0  0
 25 26  1  0  0  0
 26 27  1  0  0  0
 27 29  1  0  0  0
 29 30  1  0  0  0
 30 31  1  0  0  0
 31 32  1  0  0  0
 21 22  2  0  0  0
 22 23  1  0  0  0
 35 36  1  0  0  0
 36 37  1  0  0  0
 36 38  2  0  0  0
 14  1  1  0  0  0
 22 16  1  0  0  0
 13  5  1  0  0  0
 13  8  1  0  0  0
  7 15  1  0  0  0
 27 28  1  0  0  0
 37 39  1  0  0  0
M  END
> <minimizedAffinity>
10.17079

> <CNNscore>
0.2869471908

> <CNNaffinity>
7.6623139381

> <CNN_VS>
2.1986794472

> <CNNaffinity_variance>
1.0479141474

$$$$
[H]OC(=O)[C@@]([H])(C([H])([H])[H])C([H])([H])N1[C@]([H])(c2c(F)c([H])c([H])c(OC([H])([H])C([H])([H])N([H])C([H])([H])C([H])([H])C([H])([H])F)c2F)c2c(c3c([H])c([H])c([H])c([H])c3n2[H])C([H])([H])[C@@]1([H])C([H])([H])[H]


 39 42  0  0  0  0  0  0  0  0999 V2000
    7.7158   47.1727  129.2830 N   0  0  0  0  0  0  0  0  0  0  0  0
    6.7181   47.1564  130.3173 C   0  0  0  0  0  0  0  0  0  0  0  0
    5.3244   47.3714  129.8077 C   0  0  0  0  0  0  0  0  0  0  0  0
    7.0764   48.1914  131.3971 C   0  0  0  0  0  0  0  0  0  0  0  0
    8.2696   47.6055  132.0387 C   0  0  0  0  0  0  0  0  0  0  0  0
    9.2082   47.0354  131.2442 C   0  0  0  0  0  0  0  0  0  0  0  0
   10.1775   46.5676  132.0570 N   0  0  0  0  0  0  0  0  0  0  0  0
    9.8585   46.8378  133.3338 C   0  0  0  0  0  0  0  0  0  0  0  0
   10.4692   46.5994  134.5534 C   0  0  0  0  0  0  0  0  0  0  0  0
    9.9201   46.9915  135.7655 C   0  0  0  0  0  0  0  0  0  0  0  0
    8.7055   47.6523  135.7729 C   0  0  0  0  0  0  0  0  0  0  0  0
    8.0932   47.8936  134.5675 C   0  0  0  0  0  0  0  0  0  0  0  0
    8.6490   47.4977  133.3510 C   0  0  0  0  0  0  0  0  0  0  0  0
    9.0274   47.0454  129.7659 C   0  0  0  0  0  0  0  0  0  0  0  0
   11.0384   46.0739  131.7593 H   0  0  0  0  0  0  0  0  0  0  0  0
    9.8226   45.9015  129.1713 C   0  0  0  0  0  0  0  0  0  0  0  0
   10.4805   45.9812  127.9753 C   0  0  0  0  0  0  0  0  0  0  0  0
   10.4982   47.1111  127.2691 F   0  0  0  0  0  0  0  0  0  0  0  0
   11.1691   44.8855  127.4556 C   0  0  0  0  0  0  0  0  0  0  0  0
   11.2129   43.6956  128.1204 C   0  0  0  0  0  0  0  0  0  0  0  0
   10.5469   43.5702  129.3601 C   0  0  0  0  0  0  0  0  0  0  0  0
    9.8737   44.7067  129.8280 C   0  0  0  0  0  0  0  0  0  0  0  0
    9.2495   44.5438  131.0266 F   0  0  0  0  0  0  0  0  0  0  0  0
   10.5882   42.4369  129.9872 O   0  0  0  0  0  0  0  0  0  0  0  0
   10.5740   41.3168  130.6096 C   0  0  0  0  0  0  0  0  0  0  0  0
   11.1220   41.1917  132.0289 C   0  0  0  0  0  0  0  0  0  0  0  0
   11.9612   42.3098  132.3816 N   0  0  0  0  0  0  0  0  0  0  0  0
   12.7869   41.9492  132.9036 H   0  0  0  0  0  0  0  0  0  0  0  0
   11.2844   43.2723  133.1780 C   0  0  0  0  0  0  0  0  0  0  0  0
   10.0097   42.8380  133.8275 C   0  0  0  0  0  0  0  0  0  0  0  0
    8.7686   43.3573  133.1808 C   0  0  0  0  0  0  0  0  0  0  0  0
    7.7390   42.4238  133.3764 F   0  0  0  0  0  0  0  0  0  0  0  0
    7.5650   48.2821  128.4009 C   0  0  0  0  0  0  0  0  0  0  0  0
    8.9235   49.2931  130.1323 C   0  0  0  0  0  0  0  0  0  0  0  0
    8.1719   49.5893  128.8095 C   0  0  0  0  0  0  0  0  0  0  0  0
    7.1824   50.6356  129.1723 C   0  0  0  0  0  0  0  0  0  0  0  0
    6.9647   51.6947  128.2843 O   0  0  0  0  0  0  0  0  0  0  0  0
    6.5075   50.6574  130.2235 O   0  0  0  0  0  0  0  0  0  0  0  0
    7.3413   51.6162  127.3440 H   0  0  0  0  0  0  0  0  0  0  0  0
 34 35  1  0  0  0
 35 33  1  0  0  0
 33  1  1  0  0  0
  1  2  1  0  0  0
  2  3  1  0  0  0
  2  4  1  0  0  0
  4  5  1  0  0  0
  5  6  2  0  0  0
  6  7  1  0  0  0
  7  8  1  0  0  0
  8  9  2  0  0  0
  9 10  1  0  0  0
 10 11  2  0  0  0
 11 12  1  0  0  0
 12 13  2  0  0  0
  6 14  1  0  0  0
 14 16  1  0  0  0
 16 17  2  0  0  0
 17 18  1  0  0  0
 17 19  1  0  0  0
 19 20  2  0  0  0
 20 21  1  0  0  0
 21 24  1  0  0  0
 24 25  1  0  0  0
 25 26  1  0  0  0
 26 27  1  0  0  0
 27 29  1  0  0  0
 29 30  1  0  0  0
 30 31  1  0  0  0
 31 32  1  0  0  0
 21 22  2  0  0  0
 22 23  1  0  0  0
 35 36  1  0  0  0
 36 37  1  0  0  0
 36 38  2  0  0  0
 14  1  1  0  0  0
 22 16  1  0  0  0
 13  5  1  0  0  0
 13  8  1  0  0  0
  7 15  1  0  0  0
 27 28  1  0  0  0
 37 39  1  0  0  0
M  END
> <minimizedAffinity>
0.52054

> <CNNscore>
0.2790700197

> <CNNaffinity>
7.6295151711

> <CNN_VS>
2.1291689873

> <CNNaffinity_variance>
0.2516331971

$$$$
[H]c1c(OC([H])([H])C([H])([H])N([H])C([H])([H])C([H])([H])C([H])([H])F)nc(OC([H])([H])[H])c([C@]2([H])c3c(c4c([H])c([H])c([H])c([H])c4n3[H])C([H])([H])[C@@]([H])(C([H])([H])[H])N2C([H])([H])C(F)(F)C([H])([H])[H])c1[H]


 37 40  0  0  0  0  0  0  0  0999 V2000
    7.8954   45.2892  130.5825 C   0  0  0  0  0  0  0  0  0  0  0  0
    8.5707   44.5707  129.5338 N   0  0  0  0  0  0  0  0  0  0  0  0
    9.1731   43.3730  129.9802 C   0  0  0  0  0  0  0  0  0  0  0  0
    8.1681   42.4767  130.7148 C   0  0  0  0  0  0  0  0  0  0  0  0
   10.3088   43.5951  130.9583 C   0  0  0  0  0  0  0  0  0  0  0  0
    9.6845   44.3813  132.0881 C   0  0  0  0  0  0  0  0  0  0  0  0
    8.5676   45.1627  131.9026 C   0  0  0  0  0  0  0  0  0  0  0  0
    8.2618   45.7370  133.0881 N   0  0  0  0  0  0  0  0  0  0  0  0
    9.1463   45.3534  134.0434 C   0  0  0  0  0  0  0  0  0  0  0  0
    9.3028   45.6294  135.3825 C   0  0  0  0  0  0  0  0  0  0  0  0
   10.3231   45.0854  136.1280 C   0  0  0  0  0  0  0  0  0  0  0  0
   11.1908   44.2416  135.4674 C   0  0  0  0  0  0  0  0  0  0  0  0
   11.0727   43.9377  134.1299 C   0  0  0  0  0  0  0  0  0  0  0  0
   10.0262   44.5109  133.4115 C   0  0  0  0  0  0  0  0  0  0  0  0
    7.4700   46.3853  133.2805 H   0  0  0  0  0  0  0  0  0  0  0  0
    8.3205   47.7352  130.4516 C   0  0  0  0  0  0  0  0  0  0  0  0
    7.9160   48.9544  130.0800 N   0  0  0  0  0  0  0  0  0  0  0  0
    6.7370   49.2380  129.4964 C   0  0  0  0  0  0  0  0  0  0  0  0
    5.8903   48.1442  129.2747 C   0  0  0  0  0  0  0  0  0  0  0  0
    6.2770   46.8883  129.6435 C   0  0  0  0  0  0  0  0  0  0  0  0
    7.5021   46.6556  130.2398 C   0  0  0  0  0  0  0  0  0  0  0  0
   10.1818   48.5081  131.8920 C   0  0  0  0  0  0  0  0  0  0  0  0
    9.5514   47.5784  131.0411 O   0  0  0  0  0  0  0  0  0  0  0  0
    6.3366   50.4987  129.1199 O   0  0  0  0  0  0  0  0  0  0  0  0
    7.0540   51.6816  129.1155 C   0  0  0  0  0  0  0  0  0  0  0  0
    7.0762   52.3222  127.7258 C   0  0  0  0  0  0  0  0  0  0  0  0
    7.0662   53.7535  127.8293 N   0  0  0  0  0  0  0  0  0  0  0  0
    7.2707   54.0229  128.8100 H   0  0  0  0  0  0  0  0  0  0  0  0
    7.7971   54.4585  126.8354 C   0  0  0  0  0  0  0  0  0  0  0  0
    7.0172   54.5647  125.5242 C   0  0  0  0  0  0  0  0  0  0  0  0
    8.0273   54.5480  124.4033 C   0  0  0  0  0  0  0  0  0  0  0  0
    9.2661   54.2856  124.9818 F   0  0  0  0  0  0  0  0  0  0  0  0
    9.2910   45.3739  128.6410 C   0  0  0  0  0  0  0  0  0  0  0  0
   10.4740   44.8292  127.9400 C   0  0  0  0  0  0  0  0  0  0  0  0
   11.7317   44.9260  128.8480 C   0  0  0  0  0  0  0  0  0  0  0  0
   10.8117   45.5336  126.7995 F   0  0  0  0  0  0  0  0  0  0  0  0
   10.3922   43.4669  127.6939 F   0  0  0  0  0  0  0  0  0  0  0  0
 22 23  1  0  0  0
 23 16  1  0  0  0
 16 17  2  0  0  0
 17 18  1  0  0  0
 18 24  1  0  0  0
 24 25  1  0  0  0
 25 26  1  0  0  0
 26 27  1  0  0  0
 27 29  1  0  0  0
 29 30  1  0  0  0
 30 31  1  0  0  0
 31 32  1  0  0  0
 18 19  2  0  0  0
 19 20  1  0  0  0
 20 21  2  0  0  0
 21  1  1  0  0  0
  1  2  1  0  0  0
  2 33  1  0  0  0
 33 34  1  0  0  0
 34 35  1  0  0  0
 34 36  1  0  0  0
 34 37  1  0  0  0
  2  3  1  0  0  0
  3  4  1  0  0  0
  3  5  1  0  0  0
  5  6  1  0  0  0
  6  7  2  0  0  0
  7  8  1  0  0  0
  8  9  1  0  0  0
  9 10  2  0  0  0
 10 11  1  0  0  0
 11 12  2  0  0  0
 12 13  1  0  0  0
 13 14  2  0  0  0
 21 16  1  0  0  0
  7  1  1  0  0  0
 14  9  1  0  0  0
 14  6  1  0  0  0
 27 28  1  0  0  0
  8 15  1  0  0  0
M  END
> <minimizedAffinity>
-5.43300

> <CNNscore>
0.4536411762

> <CNNaffinity>
7.6285734177

> <CNN_VS>
3.4606349468

> <CNNaffinity_variance>
0.1042886153

$$$$
[H]c1c(OC([H])([H])C([H])([H])N([H])C([H])([H])C([H])([H])C([H])([H])F)nc(OC([H])([H])[H])c([C@]2([H])c3c(c4c([H])c([H])c([H])c([H])c4n3[H])C([H])([H])[C@@]([H])(C([H])([H])[H])N2C([H])([H])C(F)(F)C([H])([H])[H])c1[H]


 37 40  0  0  0  0  0  0  0  0999 V2000
   10.4715   45.7401  132.3777 C   0  0  0  0  0  0  0  0  0  0  0  0
   10.3765   44.9421  133.5720 N   0  0  0  0  0  0  0  0  0  0  0  0
   11.6284   44.4674  134.0236 C   0  0  0  0  0  0  0  0  0  0  0  0
   12.6365   45.6110  134.1937 C   0  0  0  0  0  0  0  0  0  0  0  0
   12.2834   43.4880  133.0710 C   0  0  0  0  0  0  0  0  0  0  0  0
   12.3911   44.2452  131.7673 C   0  0  0  0  0  0  0  0  0  0  0  0
   11.5466   45.2858  131.4567 C   0  0  0  0  0  0  0  0  0  0  0  0
   11.8890   45.7462  130.2322 N   0  0  0  0  0  0  0  0  0  0  0  0
   12.9333   45.0370  129.7334 C   0  0  0  0  0  0  0  0  0  0  0  0
   13.6589   45.0775  128.5648 C   0  0  0  0  0  0  0  0  0  0  0  0
   14.6963   44.2087  128.3164 C   0  0  0  0  0  0  0  0  0  0  0  0
   14.9805   43.2860  129.3010 C   0  0  0  0  0  0  0  0  0  0  0  0
   14.2814   43.2090  130.4845 C   0  0  0  0  0  0  0  0  0  0  0  0
   13.2376   44.1067  130.6953 C   0  0  0  0  0  0  0  0  0  0  0  0
   11.4407   46.5299  129.7134 H   0  0  0  0  0  0  0  0  0  0  0  0
    8.3197   46.9685  132.1733 C   0  0  0  0  0  0  0  0  0  0  0  0
    7.1869   47.1997  131.5013 N   0  0  0  0  0  0  0  0  0  0  0  0
    6.8060   46.5644  130.3778 C   0  0  0  0  0  0  0  0  0  0  0  0
    7.6916   45.5890  129.9016 C   0  0  0  0  0  0  0  0  0  0  0  0
    8.8553   45.3320  130.5668 C   0  0  0  0  0  0  0  0  0  0  0  0
    9.1960   46.0172  131.7178 C   0  0  0  0  0  0  0  0  0  0  0  0
    8.4401   47.2244  134.6343 C   0  0  0  0  0  0  0  0  0  0  0  0
    8.5926   47.6869  133.3119 O   0  0  0  0  0  0  0  0  0  0  0  0
    5.6367   46.8150  129.6985 O   0  0  0  0  0  0  0  0  0  0  0  0
    5.3420   47.8294  128.8051 C   0  0  0  0  0  0  0  0  0  0  0  0
    5.0574   49.1495  129.5251 C   0  0  0  0  0  0  0  0  0  0  0  0
    6.0613   50.1247  129.2073 N   0  0  0  0  0  0  0  0  0  0  0  0
    5.6027   50.9616  128.8008 H   0  0  0  0  0  0  0  0  0  0  0  0
    7.0243   50.3847  130.2193 C   0  0  0  0  0  0  0  0  0  0  0  0
    8.3934   49.8030  129.8643 C   0  0  0  0  0  0  0  0  0  0  0  0
    9.2993   50.0443  131.0468 C   0  0  0  0  0  0  0  0  0  0  0  0
   10.4019   49.2098  130.8858 F   0  0  0  0  0  0  0  0  0  0  0  0
    9.2900   44.0591  133.6036 C   0  0  0  0  0  0  0  0  0  0  0  0
    9.3791   42.7471  132.9266 C   0  0  0  0  0  0  0  0  0  0  0  0
    7.9626   42.2499  132.5241 C   0  0  0  0  0  0  0  0  0  0  0  0
    9.8852   41.7443  133.7325 F   0  0  0  0  0  0  0  0  0  0  0  0
   10.0319   42.7989  131.7043 F   0  0  0  0  0  0  0  0  0  0  0  0
 22 23  1  0  0  0
 23 16  1  0  0  0
 16 17  2  0  0  0
 17 18  1  0  0  0
 18 24  1  0  0  0
 24 25  1  0  0  0
 25 26  1  0  0  0
 26 27  1  0  0  0
 27 29  1  0  0  0
 29 30  1  0  0  0
 30 31  1  0  0  0
 31 32  1  0  0  0
 18 19  2  0  0  0
 19 20  1  0  0  0
 20 21  2  0  0  0
 21  1  1  0  0  0
  1  2  1  0  0  0
  2 33  1  0  0  0
 33 34  1  0  0  0
 34 35  1  0  0  0
 34 36  1  0  0  0
 34 37  1  0  0  0
  2  3  1  0  0  0
  3  4  1  0  0  0
  3  5  1  0  0  0
  5  6  1  0  0  0
  6  7  2  0  0  0
  7  8  1  0  0  0
  8  9  1  0  0  0
  9 10  2  0  0  0
 10 11  1  0  0  0
 11 12  2  0  0  0
 12 13  1  0  0  0
 13 14  2  0  0  0
 21 16  1  0  0  0
  7  1  1  0  0  0
 14  9  1  0  0  0
 14  6  1  0  0  0
 27 28  1  0  0  0
  8 15  1  0  0  0
M  END
> <minimizedAffinity>
2.67978

> <CNNscore>
0.4498327672

> <CNNaffinity>
7.9656972885

> <CNN_VS>
3.5832316875

> <CNNaffinity_variance>
0.1764439791

$$$$
[H]c1c(OC([H])([H])C([H])([H])N([H])C([H])([H])C([H])([H])C([H])([H])F)nc(OC([H])([H])[H])c([C@]2([H])c3c(c4c([H])c([H])c([H])c([H])c4n3[H])C([H])([H])[C@@]([H])(C([H])([H])[H])N2C([H])([H])C(F)(F)C([H])([H])[H])c1[H]


 37 40  0  0  0  0  0  0  0  0999 V2000
   10.6849   45.4754  131.1108 C   0  0  0  0  0  0  0  0  0  0  0  0
   12.0411   45.5601  131.5862 N   0  0  0  0  0  0  0  0  0  0  0  0
   12.5787   44.3070  131.9570 C   0  0  0  0  0  0  0  0  0  0  0  0
   12.4457   43.2798  130.8255 C   0  0  0  0  0  0  0  0  0  0  0  0
   11.8896   43.6834  133.1537 C   0  0  0  0  0  0  0  0  0  0  0  0
   10.4376   43.5886  132.7452 C   0  0  0  0  0  0  0  0  0  0  0  0
    9.8904   44.4237  131.7987 C   0  0  0  0  0  0  0  0  0  0  0  0
    8.5853   44.0970  131.6624 N   0  0  0  0  0  0  0  0  0  0  0  0
    8.2634   43.0721  132.4920 C   0  0  0  0  0  0  0  0  0  0  0  0
    7.1112   42.3673  132.7556 C   0  0  0  0  0  0  0  0  0  0  0  0
    7.0715   41.3471  133.6776 C   0  0  0  0  0  0  0  0  0  0  0  0
    8.2501   41.0582  134.3326 C   0  0  0  0  0  0  0  0  0  0  0  0
    9.4253   41.7368  134.1012 C   0  0  0  0  0  0  0  0  0  0  0  0
    9.4216   42.7637  133.1603 C   0  0  0  0  0  0  0  0  0  0  0  0
    7.8947   44.5435  131.0235 H   0  0  0  0  0  0  0  0  0  0  0  0
    9.8621   47.4094  129.7831 C   0  0  0  0  0  0  0  0  0  0  0  0
    9.1856   48.5617  129.7275 N   0  0  0  0  0  0  0  0  0  0  0  0
    8.6002   49.1707  130.7750 C   0  0  0  0  0  0  0  0  0  0  0  0
    8.7289   48.5170  132.0074 C   0  0  0  0  0  0  0  0  0  0  0  0
    9.4135   47.3395  132.0939 C   0  0  0  0  0  0  0  0  0  0  0  0
    9.9950   46.7586  130.9826 C   0  0  0  0  0  0  0  0  0  0  0  0
   10.2900   45.5605  128.1910 C   0  0  0  0  0  0  0  0  0  0  0  0
   10.4156   46.8911  128.6377 O   0  0  0  0  0  0  0  0  0  0  0  0
    7.9074   50.3565  130.7002 O   0  0  0  0  0  0  0  0  0  0  0  0
    6.9992   50.7825  129.7476 C   0  0  0  0  0  0  0  0  0  0  0  0
    5.9574   49.7043  129.4402 C   0  0  0  0  0  0  0  0  0  0  0  0
    6.4351   48.8172  128.4182 N   0  0  0  0  0  0  0  0  0  0  0  0
    7.4720   48.8434  128.4056 H   0  0  0  0  0  0  0  0  0  0  0  0
    5.8549   47.5204  128.3932 C   0  0  0  0  0  0  0  0  0  0  0  0
    5.3557   47.0941  129.7745 C   0  0  0  0  0  0  0  0  0  0  0  0
    6.4237   46.2186  130.3827 C   0  0  0  0  0  0  0  0  0  0  0  0
    7.3078   45.8917  129.3582 F   0  0  0  0  0  0  0  0  0  0  0  0
   12.3060   46.6582  132.4138 C   0  0  0  0  0  0  0  0  0  0  0  0
   11.8593   46.6506  133.8238 C   0  0  0  0  0  0  0  0  0  0  0  0
   13.0220   46.2093  134.7561 C   0  0  0  0  0  0  0  0  0  0  0  0
   10.8463   45.7444  134.0762 F   0  0  0  0  0  0  0  0  0  0  0  0
   11.5512   47.9110  134.3130 F   0  0  0  0  0  0  0  0  0  0  0  0
 22 23  1  0  0  0
 23 16  1  0  0  0
 16 17  2  0  0  0
 17 18  1  0  0  0
 18 24  1  0  0  0
 24 25  1  0  0  0
 25 26  1  0  0  0
 26 27  1  0  0  0
 27 29  1  0  0  0
 29 30  1  0  0  0
 30 31  1  0  0  0
 31 32  1  0  0  0
 18 19  2  0  0  0
 19 20  1  0  0  0
 20 21  2  0  0  0
 21  1  1  0  0  0
  1  2  1  0  0  0
  2 33  1  0  0  0
 33 34  1  0  0  0
 34 35  1  0  0  0
 34 36  1  0  0  0
 34 37  1  0  0  0
  2  3  1  0  0  0
  3  4  1  0  0  0
  3  5  1  0  0  0
  5  6  1  0  0  0
  6  7  2  0  0  0
  7  8  1  0  0  0
  8  9  1  0  0  0
  9 10  2  0  0  0
 10 11  1  0  0  0
 11 12  2  0  0  0
 12 13  1  0  0  0
 13 14  2  0  0  0
 21 16  1  0  0  0
  7  1  1  0  0  0
 14  9  1  0  0  0
 14  6  1  0  0  0
 27 28  1  0  0  0
  8 15  1  0  0  0
M  END
> <minimizedAffinity>
3.41098

> <CNNscore>
0.4322679639

> <CNNaffinity>
7.8852005005

> <CNN_VS>
3.4085195065

> <CNNaffinity_variance>
0.2755797803

$$$$
[H]c1c(OC([H])([H])C([H])([H])N([H])C([H])([H])C([H])([H])C([H])([H])F)nc(OC([H])([H])[H])c([C@]2([H])c3c(c4c([H])c([H])c([H])c([H])c4n3[H])C([H])([H])[C@@]([H])(C([H])([H])[H])N2C([H])([H])C(F)(F)C([H])([H])[H])c1[H]


 37 40  0  0  0  0  0  0  0  0999 V2000
   10.4112   46.4844  131.7791 C   0  0  0  0  0  0  0  0  0  0  0  0
   10.3466   46.0451  133.1484 N   0  0  0  0  0  0  0  0  0  0  0  0
   10.9344   44.7765  133.3528 C   0  0  0  0  0  0  0  0  0  0  0  0
   12.3710   44.7284  132.8172 C   0  0  0  0  0  0  0  0  0  0  0  0
   10.2023   43.6506  132.6514 C   0  0  0  0  0  0  0  0  0  0  0  0
   10.1968   44.0544  131.1950 C   0  0  0  0  0  0  0  0  0  0  0  0
   10.2936   45.3695  130.8027 C   0  0  0  0  0  0  0  0  0  0  0  0
   10.2527   45.4031  129.4514 N   0  0  0  0  0  0  0  0  0  0  0  0
   10.1324   44.1480  128.9489 C   0  0  0  0  0  0  0  0  0  0  0  0
   10.0452   43.6185  127.6817 C   0  0  0  0  0  0  0  0  0  0  0  0
    9.9241   42.2662  127.4598 C   0  0  0  0  0  0  0  0  0  0  0  0
    9.8944   41.4558  128.5751 C   0  0  0  0  0  0  0  0  0  0  0  0
    9.9782   41.9416  129.8605 C   0  0  0  0  0  0  0  0  0  0  0  0
   10.0986   43.3174  130.0408 C   0  0  0  0  0  0  0  0  0  0  0  0
   10.3037   46.2498  128.8474 H   0  0  0  0  0  0  0  0  0  0  0  0
    8.3134   47.5309  130.9516 C   0  0  0  0  0  0  0  0  0  0  0  0
    7.5908   48.6324  130.7215 N   0  0  0  0  0  0  0  0  0  0  0  0
    8.0010   49.8933  130.9513 C   0  0  0  0  0  0  0  0  0  0  0  0
    9.2939   50.0257  131.4743 C   0  0  0  0  0  0  0  0  0  0  0  0
   10.0541   48.9190  131.7193 C   0  0  0  0  0  0  0  0  0  0  0  0
    9.5800   47.6459  131.4641 C   0  0  0  0  0  0  0  0  0  0  0  0
    6.7548   46.0349  129.7395 C   0  0  0  0  0  0  0  0  0  0  0  0
    7.7783   46.2970  130.6720 O   0  0  0  0  0  0  0  0  0  0  0  0
    7.2442   51.0159  130.7092 O   0  0  0  0  0  0  0  0  0  0  0  0
    7.4506   52.0312  129.7924 C   0  0  0  0  0  0  0  0  0  0  0  0
    6.6478   51.8039  128.5095 C   0  0  0  0  0  0  0  0  0  0  0  0
    7.2898   52.4375  127.3932 N   0  0  0  0  0  0  0  0  0  0  0  0
    7.3132   51.7743  126.5958 H   0  0  0  0  0  0  0  0  0  0  0  0
    6.8518   53.7531  127.0828 C   0  0  0  0  0  0  0  0  0  0  0  0
    8.0154   54.6588  126.6771 C   0  0  0  0  0  0  0  0  0  0  0  0
    8.0749   54.6579  125.1693 C   0  0  0  0  0  0  0  0  0  0  0  0
    9.4039   54.4356  124.8192 F   0  0  0  0  0  0  0  0  0  0  0  0
    9.1359   46.3190  133.7967 C   0  0  0  0  0  0  0  0  0  0  0  0
    9.1233   47.1218  135.0388 C   0  0  0  0  0  0  0  0  0  0  0  0
   10.1628   48.2737  134.9478 C   0  0  0  0  0  0  0  0  0  0  0  0
    9.4935   46.4056  136.1618 F   0  0  0  0  0  0  0  0  0  0  0  0
    7.9367   47.8106  135.2401 F   0  0  0  0  0  0  0  0  0  0  0  0
 22 23  1  0  0  0
 23 16  1  0  0  0
 16 17  2  0  0  0
 17 18  1  0  0  0
 18 24  1  0  0  0
 24 25  1  0  0  0
 25 26  1  0  0  0
 26 27  1  0  0  0
 27 29  1  0  0  0
 29 30  1  0  0  0
 30 31  1  0  0  0
 31 32  1  0  0  0
 18 19  2  0  0  0
 19 20  1  0  0  0
 20 21  2  0  0  0
 21  1  1  0  0  0
  1  2  1  0  0  0
  2 33  1  0  0  0
 33 34  1  0  0  0
 34 35  1  0  0  0
 34 36  1  0  0  0
 34 37  1  0  0  0
  2  3  1  0  0  0
  3  4  1  0  0  0
  3  5  1  0  0  0
  5  6  1  0  0  0
  6  7  2  0  0  0
  7  8  1  0  0  0
  8  9  1  0  0  0
  9 10  2  0  0  0
 10 11  1  0  0  0
 11 12  2  0  0  0
 12 13  1  0  0  0
 13 14  2  0  0  0
 21 16  1  0  0  0
  7  1  1  0  0  0
 14  9  1  0  0  0
 14  6  1  0  0  0
 27 28  1  0  0  0
  8 15  1  0  0  0
M  END
> <minimizedAffinity>
1.03374

> <CNNscore>
0.4199027419

> <CNNaffinity>
7.7554063797

> <CNN_VS>
3.2565164566

> <CNNaffinity_variance>
0.8521644473

$$$$
[H]c1c(OC([H])([H])C([H])([H])N([H])C([H])([H])C([H])([H])C([H])([H])F)nc(OC([H])([H])[H])c([C@]2([H])c3c(c4c([H])c([H])c([H])c([H])c4n3[H])C([H])([H])[C@@]([H])(C([H])([H])[H])N2C([H])([H])C(F)(F)C([H])([H])[H])c1[H]


 37 40  0  0  0  0  0  0  0  0999 V2000
    9.0769   45.8126  132.4169 C   0  0  0  0  0  0  0  0  0  0  0  0
   10.1466   46.2376  133.2813 N   0  0  0  0  0  0  0  0  0  0  0  0
    9.9578   47.5385  133.7998 C   0  0  0  0  0  0  0  0  0  0  0  0
    8.5938   47.6784  134.4874 C   0  0  0  0  0  0  0  0  0  0  0  0
    9.9914   48.6222  132.7414 C   0  0  0  0  0  0  0  0  0  0  0  0
    8.9069   48.2289  131.7649 C   0  0  0  0  0  0  0  0  0  0  0  0
    8.4918   46.9250  131.6227 C   0  0  0  0  0  0  0  0  0  0  0  0
    7.5259   46.8983  130.6767 N   0  0  0  0  0  0  0  0  0  0  0  0
    7.2970   48.1471  130.1967 C   0  0  0  0  0  0  0  0  0  0  0  0
    6.4505   48.6790  129.2510 C   0  0  0  0  0  0  0  0  0  0  0  0
    6.4328   50.0228  128.9570 C   0  0  0  0  0  0  0  0  0  0  0  0
    7.3097   50.8221  129.6596 C   0  0  0  0  0  0  0  0  0  0  0  0
    8.1740   50.3334  130.6134 C   0  0  0  0  0  0  0  0  0  0  0  0
    8.1605   48.9664  130.8796 C   0  0  0  0  0  0  0  0  0  0  0  0
    7.0082   46.0606  130.3382 H   0  0  0  0  0  0  0  0  0  0  0  0
    9.8813   44.6440  130.3753 C   0  0  0  0  0  0  0  0  0  0  0  0
   10.1475   43.5011  129.7340 N   0  0  0  0  0  0  0  0  0  0  0  0
    9.9394   42.2664  130.2271 C   0  0  0  0  0  0  0  0  0  0  0  0
    9.4003   42.2111  131.5189 C   0  0  0  0  0  0  0  0  0  0  0  0
    9.1189   43.3615  132.1974 C   0  0  0  0  0  0  0  0  0  0  0  0
    9.3542   44.6045  131.6405 C   0  0  0  0  0  0  0  0  0  0  0  0
   10.6226   46.0092  128.4457 C   0  0  0  0  0  0  0  0  0  0  0  0
   10.1394   45.8443  129.7592 O   0  0  0  0  0  0  0  0  0  0  0  0
   10.2194   41.1004  129.5536 O   0  0  0  0  0  0  0  0  0  0  0  0
    9.3599   40.2436  128.8896 C   0  0  0  0  0  0  0  0  0  0  0  0
   10.1174   39.1017  128.2081 C   0  0  0  0  0  0  0  0  0  0  0  0
   10.4374   39.4464  126.8522 N   0  0  0  0  0  0  0  0  0  0  0  0
   10.3814   40.4764  126.7432 H   0  0  0  0  0  0  0  0  0  0  0  0
   11.5991   38.8352  126.3082 C   0  0  0  0  0  0  0  0  0  0  0  0
   11.9717   39.4306  124.9497 C   0  0  0  0  0  0  0  0  0  0  0  0
   13.4514   39.7248  124.9837 C   0  0  0  0  0  0  0  0  0  0  0  0
   13.6000   41.0758  124.6824 F   0  0  0  0  0  0  0  0  0  0  0  0
   11.4298   45.8854  132.8449 C   0  0  0  0  0  0  0  0  0  0  0  0
   12.2347   44.9115  133.6138 C   0  0  0  0  0  0  0  0  0  0  0  0
   11.3362   44.1489  134.6271 C   0  0  0  0  0  0  0  0  0  0  0  0
   13.2160   45.4988  134.3905 F   0  0  0  0  0  0  0  0  0  0  0  0
   12.7448   43.8812  132.8384 F   0  0  0  0  0  0  0  0  0  0  0  0
 22 23  1  0  0  0
 23 16  1  0  0  0
 16 17  2  0  0  0
 17 18  1  0  0  0
 18 24  1  0  0  0
 24 25  1  0  0  0
 25 26  1  0  0  0
 26 27  1  0  0  0
 27 29  1  0  0  0
 29 30  1  0  0  0
 30 31  1  0  0  0
 31 32  1  0  0  0
 18 19  2  0  0  0
 19 20  1  0  0  0
 20 21  2  0  0  0
 21  1  1  0  0  0
  1  2  1  0  0  0
  2 33  1  0  0  0
 33 34  1  0  0  0
 34 35  1  0  0  0
 34 36  1  0  0  0
 34 37  1  0  0  0
  2  3  1  0  0  0
  3  4  1  0  0  0
  3  5  1  0  0  0
  5  6  1  0  0  0
  6  7  2  0  0  0
  7  8  1  0  0  0
  8  9  1  0  0  0
  9 10  2  0  0  0
 10 11  1  0  0  0
 11 12  2  0  0  0
 12 13  1  0  0  0
 13 14  2  0  0  0
 21 16  1  0  0  0
  7  1  1  0  0  0
 14  9  1  0  0  0
 14  6  1  0  0  0
 27 28  1  0  0  0
  8 15  1  0  0  0
M  END
> <minimizedAffinity>
6.28959

> <CNNscore>
0.4165554941

> <CNNaffinity>
7.9991989136

> <CNN_VS>
3.3321101665

> <CNNaffinity_variance>
0.5575196743

$$$$
[H]c1c(OC([H])([H])C([H])([H])N([H])C([H])([H])C([H])([H])C([H])([H])F)nc(OC([H])([H])[H])c([C@]2([H])c3c(c4c([H])c([H])c([H])c([H])c4n3[H])C([H])([H])[C@@]([H])(C([H])([H])[H])N2C([H])([H])C(F)(F)C([H])([H])[H])c1[H]


 37 40  0  0  0  0  0  0  0  0999 V2000
   10.3012   44.1550  131.5399 C   0  0  0  0  0  0  0  0  0  0  0  0
    9.6397   42.9241  131.8855 N   0  0  0  0  0  0  0  0  0  0  0  0
    9.7845   41.9207  130.9012 C   0  0  0  0  0  0  0  0  0  0  0  0
   11.2590   41.6840  130.5507 C   0  0  0  0  0  0  0  0  0  0  0  0
    9.1050   42.2575  129.5896 C   0  0  0  0  0  0  0  0  0  0  0  0
    9.7262   43.5697  129.1695 C   0  0  0  0  0  0  0  0  0  0  0  0
   10.2767   44.4407  130.0811 C   0  0  0  0  0  0  0  0  0  0  0  0
   10.7376   45.5152  129.4017 N   0  0  0  0  0  0  0  0  0  0  0  0
   10.5048   45.3718  128.0722 C   0  0  0  0  0  0  0  0  0  0  0  0
   10.7561   46.1402  126.9585 C   0  0  0  0  0  0  0  0  0  0  0  0
   10.3971   45.7358  125.6936 C   0  0  0  0  0  0  0  0  0  0  0  0
    9.7684   44.5129  125.5895 C   0  0  0  0  0  0  0  0  0  0  0  0
    9.4968   43.7117  126.6755 C   0  0  0  0  0  0  0  0  0  0  0  0
    9.8760   44.1594  127.9387 C   0  0  0  0  0  0  0  0  0  0  0  0
   11.2091   46.3517  129.8045 H   0  0  0  0  0  0  0  0  0  0  0  0
   10.8255   45.8486  133.2828 C   0  0  0  0  0  0  0  0  0  0  0  0
   10.4567   46.9200  133.9930 N   0  0  0  0  0  0  0  0  0  0  0  0
    9.2639   47.5369  133.9065 C   0  0  0  0  0  0  0  0  0  0  0  0
    8.3604   46.9865  132.9882 C   0  0  0  0  0  0  0  0  0  0  0  0
    8.7098   45.8933  132.2494 C   0  0  0  0  0  0  0  0  0  0  0  0
    9.9515   45.3002  132.3798 C   0  0  0  0  0  0  0  0  0  0  0  0
   12.3631   44.1016  134.1315 C   0  0  0  0  0  0  0  0  0  0  0  0
   12.0759   45.3101  133.4659 O   0  0  0  0  0  0  0  0  0  0  0  0
    8.9007   48.6390  134.6448 O   0  0  0  0  0  0  0  0  0  0  0  0
    8.7186   49.9477  134.2347 C   0  0  0  0  0  0  0  0  0  0  0  0
    9.7586   50.3611  133.1908 C   0  0  0  0  0  0  0  0  0  0  0  0
    9.6202   49.5719  132.0001 N   0  0  0  0  0  0  0  0  0  0  0  0
    9.3129   48.6163  132.2618 H   0  0  0  0  0  0  0  0  0  0  0  0
    8.9052   50.1735  130.9296 C   0  0  0  0  0  0  0  0  0  0  0  0
    8.3067   49.1283  129.9872 C   0  0  0  0  0  0  0  0  0  0  0  0
    6.8720   49.5240  129.7376 C   0  0  0  0  0  0  0  0  0  0  0  0
    6.4871   50.3341  130.8024 F   0  0  0  0  0  0  0  0  0  0  0  0
    8.3828   43.0803  132.4829 C   0  0  0  0  0  0  0  0  0  0  0  0
    8.1792   42.6962  133.8966 C   0  0  0  0  0  0  0  0  0  0  0  0
    7.0581   41.6257  134.0092 C   0  0  0  0  0  0  0  0  0  0  0  0
    7.7473   43.7394  134.6944 F   0  0  0  0  0  0  0  0  0  0  0  0
    9.2678   42.0429  134.4543 F   0  0  0  0  0  0  0  0  0  0  0  0
 22 23  1  0  0  0
 23 16  1  0  0  0
 16 17  2  0  0  0
 17 18  1  0  0  0
 18 24  1  0  0  0
 24 25  1  0  0  0
 25 26  1  0  0  0
 26 27  1  0  0  0
 27 29  1  0  0  0
 29 30  1  0  0  0
 30 31  1  0  0  0
 31 32  1  0  0  0
 18 19  2  0  0  0
 19 20  1  0  0  0
 20 21  2  0  0  0
 21  1  1  0  0  0
  1  2  1  0  0  0
  2 33  1  0  0  0
 33 34  1  0  0  0
 34 35  1  0  0  0
 34 36  1  0  0  0
 34 37  1  0  0  0
  2  3  1  0  0  0
  3  4  1  0  0  0
  3  5  1  0  0  0
  5  6  1  0  0  0
  6  7  2  0  0  0
  7  8  1  0  0  0
  8  9  1  0  0  0
  9 10  2  0  0  0
 10 11  1  0  0  0
 11 12  2  0  0  0
 12 13  1  0  0  0
 13 14  2  0  0  0
 21 16  1  0  0  0
  7  1  1  0  0  0
 14  9  1  0  0  0
 14  6  1  0  0  0
 27 28  1  0  0  0
  8 15  1  0  0  0
M  END
> <minimizedAffinity>
12.31297

> <CNNscore>
0.3761589825

> <CNNaffinity>
7.6055626869

> <CNN_VS>
2.8609006405

> <CNNaffinity_variance>
0.5876237750

$$$$
[H]c1c(OC([H])([H])C([H])([H])N([H])C([H])([H])C([H])([H])C([H])([H])F)nc(OC([H])([H])[H])c([C@]2([H])c3c(c4c([H])c([H])c([H])c([H])c4n3[H])C([H])([H])[C@@]([H])(C([H])([H])[H])N2C([H])([H])C(F)(F)C([H])([H])[H])c1[H]


 37 40  0  0  0  0  0  0  0  0999 V2000
   10.3446   46.5665  131.4422 C   0  0  0  0  0  0  0  0  0  0  0  0
   10.6944   47.0267  132.7605 N   0  0  0  0  0  0  0  0  0  0  0  0
   11.6892   46.2362  133.3787 C   0  0  0  0  0  0  0  0  0  0  0  0
   12.9302   46.0945  132.4882 C   0  0  0  0  0  0  0  0  0  0  0  0
   11.2391   44.8201  133.6751 C   0  0  0  0  0  0  0  0  0  0  0  0
   10.8188   44.2695  132.3318 C   0  0  0  0  0  0  0  0  0  0  0  0
   10.4060   45.0873  131.3054 C   0  0  0  0  0  0  0  0  0  0  0  0
   10.0934   44.3021  130.2498 N   0  0  0  0  0  0  0  0  0  0  0  0
   10.2903   42.9946  130.5561 C   0  0  0  0  0  0  0  0  0  0  0  0
   10.1335   41.8083  129.8763 C   0  0  0  0  0  0  0  0  0  0  0  0
   10.4158   40.5914  130.4522 C   0  0  0  0  0  0  0  0  0  0  0  0
   10.8685   40.6127  131.7546 C   0  0  0  0  0  0  0  0  0  0  0  0
   11.0398   41.7748  132.4726 C   0  0  0  0  0  0  0  0  0  0  0  0
   10.7411   42.9854  131.8522 C   0  0  0  0  0  0  0  0  0  0  0  0
    9.7485   44.6174  129.3192 H   0  0  0  0  0  0  0  0  0  0  0  0
    8.9772   48.5263  130.7567 C   0  0  0  0  0  0  0  0  0  0  0  0
    7.8646   49.0128  130.1965 N   0  0  0  0  0  0  0  0  0  0  0  0
    6.8453   48.2730  129.7226 C   0  0  0  0  0  0  0  0  0  0  0  0
    6.9954   46.8852  129.8412 C   0  0  0  0  0  0  0  0  0  0  0  0
    8.1205   46.3604  130.4084 C   0  0  0  0  0  0  0  0  0  0  0  0
    9.1376   47.1700  130.8783 C   0  0  0  0  0  0  0  0  0  0  0  0
    9.7189   50.6508  131.7924 C   0  0  0  0  0  0  0  0  0  0  0  0
    9.9465   49.3910  131.2036 O   0  0  0  0  0  0  0  0  0  0  0  0
    5.7074   48.7900  129.1486 O   0  0  0  0  0  0  0  0  0  0  0  0
    5.2977   50.1075  129.0471 C   0  0  0  0  0  0  0  0  0  0  0  0
    5.9663   50.9887  130.1048 C   0  0  0  0  0  0  0  0  0  0  0  0
    7.0280   51.7590  129.5225 N   0  0  0  0  0  0  0  0  0  0  0  0
    7.9331   51.2946  129.7256 H   0  0  0  0  0  0  0  0  0  0  0  0
    6.8385   52.1686  128.1752 C   0  0  0  0  0  0  0  0  0  0  0  0
    6.9157   53.6888  128.0268 C   0  0  0  0  0  0  0  0  0  0  0  0
    7.4116   53.9748  126.6306 C   0  0  0  0  0  0  0  0  0  0  0  0
    7.7768   52.7517  126.0749 F   0  0  0  0  0  0  0  0  0  0  0  0
    9.6115   47.4476  133.5424 C   0  0  0  0  0  0  0  0  0  0  0  0
    8.9535   46.5024  134.4705 C   0  0  0  0  0  0  0  0  0  0  0  0
    7.8338   47.2236  135.2715 C   0  0  0  0  0  0  0  0  0  0  0  0
    9.8034   45.9967  135.4364 F   0  0  0  0  0  0  0  0  0  0  0  0
    8.2528   45.4934  133.8272 F   0  0  0  0  0  0  0  0  0  0  0  0
 22 23  1  0  0  0
 23 16  1  0  0  0
 16 17  2  0  0  0
 17 18  1  0  0  0
 18 24  1  0  0  0
 24 25  1  0  0  0
 25 26  1  0  0  0
 26 27  1  0  0  0
 27 29  1  0  0  0
 29 30  1  0  0  0
 30 31  1  0  0  0
 31 32  1  0  0  0
 18 19  2  0  0  0
 19 20  1  0  0  0
 20 21  2  0  0  0
 21  1  1  0  0  0
  1  2  1  0  0  0
  2 33  1  0  0  0
 33 34  1  0  0  0
 34 35  1  0  0  0
 34 36  1  0  0  0
 34 37  1  0  0  0
  2  3  1  0  0  0
  3  4  1  0  0  0
  3  5  1  0  0  0
  5  6  1  0  0  0
  6  7  2  0  0  0
  7  8  1  0  0  0
  8  9  1  0  0  0
  9 10  2  0  0  0
 10 11  1  0  0  0
 11 12  2  0  0  0
 12 13  1  0  0  0
 13 14  2  0  0  0
 21 16  1  0  0  0
  7  1  1  0  0  0
 14  9  1  0  0  0
 14  6  1  0  0  0
 27 28  1  0  0  0
  8 15  1  0  0  0
M  END
> <minimizedAffinity>
3.61365

> <CNNscore>
0.3751519322

> <CNNaffinity>
7.6709580421

> <CNN_VS>
2.8777747154

> <CNNaffinity_variance>
0.2720040679

$$$$
[H]c1c(OC([H])([H])C([H])([H])N([H])C([H])([H])C([H])([H])C([H])([H])F)nc(OC([H])([H])[H])c([C@]2([H])c3c(c4c([H])c([H])c([H])c([H])c4n3[H])C([H])([H])[C@@]([H])(C([H])([H])[H])N2C([H])([H])C(F)(F)C([H])([H])[H])c1[H]


 37 40  0  0  0  0  0  0  0  0999 V2000
    9.8036   45.8967  130.8907 C   0  0  0  0  0  0  0  0  0  0  0  0
   10.8634   46.5861  131.5790 N   0  0  0  0  0  0  0  0  0  0  0  0
   11.7102   45.7187  132.3051 C   0  0  0  0  0  0  0  0  0  0  0  0
   12.2584   44.5937  131.4180 C   0  0  0  0  0  0  0  0  0  0  0  0
   11.0177   45.0236  133.4596 C   0  0  0  0  0  0  0  0  0  0  0  0
    9.8587   44.2943  132.8198 C   0  0  0  0  0  0  0  0  0  0  0  0
    9.3043   44.7077  131.6305 C   0  0  0  0  0  0  0  0  0  0  0  0
    8.2925   43.8627  131.3290 N   0  0  0  0  0  0  0  0  0  0  0  0
    8.1697   42.9085  132.2864 C   0  0  0  0  0  0  0  0  0  0  0  0
    7.3314   41.8341  132.4783 C   0  0  0  0  0  0  0  0  0  0  0  0
    7.4355   41.0109  133.5755 C   0  0  0  0  0  0  0  0  0  0  0  0
    8.4281   41.3125  134.4841 C   0  0  0  0  0  0  0  0  0  0  0  0
    9.2883   42.3766  134.3329 C   0  0  0  0  0  0  0  0  0  0  0  0
    9.1478   43.1859  133.2082 C   0  0  0  0  0  0  0  0  0  0  0  0
    7.6741   43.9047  130.4922 H   0  0  0  0  0  0  0  0  0  0  0  0
    8.5159   46.9063  129.0189 C   0  0  0  0  0  0  0  0  0  0  0  0
    7.5088   47.6812  128.6023 N   0  0  0  0  0  0  0  0  0  0  0  0
    6.6671   48.3596  129.4037 C   0  0  0  0  0  0  0  0  0  0  0  0
    6.8927   48.2196  130.7792 C   0  0  0  0  0  0  0  0  0  0  0  0
    7.9131   47.4351  131.2332 C   0  0  0  0  0  0  0  0  0  0  0  0
    8.7475   46.7597  130.3625 C   0  0  0  0  0  0  0  0  0  0  0  0
   10.7158   46.2618  128.0799 C   0  0  0  0  0  0  0  0  0  0  0  0
    9.3067   46.2660  128.0961 O   0  0  0  0  0  0  0  0  0  0  0  0
    5.6354   49.1525  128.9583 O   0  0  0  0  0  0  0  0  0  0  0  0
    5.2849   50.4339  129.3443 C   0  0  0  0  0  0  0  0  0  0  0  0
    6.4998   51.3640  129.3795 C   0  0  0  0  0  0  0  0  0  0  0  0
    6.7655   51.8972  128.0738 N   0  0  0  0  0  0  0  0  0  0  0  0
    5.9355   51.7438  127.4708 H   0  0  0  0  0  0  0  0  0  0  0  0
    7.3194   53.2051  128.0323 C   0  0  0  0  0  0  0  0  0  0  0  0
    6.6239   54.0844  126.9921 C   0  0  0  0  0  0  0  0  0  0  0  0
    7.6995   54.6511  126.0982 C   0  0  0  0  0  0  0  0  0  0  0  0
    8.7267   53.7122  126.0596 F   0  0  0  0  0  0  0  0  0  0  0  0
   10.4847   47.7910  132.1839 C   0  0  0  0  0  0  0  0  0  0  0  0
   10.5905   49.0629  131.4366 C   0  0  0  0  0  0  0  0  0  0  0  0
    9.8925   50.2093  132.2203 C   0  0  0  0  0  0  0  0  0  0  0  0
    9.9502   49.0373  130.2116 F   0  0  0  0  0  0  0  0  0  0  0  0
   11.8907   49.5316  131.3240 F   0  0  0  0  0  0  0  0  0  0  0  0
 22 23  1  0  0  0
 23 16  1  0  0  0
 16 17  2  0  0  0
 17 18  1  0  0  0
 18 24  1  0  0  0
 24 25  1  0  0  0
 25 26  1  0  0  0
 26 27  1  0  0  0
 27 29  1  0  0  0
 29 30  1  0  0  0
 30 31  1  0  0  0
 31 32  1  0  0  0
 18 19  2  0  0  0
 19 20  1  0  0  0
 20 21  2  0  0  0
 21  1  1  0  0  0
  1  2  1  0  0  0
  2 33  1  0  0  0
 33 34  1  0  0  0
 34 35  1  0  0  0
 34 36  1  0  0  0
 34 37  1  0  0  0
  2  3  1  0  0  0
  3  4  1  0  0  0
  3  5  1  0  0  0
  5  6  1  0  0  0
  6  7  2  0  0  0
  7  8  1  0  0  0
  8  9  1  0  0  0
  9 10  2  0  0  0
 10 11  1  0  0  0
 11 12  2  0  0  0
 12 13  1  0  0  0
 13 14  2  0  0  0
 21 16  1  0  0  0
  7  1  1  0  0  0
 14  9  1  0  0  0
 14  6  1  0  0  0
 27 28  1  0  0  0
  8 15  1  0  0  0
M  END
> <minimizedAffinity>
6.65953

> <CNNscore>
0.3523008525

> <CNNaffinity>
7.3463602066

> <CNN_VS>
2.5881290436

> <CNNaffinity_variance>
0.2518814206

$$$$
[H]c1c(OC([H])([H])C([H])([H])N([H])C([H])([H])C([H])([H])C([H])([H])F)nc(OC([H])([H])[H])c([C@]2([H])c3c(c4c([H])c([H])c([H])c([H])c4n3[H])C([H])([H])[C@@]([H])(C([H])([H])[H])N2C([H])([H])C(F)(F)C([H])([H])[H])c1[H]


 37 40  0  0  0  0  0  0  0  0999 V2000
   10.1671   45.9707  132.4157 C   0  0  0  0  0  0  0  0  0  0  0  0
    9.7027   44.9928  133.3645 N   0  0  0  0  0  0  0  0  0  0  0  0
   10.7360   44.1667  133.8611 C   0  0  0  0  0  0  0  0  0  0  0  0
   11.8938   44.9950  134.4326 C   0  0  0  0  0  0  0  0  0  0  0  0
   11.3577   43.2752  132.8055 C   0  0  0  0  0  0  0  0  0  0  0  0
   11.8468   44.2331  131.7437 C   0  0  0  0  0  0  0  0  0  0  0  0
   11.2878   45.4783  131.5719 C   0  0  0  0  0  0  0  0  0  0  0  0
   11.9321   46.0844  130.5490 N   0  0  0  0  0  0  0  0  0  0  0  0
   12.8965   45.2717  130.0475 C   0  0  0  0  0  0  0  0  0  0  0  0
   13.8201   45.3796  129.0330 C   0  0  0  0  0  0  0  0  0  0  0  0
   14.7011   44.3663  128.7339 C   0  0  0  0  0  0  0  0  0  0  0  0
   14.6177   43.2256  129.5042 C   0  0  0  0  0  0  0  0  0  0  0  0
   13.7099   43.0740  130.5281 C   0  0  0  0  0  0  0  0  0  0  0  0
   12.8351   44.1238  130.7970 C   0  0  0  0  0  0  0  0  0  0  0  0
   11.7447   47.0367  130.1716 H   0  0  0  0  0  0  0  0  0  0  0  0
    8.6906   47.9227  131.9793 C   0  0  0  0  0  0  0  0  0  0  0  0
    7.7478   48.5073  131.2324 N   0  0  0  0  0  0  0  0  0  0  0  0
    7.1467   47.9515  130.1644 C   0  0  0  0  0  0  0  0  0  0  0  0
    7.5669   46.6560  129.8366 C   0  0  0  0  0  0  0  0  0  0  0  0
    8.5277   46.0348  130.5809 C   0  0  0  0  0  0  0  0  0  0  0  0
    9.1120   46.6553  131.6691 C   0  0  0  0  0  0  0  0  0  0  0  0
   10.1144   49.6903  132.9717 C   0  0  0  0  0  0  0  0  0  0  0  0
    9.2262   48.5989  133.0483 O   0  0  0  0  0  0  0  0  0  0  0  0
    6.1782   48.5674  129.4065 O   0  0  0  0  0  0  0  0  0  0  0  0
    6.2963   49.6296  128.5280 C   0  0  0  0  0  0  0  0  0  0  0  0
    7.1527   50.7539  129.1151 C   0  0  0  0  0  0  0  0  0  0  0  0
    6.6807   52.0337  128.6690 N   0  0  0  0  0  0  0  0  0  0  0  0
    6.6657   52.6877  129.4740 H   0  0  0  0  0  0  0  0  0  0  0  0
    7.2718   52.5394  127.4799 C   0  0  0  0  0  0  0  0  0  0  0  0
    7.0997   54.0543  127.3591 C   0  0  0  0  0  0  0  0  0  0  0  0
    7.9968   54.5157  126.2369 C   0  0  0  0  0  0  0  0  0  0  0  0
    7.3547   54.1852  125.0467 F   0  0  0  0  0  0  0  0  0  0  0  0
    8.4816   44.3904  133.0374 C   0  0  0  0  0  0  0  0  0  0  0  0
    8.4088   42.9294  132.8193 C   0  0  0  0  0  0  0  0  0  0  0  0
    8.3394   42.6131  131.2992 C   0  0  0  0  0  0  0  0  0  0  0  0
    7.2713   42.3490  133.3489 F   0  0  0  0  0  0  0  0  0  0  0  0
    9.5557   42.2543  133.2090 F   0  0  0  0  0  0  0  0  0  0  0  0
 22 23  1  0  0  0
 23 16  1  0  0  0
 16 17  2  0  0  0
 17 18  1  0  0  0
 18 24  1  0  0  0
 24 25  1  0  0  0
 25 26  1  0  0  0
 26 27  1  0  0  0
 27 29  1  0  0  0
 29 30  1  0  0  0
 30 31  1  0  0  0
 31 32  1  0  0  0
 18 19  2  0  0  0
 19 20  1  0  0  0
 20 21  2  0  0  0
 21  1  1  0  0  0
  1  2  1  0  0  0
  2 33  1  0  0  0
 33 34  1  0  0  0
 34 35  1  0  0  0
 34 36  1  0  0  0
 34 37  1  0  0  0
  2  3  1  0  0  0
  3  4  1  0  0  0
  3  5  1  0  0  0
  5  6  1  0  0  0
  6  7  2  0  0  0
  7  8  1  0  0  0
  8  9  1  0  0  0
  9 10  2  0  0  0
 10 11  1  0  0  0
 11 12  2  0  0  0
 12 13  1  0  0  0
 13 14  2  0  0  0
 21 16  1  0  0  0
  7  1  1  0  0  0
 14  9  1  0  0  0
 14  6  1  0  0  0
 27 28  1  0  0  0
  8 15  1  0  0  0
M  END
> <minimizedAffinity>
3.61003

> <CNNscore>
0.3443638682

> <CNNaffinity>
7.6039748192

> <CNN_VS>
2.6185340881

> <CNNaffinity_variance>
0.7019056082

$$$$
[H]Oc1c([H])c([H])c2c(c1[H])C([H])([H])C([H])([H])N(c1c([H])c([H])c([H])c(Cl)c1[H])C2(c1c([H])c([H])c(OC([H])([H])C([H])([H])N2C([H])([H])C([H])([H])C([H])([H])C2([H])[H])c([H])c1[H])C([H])([H])[H]


 34 38  0  0  0  0  0  0  0  0999 V2000
    8.3125   43.8278  130.0983 C   0  0  0  0  0  0  0  0  0  0  0  0
    8.7338   45.2137  130.4587 C   0  0  0  0  0  0  0  0  0  0  0  0
   10.0500   45.5973  129.9935 N   0  0  0  0  0  0  0  0  0  0  0  0
   10.5668   46.8389  130.6044 C   0  0  0  0  0  0  0  0  0  0  0  0
    9.6834   48.0023  130.1965 C   0  0  0  0  0  0  0  0  0  0  0  0
    8.2870   47.5602  129.9593 C   0  0  0  0  0  0  0  0  0  0  0  0
    7.4100   48.5866  129.5818 C   0  0  0  0  0  0  0  0  0  0  0  0
    6.0825   48.3580  129.3226 C   0  0  0  0  0  0  0  0  0  0  0  0
    5.1946   49.3561  128.9477 O   0  0  0  0  0  0  0  0  0  0  0  0
    5.6056   47.0703  129.4404 C   0  0  0  0  0  0  0  0  0  0  0  0
    6.4678   46.0672  129.8102 C   0  0  0  0  0  0  0  0  0  0  0  0
    7.8212   46.2748  130.0786 C   0  0  0  0  0  0  0  0  0  0  0  0
    4.6437   49.9135  129.5826 H   0  0  0  0  0  0  0  0  0  0  0  0
   10.8391   44.9662  129.0374 C   0  0  0  0  0  0  0  0  0  0  0  0
   10.2975   44.4613  127.8862 C   0  0  0  0  0  0  0  0  0  0  0  0
   11.0777   43.8114  126.9255 C   0  0  0  0  0  0  0  0  0  0  0  0
   12.4248   43.6814  127.1530 C   0  0  0  0  0  0  0  0  0  0  0  0
   13.0027   44.1790  128.3016 C   0  0  0  0  0  0  0  0  0  0  0  0
   14.7246   43.9664  128.5066 Cl  0  0  0  0  0  0  0  0  0  0  0  0
   12.2071   44.8124  129.2259 C   0  0  0  0  0  0  0  0  0  0  0  0
    8.8388   45.1871  131.9605 C   0  0  0  0  0  0  0  0  0  0  0  0
    9.8820   44.6808  132.6557 C   0  0  0  0  0  0  0  0  0  0  0  0
    9.8490   44.7530  134.0407 C   0  0  0  0  0  0  0  0  0  0  0  0
    8.8163   45.3099  134.7386 C   0  0  0  0  0  0  0  0  0  0  0  0
    7.7469   45.8276  134.0007 C   0  0  0  0  0  0  0  0  0  0  0  0
    7.7566   45.7678  132.6242 C   0  0  0  0  0  0  0  0  0  0  0  0
    8.7215   45.4153  136.1067 O   0  0  0  0  0  0  0  0  0  0  0  0
    9.5917   46.2954  136.8067 C   0  0  0  0  0  0  0  0  0  0  0  0
    9.5576   47.6675  136.2077 C   0  0  0  0  0  0  0  0  0  0  0  0
    9.7041   47.5430  134.7563 N   0  0  0  0  0  0  0  0  0  0  0  0
   11.0881   47.7672  134.3808 C   0  0  0  0  0  0  0  0  0  0  0  0
   11.0573   48.6972  133.1943 C   0  0  0  0  0  0  0  0  0  0  0  0
    9.7952   49.4895  133.4664 C   0  0  0  0  0  0  0  0  0  0  0  0
    8.8756   48.4611  134.0489 C   0  0  0  0  0  0  0  0  0  0  0  0
  1  2  1  0  0  0
  2  3  1  0  0  0
  3  4  1  0  0  0
  4  5  1  0  0  0
  5  6  1  0  0  0
  6  7  2  0  0  0
  7  8  1  0  0  0
  8  9  1  0  0  0
  8 10  2  0  0  0
 10 11  1  0  0  0
 11 12  2  0  0  0
  3 14  1  0  0  0
 14 15  2  0  0  0
 15 16  1  0  0  0
 16 17  2  0  0  0
 17 18  1  0  0  0
 18 19  1  0  0  0
 18 20  2  0  0  0
  2 21  1  0  0  0
 21 22  2  0  0  0
 22 23  1  0  0  0
 23 24  2  0  0  0
 24 27  1  0  0  0
 27 28  1  0  0  0
 28 29  1  0  0  0
 29 30  1  0  0  0
 30 31  1  0  0  0
 31 32  1  0  0  0
 32 33  1  0  0  0
 33 34  1  0  0  0
 24 25  1  0  0  0
 25 26  2  0  0  0
 12  2  1  0  0  0
 20 14  1  0  0  0
 26 21  1  0  0  0
 12  6  1  0  0  0
 34 30  1  0  0  0
  9 13  1  0  0  0
M  END
> <minimizedAffinity>
8.49939

> <CNNscore>
0.4476654530

> <CNNaffinity>
7.9931039810

> <CNN_VS>
3.5782365799

> <CNNaffinity_variance>
1.0625655651

$$$$
[H]Oc1c([H])c([H])c2c(c1[H])C([H])([H])C([H])([H])N(c1c([H])c([H])c([H])c(Cl)c1[H])C2(c1c([H])c([H])c(OC([H])([H])C([H])([H])N2C([H])([H])C([H])([H])C([H])([H])C2([H])[H])c([H])c1[H])C([H])([H])[H]


 34 38  0  0  0  0  0  0  0  0999 V2000
    8.8633   44.2572  130.1908 C   0  0  0  0  0  0  0  0  0  0  0  0
    9.9950   44.9047  130.9175 C   0  0  0  0  0  0  0  0  0  0  0  0
   10.1196   44.5392  132.3129 N   0  0  0  0  0  0  0  0  0  0  0  0
   11.0398   45.4017  133.0817 C   0  0  0  0  0  0  0  0  0  0  0  0
   12.4463   45.2430  132.5371 C   0  0  0  0  0  0  0  0  0  0  0  0
   12.4291   44.9090  131.0915 C   0  0  0  0  0  0  0  0  0  0  0  0
   13.6982   44.7512  130.5176 C   0  0  0  0  0  0  0  0  0  0  0  0
   13.8700   44.4412  129.1924 C   0  0  0  0  0  0  0  0  0  0  0  0
   15.1146   44.2798  128.6008 O   0  0  0  0  0  0  0  0  0  0  0  0
   12.7483   44.2815  128.4075 C   0  0  0  0  0  0  0  0  0  0  0  0
   11.5064   44.4366  128.9733 C   0  0  0  0  0  0  0  0  0  0  0  0
   11.3065   44.7514  130.3179 C   0  0  0  0  0  0  0  0  0  0  0  0
   15.6525   45.0146  128.1671 H   0  0  0  0  0  0  0  0  0  0  0  0
    9.5169   43.4765  132.9780 C   0  0  0  0  0  0  0  0  0  0  0  0
   10.1372   42.8447  134.0219 C   0  0  0  0  0  0  0  0  0  0  0  0
    9.5484   41.7659  134.6878 C   0  0  0  0  0  0  0  0  0  0  0  0
    8.3123   41.3357  134.2749 C   0  0  0  0  0  0  0  0  0  0  0  0
    7.6596   41.9499  133.2273 C   0  0  0  0  0  0  0  0  0  0  0  0
    6.0901   41.3335  132.7703 Cl  0  0  0  0  0  0  0  0  0  0  0  0
    8.2664   43.0078  132.5940 C   0  0  0  0  0  0  0  0  0  0  0  0
    9.6388   46.3677  130.9235 C   0  0  0  0  0  0  0  0  0  0  0  0
   10.1913   47.3032  130.1188 C   0  0  0  0  0  0  0  0  0  0  0  0
    9.7394   48.6108  130.2203 C   0  0  0  0  0  0  0  0  0  0  0  0
    8.7640   49.0020  131.0917 C   0  0  0  0  0  0  0  0  0  0  0  0
    8.2057   48.0191  131.9153 C   0  0  0  0  0  0  0  0  0  0  0  0
    8.6379   46.7134  131.8330 C   0  0  0  0  0  0  0  0  0  0  0  0
    8.2697   50.2768  131.2416 O   0  0  0  0  0  0  0  0  0  0  0  0
    7.1020   50.6670  130.5303 C   0  0  0  0  0  0  0  0  0  0  0  0
    7.3148   50.5535  129.0523 C   0  0  0  0  0  0  0  0  0  0  0  0
    6.3457   49.5954  128.5171 N   0  0  0  0  0  0  0  0  0  0  0  0
    5.4555   49.1536  129.5749 C   0  0  0  0  0  0  0  0  0  0  0  0
    5.3568   47.6546  129.4439 C   0  0  0  0  0  0  0  0  0  0  0  0
    6.7142   47.3140  128.8640 C   0  0  0  0  0  0  0  0  0  0  0  0
    6.9757   48.4583  127.9341 C   0  0  0  0  0  0  0  0  0  0  0  0
  1  2  1  0  0  0
  2  3  1  0  0  0
  3  4  1  0  0  0
  4  5  1  0  0  0
  5  6  1  0  0  0
  6  7  2  0  0  0
  7  8  1  0  0  0
  8  9  1  0  0  0
  8 10  2  0  0  0
 10 11  1  0  0  0
 11 12  2  0  0  0
  3 14  1  0  0  0
 14 15  2  0  0  0
 15 16  1  0  0  0
 16 17  2  0  0  0
 17 18  1  0  0  0
 18 19  1  0  0  0
 18 20  2  0  0  0
  2 21  1  0  0  0
 21 22  2  0  0  0
 22 23  1  0  0  0
 23 24  2  0  0  0
 24 27  1  0  0  0
 27 28  1  0  0  0
 28 29  1  0  0  0
 29 30  1  0  0  0
 30 31  1  0  0  0
 31 32  1  0  0  0
 32 33  1  0  0  0
 33 34  1  0  0  0
 24 25  1  0  0  0
 25 26  2  0  0  0
 12  2  1  0  0  0
 20 14  1  0  0  0
 26 21  1  0  0  0
 12  6  1  0  0  0
 34 30  1  0  0  0
  9 13  1  0  0  0
M  END
> <minimizedAffinity>
4.63812

> <CNNscore>
0.4467985630

> <CNNaffinity>
8.0058803558

> <CNN_VS>
3.5770158768

> <CNNaffinity_variance>
1.0001066923

$$$$
[H]Oc1c([H])c([H])c2c(c1[H])C([H])([H])C([H])([H])N(c1c([H])c([H])c([H])c(Cl)c1[H])C2(c1c([H])c([H])c(OC([H])([H])C([H])([H])N2C([H])([H])C([H])([H])C([H])([H])C2([H])[H])c([H])c1[H])C([H])([H])[H]


 34 38  0  0  0  0  0  0  0  0999 V2000
    7.8473   44.1593  129.5725 C   0  0  0  0  0  0  0  0  0  0  0  0
    8.3247   45.4902  130.0508 C   0  0  0  0  0  0  0  0  0  0  0  0
    9.6222   45.8943  129.5516 N   0  0  0  0  0  0  0  0  0  0  0  0
   10.2052   47.0532  130.2579 C   0  0  0  0  0  0  0  0  0  0  0  0
    9.3312   48.2710  130.0271 C   0  0  0  0  0  0  0  0  0  0  0  0
    7.9124   47.8850  129.8275 C   0  0  0  0  0  0  0  0  0  0  0  0
    7.0429   48.9633  129.6122 C   0  0  0  0  0  0  0  0  0  0  0  0
    5.6974   48.7905  129.4092 C   0  0  0  0  0  0  0  0  0  0  0  0
    4.8163   49.8406  129.1940 O   0  0  0  0  0  0  0  0  0  0  0  0
    5.1940   47.5075  129.4192 C   0  0  0  0  0  0  0  0  0  0  0  0
    6.0490   46.4535  129.6301 C   0  0  0  0  0  0  0  0  0  0  0  0
    7.4204   46.6040  129.8386 C   0  0  0  0  0  0  0  0  0  0  0  0
    4.3170   50.3384  129.9153 H   0  0  0  0  0  0  0  0  0  0  0  0
   10.3391   45.3525  128.4897 C   0  0  0  0  0  0  0  0  0  0  0  0
   11.3287   44.4293  128.6948 C   0  0  0  0  0  0  0  0  0  0  0  0
   12.0663   43.8895  127.6372 C   0  0  0  0  0  0  0  0  0  0  0  0
   11.7819   44.3041  126.3602 C   0  0  0  0  0  0  0  0  0  0  0  0
   10.7913   45.2319  126.1185 C   0  0  0  0  0  0  0  0  0  0  0  0
   10.4999   45.7010  124.4610 Cl  0  0  0  0  0  0  0  0  0  0  0  0
   10.0849   45.7429  127.1807 C   0  0  0  0  0  0  0  0  0  0  0  0
    8.5136   45.3020  131.5327 C   0  0  0  0  0  0  0  0  0  0  0  0
    7.5697   45.5403  132.4709 C   0  0  0  0  0  0  0  0  0  0  0  0
    7.8827   45.2927  133.7994 C   0  0  0  0  0  0  0  0  0  0  0  0
    9.0961   44.8197  134.2088 C   0  0  0  0  0  0  0  0  0  0  0  0
   10.0587   44.5800  133.2228 C   0  0  0  0  0  0  0  0  0  0  0  0
    9.7715   44.8181  131.8964 C   0  0  0  0  0  0  0  0  0  0  0  0
    9.4703   44.5516  135.5050 O   0  0  0  0  0  0  0  0  0  0  0  0
   10.4079   45.3993  136.1563 C   0  0  0  0  0  0  0  0  0  0  0  0
   10.7765   46.5582  135.2824 C   0  0  0  0  0  0  0  0  0  0  0  0
    9.5968   46.9477  134.5077 N   0  0  0  0  0  0  0  0  0  0  0  0
   10.0042   47.7074  133.3400 C   0  0  0  0  0  0  0  0  0  0  0  0
    9.0850   48.9008  133.2720 C   0  0  0  0  0  0  0  0  0  0  0  0
    8.7709   49.1216  134.7374 C   0  0  0  0  0  0  0  0  0  0  0  0
    8.6809   47.7259  135.2727 C   0  0  0  0  0  0  0  0  0  0  0  0
  1  2  1  0  0  0
  2  3  1  0  0  0
  3  4  1  0  0  0
  4  5  1  0  0  0
  5  6  1  0  0  0
  6  7  2  0  0  0
  7  8  1  0  0  0
  8  9  1  0  0  0
  8 10  2  0  0  0
 10 11  1  0  0  0
 11 12  2  0  0  0
  3 14  1  0  0  0
 14 15  2  0  0  0
 15 16  1  0  0  0
 16 17  2  0  0  0
 17 18  1  0  0  0
 18 19  1  0  0  0
 18 20  2  0  0  0
  2 21  1  0  0  0
 21 22  2  0  0  0
 22 23  1  0  0  0
 23 24  2  0  0  0
 24 27  1  0  0  0
 27 28  1  0  0  0
 28 29  1  0  0  0
 29 30  1  0  0  0
 30 31  1  0  0  0
 31 32  1  0  0  0
 32 33  1  0  0  0
 33 34  1  0  0  0
 24 25  1  0  0  0
 25 26  2  0  0  0
 12  2  1  0  0  0
 20 14  1  0  0  0
 26 21  1  0  0  0
 12  6  1  0  0  0
 34 30  1  0  0  0
  9 13  1  0  0  0
M  END
> <minimizedAffinity>
12.12251

> <CNNscore>
0.4192473590

> <CNNaffinity>
7.7999849319

> <CNN_VS>
3.2701230049

> <CNNaffinity_variance>
1.0249527693

$$$$
[H]Oc1c([H])c([H])c2c(c1[H])C([H])([H])C([H])([H])N(c1c([H])c([H])c([H])c(Cl)c1[H])C2(c1c([H])c([H])c(OC([H])([H])C([H])([H])N2C([H])([H])C([H])([H])C([H])([H])C2([H])[H])c([H])c1[H])C([H])([H])[H]


 34 38  0  0  0  0  0  0  0  0999 V2000
   10.7466   43.5699  134.9265 C   0  0  0  0  0  0  0  0  0  0  0  0
   10.0049   44.3195  133.8700 C   0  0  0  0  0  0  0  0  0  0  0  0
    8.8984   43.6042  133.2700 N   0  0  0  0  0  0  0  0  0  0  0  0
    8.3732   44.2297  132.0392 C   0  0  0  0  0  0  0  0  0  0  0  0
    7.7878   45.5870  132.3785 C   0  0  0  0  0  0  0  0  0  0  0  0
    8.4780   46.1948  133.5429 C   0  0  0  0  0  0  0  0  0  0  0  0
    7.9910   47.4565  133.9119 C   0  0  0  0  0  0  0  0  0  0  0  0
    8.5118   48.1636  134.9657 C   0  0  0  0  0  0  0  0  0  0  0  0
    8.0477   49.4132  135.3508 O   0  0  0  0  0  0  0  0  0  0  0  0
    9.5497   47.6041  135.6794 C   0  0  0  0  0  0  0  0  0  0  0  0
   10.0241   46.3677  135.3150 C   0  0  0  0  0  0  0  0  0  0  0  0
    9.5109   45.6296  134.2479 C   0  0  0  0  0  0  0  0  0  0  0  0
    8.3946   50.2948  135.0047 H   0  0  0  0  0  0  0  0  0  0  0  0
    8.2715   42.4514  133.7314 C   0  0  0  0  0  0  0  0  0  0  0  0
    6.9156   42.2899  133.6356 C   0  0  0  0  0  0  0  0  0  0  0  0
    6.2728   41.1428  134.1098 C   0  0  0  0  0  0  0  0  0  0  0  0
    7.0325   40.1559  134.6862 C   0  0  0  0  0  0  0  0  0  0  0  0
    8.4004   40.2863  134.7980 C   0  0  0  0  0  0  0  0  0  0  0  0
    9.2858   38.9796  135.5471 Cl  0  0  0  0  0  0  0  0  0  0  0  0
    9.0011   41.4268  134.3218 C   0  0  0  0  0  0  0  0  0  0  0  0
   11.0119   44.4880  132.7634 C   0  0  0  0  0  0  0  0  0  0  0  0
   11.8109   45.5664  132.6000 C   0  0  0  0  0  0  0  0  0  0  0  0
   12.7123   45.5658  131.5455 C   0  0  0  0  0  0  0  0  0  0  0  0
   12.8346   44.5311  130.6636 C   0  0  0  0  0  0  0  0  0  0  0  0
   11.9988   43.4252  130.8499 C   0  0  0  0  0  0  0  0  0  0  0  0
   11.0954   43.4022  131.8900 C   0  0  0  0  0  0  0  0  0  0  0  0
   13.7058   44.4654  129.6012 O   0  0  0  0  0  0  0  0  0  0  0  0
   13.2082   44.5856  128.2746 C   0  0  0  0  0  0  0  0  0  0  0  0
   11.9783   43.7518  128.0886 C   0  0  0  0  0  0  0  0  0  0  0  0
   10.8706   44.6359  127.7215 N   0  0  0  0  0  0  0  0  0  0  0  0
   10.9369   45.8575  128.5025 C   0  0  0  0  0  0  0  0  0  0  0  0
    9.5361   46.1190  128.9956 C   0  0  0  0  0  0  0  0  0  0  0  0
    8.9886   44.7107  129.1048 C   0  0  0  0  0  0  0  0  0  0  0  0
    9.6004   44.0230  127.9236 C   0  0  0  0  0  0  0  0  0  0  0  0
  1  2  1  0  0  0
  2  3  1  0  0  0
  3  4  1  0  0  0
  4  5  1  0  0  0
  5  6  1  0  0  0
  6  7  2  0  0  0
  7  8  1  0  0  0
  8  9  1  0  0  0
  8 10  2  0  0  0
 10 11  1  0  0  0
 11 12  2  0  0  0
  3 14  1  0  0  0
 14 15  2  0  0  0
 15 16  1  0  0  0
 16 17  2  0  0  0
 17 18  1  0  0  0
 18 19  1  0  0  0
 18 20  2  0  0  0
  2 21  1  0  0  0
 21 22  2  0  0  0
 22 23  1  0  0  0
 23 24  2  0  0  0
 24 27  1  0  0  0
 27 28  1  0  0  0
 28 29  1  0  0  0
 29 30  1  0  0  0
 30 31  1  0  0  0
 31 32  1  0  0  0
 32 33  1  0  0  0
 33 34  1  0  0  0
 24 25  1  0  0  0
 25 26  2  0  0  0
 12  2  1  0  0  0
 20 14  1  0  0  0
 26 21  1  0  0  0
 12  6  1  0  0  0
 34 30  1  0  0  0
  9 13  1  0  0  0
M  END
> <minimizedAffinity>
21.09878

> <CNNscore>
0.4141707718

> <CNNaffinity>
7.5662765503

> <CNN_VS>
3.1337306499

> <CNNaffinity_variance>
0.9109320641

$$$$
[H]Oc1c([H])c([H])c2c(c1[H])C([H])([H])C([H])([H])N(c1c([H])c([H])c([H])c(Cl)c1[H])C2(c1c([H])c([H])c(OC([H])([H])C([H])([H])N2C([H])([H])C([H])([H])C([H])([H])C2([H])[H])c([H])c1[H])C([H])([H])[H]


 34 38  0  0  0  0  0  0  0  0999 V2000
   10.3967   42.5146  133.0210 C   0  0  0  0  0  0  0  0  0  0  0  0
   10.4383   43.9878  132.7845 C   0  0  0  0  0  0  0  0  0  0  0  0
    9.1994   44.6886  133.0489 N   0  0  0  0  0  0  0  0  0  0  0  0
    9.1672   46.0717  132.5312 C   0  0  0  0  0  0  0  0  0  0  0  0
   10.2143   46.8996  133.2509 C   0  0  0  0  0  0  0  0  0  0  0  0
   11.3630   46.0624  133.6768 C   0  0  0  0  0  0  0  0  0  0  0  0
   12.3750   46.7638  134.3468 C   0  0  0  0  0  0  0  0  0  0  0  0
   13.5096   46.1483  134.8109 C   0  0  0  0  0  0  0  0  0  0  0  0
   14.5250   46.8198  135.4765 O   0  0  0  0  0  0  0  0  0  0  0  0
   13.6485   44.7925  134.6057 C   0  0  0  0  0  0  0  0  0  0  0  0
   12.6548   44.1084  133.9491 C   0  0  0  0  0  0  0  0  0  0  0  0
   11.4923   44.7121  133.4684 C   0  0  0  0  0  0  0  0  0  0  0  0
   15.3249   47.2487  135.0366 H   0  0  0  0  0  0  0  0  0  0  0  0
    8.0873   44.2302  133.7476 C   0  0  0  0  0  0  0  0  0  0  0  0
    7.3010   45.0826  134.4749 C   0  0  0  0  0  0  0  0  0  0  0  0
    6.1902   44.6313  135.1935 C   0  0  0  0  0  0  0  0  0  0  0  0
    5.8880   43.2930  135.1621 C   0  0  0  0  0  0  0  0  0  0  0  0
    6.6587   42.4074  134.4391 C   0  0  0  0  0  0  0  0  0  0  0  0
    6.1990   40.7220  134.4582 Cl  0  0  0  0  0  0  0  0  0  0  0  0
    7.7440   42.8838  133.7438 C   0  0  0  0  0  0  0  0  0  0  0  0
   10.6544   44.1157  131.2998 C   0  0  0  0  0  0  0  0  0  0  0  0
   11.8291   44.4366  130.7123 C   0  0  0  0  0  0  0  0  0  0  0  0
   11.8812   44.4890  129.3271 C   0  0  0  0  0  0  0  0  0  0  0  0
   10.8063   44.2326  128.5256 C   0  0  0  0  0  0  0  0  0  0  0  0
    9.6006   43.9029  129.1530 C   0  0  0  0  0  0  0  0  0  0  0  0
    9.5237   43.8443  130.5274 C   0  0  0  0  0  0  0  0  0  0  0  0
   10.7899   44.2650  127.1506 O   0  0  0  0  0  0  0  0  0  0  0  0
   10.0865   45.3027  126.4795 C   0  0  0  0  0  0  0  0  0  0  0  0
   10.2387   46.6049  127.2031 C   0  0  0  0  0  0  0  0  0  0  0  0
    9.4905   46.5269  128.4592 N   0  0  0  0  0  0  0  0  0  0  0  0
    8.0972   46.8576  128.2229 C   0  0  0  0  0  0  0  0  0  0  0  0
    7.6987   47.8120  129.3201 C   0  0  0  0  0  0  0  0  0  0  0  0
    9.0144   48.5062  129.6065 C   0  0  0  0  0  0  0  0  0  0  0  0
   10.0138   47.4014  129.4548 C   0  0  0  0  0  0  0  0  0  0  0  0
  1  2  1  0  0  0
  2  3  1  0  0  0
  3  4  1  0  0  0
  4  5  1  0  0  0
  5  6  1  0  0  0
  6  7  2  0  0  0
  7  8  1  0  0  0
  8  9  1  0  0  0
  8 10  2  0  0  0
 10 11  1  0  0  0
 11 12  2  0  0  0
  3 14  1  0  0  0
 14 15  2  0  0  0
 15 16  1  0  0  0
 16 17  2  0  0  0
 17 18  1  0  0  0
 18 19  1  0  0  0
 18 20  2  0  0  0
  2 21  1  0  0  0
 21 22  2  0  0  0
 22 23  1  0  0  0
 23 24  2  0  0  0
 24 27  1  0  0  0
 27 28  1  0  0  0
 28 29  1  0  0  0
 29 30  1  0  0  0
 30 31  1  0  0  0
 31 32  1  0  0  0
 32 33  1  0  0  0
 33 34  1  0  0  0
 24 25  1  0  0  0
 25 26  2  0  0  0
 12  2  1  0  0  0
 20 14  1  0  0  0
 26 21  1  0  0  0
 12  6  1  0  0  0
 34 30  1  0  0  0
  9 13  1  0  0  0
M  END
> <minimizedAffinity>
21.58243

> <CNNscore>
0.4030783176

> <CNNaffinity>
7.8484840393

> <CNN_VS>
3.1635537148

> <CNNaffinity_variance>
1.8432655334

$$$$
[H]Oc1c([H])c([H])c2c(c1[H])C([H])([H])C([H])([H])N(c1c([H])c([H])c([H])c(Cl)c1[H])C2(c1c([H])c([H])c(OC([H])([H])C([H])([H])N2C([H])([H])C([H])([H])C([H])([H])C2([H])[H])c([H])c1[H])C([H])([H])[H]


 34 38  0  0  0  0  0  0  0  0999 V2000
    7.5124   43.4886  131.0324 C   0  0  0  0  0  0  0  0  0  0  0  0
    8.3007   44.7046  130.6747 C   0  0  0  0  0  0  0  0  0  0  0  0
    9.4105   44.4754  129.7737 N   0  0  0  0  0  0  0  0  0  0  0  0
   10.3472   45.6129  129.6700 C   0  0  0  0  0  0  0  0  0  0  0  0
    9.6258   46.8012  129.0638 C   0  0  0  0  0  0  0  0  0  0  0  0
    8.1793   46.7780  129.3936 C   0  0  0  0  0  0  0  0  0  0  0  0
    7.4475   47.8521  128.8682 C   0  0  0  0  0  0  0  0  0  0  0  0
    6.0983   47.9900  129.0739 C   0  0  0  0  0  0  0  0  0  0  0  0
    5.3518   49.0431  128.5651 O   0  0  0  0  0  0  0  0  0  0  0  0
    5.4502   47.0331  129.8248 C   0  0  0  0  0  0  0  0  0  0  0  0
    6.1704   45.9820  130.3378 C   0  0  0  0  0  0  0  0  0  0  0  0
    7.5424   45.8201  130.1420 C   0  0  0  0  0  0  0  0  0  0  0  0
    5.1875   49.9204  129.0350 H   0  0  0  0  0  0  0  0  0  0  0  0
    9.6623   43.3530  128.9916 C   0  0  0  0  0  0  0  0  0  0  0  0
    9.9411   43.4625  127.6560 C   0  0  0  0  0  0  0  0  0  0  0  0
   10.1803   42.3409  126.8567 C   0  0  0  0  0  0  0  0  0  0  0  0
   10.1320   41.0987  127.4380 C   0  0  0  0  0  0  0  0  0  0  0  0
    9.8545   40.9528  128.7806 C   0  0  0  0  0  0  0  0  0  0  0  0
    9.8127   39.3330  129.4336 Cl  0  0  0  0  0  0  0  0  0  0  0  0
    9.6240   42.0760  129.5381 C   0  0  0  0  0  0  0  0  0  0  0  0
    8.9298   45.1303  131.9748 C   0  0  0  0  0  0  0  0  0  0  0  0
   10.2346   44.9734  132.2925 C   0  0  0  0  0  0  0  0  0  0  0  0
   10.6754   45.4428  133.5212 C   0  0  0  0  0  0  0  0  0  0  0  0
    9.8587   46.0561  134.4270 C   0  0  0  0  0  0  0  0  0  0  0  0
    8.5126   46.2083  134.0793 C   0  0  0  0  0  0  0  0  0  0  0  0
    8.0508   45.7504  132.8645 C   0  0  0  0  0  0  0  0  0  0  0  0
   10.2300   46.5449  135.6580 O   0  0  0  0  0  0  0  0  0  0  0  0
   10.6795   47.8888  135.7750 C   0  0  0  0  0  0  0  0  0  0  0  0
   10.9953   48.4648  134.4292 C   0  0  0  0  0  0  0  0  0  0  0  0
    9.7737   49.0564  133.8804 N   0  0  0  0  0  0  0  0  0  0  0  0
    9.3954   48.3626  132.6630 C   0  0  0  0  0  0  0  0  0  0  0  0
    9.0544   49.4326  131.6568 C   0  0  0  0  0  0  0  0  0  0  0  0
    9.9568   50.5641  132.1043 C   0  0  0  0  0  0  0  0  0  0  0  0
    9.9258   50.4443  133.5967 C   0  0  0  0  0  0  0  0  0  0  0  0
  1  2  1  0  0  0
  2  3  1  0  0  0
  3  4  1  0  0  0
  4  5  1  0  0  0
  5  6  1  0  0  0
  6  7  2  0  0  0
  7  8  1  0  0  0
  8  9  1  0  0  0
  8 10  2  0  0  0
 10 11  1  0  0  0
 11 12  2  0  0  0
  3 14  1  0  0  0
 14 15  2  0  0  0
 15 16  1  0  0  0
 16 17  2  0  0  0
 17 18  1  0  0  0
 18 19  1  0  0  0
 18 20  2  0  0  0
  2 21  1  0  0  0
 21 22  2  0  0  0
 22 23  1  0  0  0
 23 24  2  0  0  0
 24 27  1  0  0  0
 27 28  1  0  0  0
 28 29  1  0  0  0
 29 30  1  0  0  0
 30 31  1  0  0  0
 31 32  1  0  0  0
 32 33  1  0  0  0
 33 34  1  0  0  0
 24 25  1  0  0  0
 25 26  2  0  0  0
 12  2  1  0  0  0
 20 14  1  0  0  0
 26 21  1  0  0  0
 12  6  1  0  0  0
 34 30  1  0  0  0
  9 13  1  0  0  0
M  END
> <minimizedAffinity>
13.02783

> <CNNscore>
0.3852378726

> <CNNaffinity>
7.6043663025

> <CNN_VS>
2.9294898510

> <CNNaffinity_variance>
0.6518825889

$$$$
[H]Oc1c([H])c([H])c2c(c1[H])C([H])([H])C([H])([H])N(c1c([H])c([H])c([H])c(Cl)c1[H])C2(c1c([H])c([H])c(OC([H])([H])C([H])([H])N2C([H])([H])C([H])([H])C([H])([H])C2([H])[H])c([H])c1[H])C([H])([H])[H]


 34 38  0  0  0  0  0  0  0  0999 V2000
    8.6789   44.0942  132.6044 C   0  0  0  0  0  0  0  0  0  0  0  0
    9.4662   45.1896  131.9656 C   0  0  0  0  0  0  0  0  0  0  0  0
    9.7399   46.3280  132.8172 N   0  0  0  0  0  0  0  0  0  0  0  0
   10.2482   47.5122  132.0952 C   0  0  0  0  0  0  0  0  0  0  0  0
   11.5960   47.1838  131.4823 C   0  0  0  0  0  0  0  0  0  0  0  0
   11.6989   45.7415  131.1495 C   0  0  0  0  0  0  0  0  0  0  0  0
   12.9201   45.3649  130.5735 C   0  0  0  0  0  0  0  0  0  0  0  0
   13.1879   44.0715  130.2033 C   0  0  0  0  0  0  0  0  0  0  0  0
   14.3879   43.6735  129.6317 O   0  0  0  0  0  0  0  0  0  0  0  0
   12.2149   43.1174  130.4098 C   0  0  0  0  0  0  0  0  0  0  0  0
   11.0196   43.4901  130.9746 C   0  0  0  0  0  0  0  0  0  0  0  0
   10.7243   44.7983  131.3594 C   0  0  0  0  0  0  0  0  0  0  0  0
   14.5843   43.6576  128.6425 H   0  0  0  0  0  0  0  0  0  0  0  0
    9.6170   46.4134  134.2001 C   0  0  0  0  0  0  0  0  0  0  0  0
   10.2541   45.5295  135.0286 C   0  0  0  0  0  0  0  0  0  0  0  0
   10.1257   45.5958  136.4189 C   0  0  0  0  0  0  0  0  0  0  0  0
    9.3356   46.5795  136.9586 C   0  0  0  0  0  0  0  0  0  0  0  0
    8.6802   47.4863  136.1529 C   0  0  0  0  0  0  0  0  0  0  0  0
    7.6953   48.7034  136.9281 Cl  0  0  0  0  0  0  0  0  0  0  0  0
    8.8278   47.3932  134.7898 C   0  0  0  0  0  0  0  0  0  0  0  0
    8.5570   45.7144  130.8861 C   0  0  0  0  0  0  0  0  0  0  0  0
    8.9048   45.8735  129.5894 C   0  0  0  0  0  0  0  0  0  0  0  0
    7.9469   46.3426  128.7023 C   0  0  0  0  0  0  0  0  0  0  0  0
    6.6696   46.6519  129.0717 C   0  0  0  0  0  0  0  0  0  0  0  0
    6.3302   46.4805  130.4176 C   0  0  0  0  0  0  0  0  0  0  0  0
    7.2641   46.0158  131.3179 C   0  0  0  0  0  0  0  0  0  0  0  0
    5.6734   47.1181  128.2457 O   0  0  0  0  0  0  0  0  0  0  0  0
    5.5931   48.5076  127.9551 C   0  0  0  0  0  0  0  0  0  0  0  0
    5.2884   49.2947  129.1922 C   0  0  0  0  0  0  0  0  0  0  0  0
    6.3953   50.2214  129.4359 N   0  0  0  0  0  0  0  0  0  0  0  0
    7.6041   49.7194  128.8085 C   0  0  0  0  0  0  0  0  0  0  0  0
    8.7022   49.8673  129.8312 C   0  0  0  0  0  0  0  0  0  0  0  0
    7.9292   49.7179  131.1254 C   0  0  0  0  0  0  0  0  0  0  0  0
    6.6396   50.4176  130.8257 C   0  0  0  0  0  0  0  0  0  0  0  0
  1  2  1  0  0  0
  2  3  1  0  0  0
  3  4  1  0  0  0
  4  5  1  0  0  0
  5  6  1  0  0  0
  6  7  2  0  0  0
  7  8  1  0  0  0
  8  9  1  0  0  0
  8 10  2  0  0  0
 10 11  1  0  0  0
 11 12  2  0  0  0
  3 14  1  0  0  0
 14 15  2  0  0  0
 15 16  1  0  0  0
 16 17  2  0  0  0
 17 18  1  0  0  0
 18 19  1  0  0  0
 18 20  2  0  0  0
  2 21  1  0  0  0
 21 22  2  0  0  0
 22 23  1  0  0  0
 23 24  2  0  0  0
 24 27  1  0  0  0
 27 28  1  0  0  0
 28 29  1  0  0  0
 29 30  1  0  0  0
 30 31  1  0  0  0
 31 32  1  0  0  0
 32 33  1  0  0  0
 33 34  1  0  0  0
 24 25  1  0  0  0
 25 26  2  0  0  0
 12  2  1  0  0  0
 20 14  1  0  0  0
 26 21  1  0  0  0
 12  6  1  0  0  0
 34 30  1  0  0  0
  9 13  1  0  0  0
M  END
> <minimizedAffinity>
5.69392

> <CNNscore>
0.3672671616

> <CNNaffinity>
7.5128164291

> <CNN_VS>
2.7592108250

> <CNNaffinity_variance>
0.5014322400

$$$$
[H]Oc1c([H])c([H])c2c(c1[H])C([H])([H])C([H])([H])N(c1c([H])c([H])c([H])c(Cl)c1[H])C2(c1c([H])c([H])c(OC([H])([H])C([H])([H])N2C([H])([H])C([H])([H])C([H])([H])C2([H])[H])c([H])c1[H])C([H])([H])[H]


 34 38  0  0  0  0  0  0  0  0999 V2000
   11.9684   47.4103  131.9148 C   0  0  0  0  0  0  0  0  0  0  0  0
   10.5617   47.0542  132.2646 C   0  0  0  0  0  0  0  0  0  0  0  0
   10.1319   45.7428  131.8268 N   0  0  0  0  0  0  0  0  0  0  0  0
    8.6731   45.5274  131.9117 C   0  0  0  0  0  0  0  0  0  0  0  0
    8.2427   45.5851  133.3648 C   0  0  0  0  0  0  0  0  0  0  0  0
    9.1268   46.4791  134.1528 C   0  0  0  0  0  0  0  0  0  0  0  0
    8.7852   46.5847  135.5082 C   0  0  0  0  0  0  0  0  0  0  0  0
    9.4939   47.3675  136.3838 C   0  0  0  0  0  0  0  0  0  0  0  0
    9.1763   47.4888  137.7290 O   0  0  0  0  0  0  0  0  0  0  0  0
   10.5778   48.0700  135.9029 C   0  0  0  0  0  0  0  0  0  0  0  0
   10.9096   47.9638  134.5743 C   0  0  0  0  0  0  0  0  0  0  0  0
   10.2047   47.1744  133.6650 C   0  0  0  0  0  0  0  0  0  0  0  0
    8.5522   48.1781  138.1197 H   0  0  0  0  0  0  0  0  0  0  0  0
   10.9204   44.6851  131.3858 C   0  0  0  0  0  0  0  0  0  0  0  0
   10.5973   43.3864  131.6737 C   0  0  0  0  0  0  0  0  0  0  0  0
   11.3901   42.3163  131.2493 C   0  0  0  0  0  0  0  0  0  0  0  0
   12.5230   42.5865  130.5234 C   0  0  0  0  0  0  0  0  0  0  0  0
   12.8772   43.8829  130.2155 C   0  0  0  0  0  0  0  0  0  0  0  0
   14.3368   44.1313  129.2883 Cl  0  0  0  0  0  0  0  0  0  0  0  0
   12.0758   44.9120  130.6481 C   0  0  0  0  0  0  0  0  0  0  0  0
    9.7286   48.0267  131.4725 C   0  0  0  0  0  0  0  0  0  0  0  0
    9.7682   48.1660  130.1283 C   0  0  0  0  0  0  0  0  0  0  0  0
    8.9180   49.0878  129.5353 C   0  0  0  0  0  0  0  0  0  0  0  0
    8.0419   49.8622  130.2399 C   0  0  0  0  0  0  0  0  0  0  0  0
    8.0167   49.7030  131.6292 C   0  0  0  0  0  0  0  0  0  0  0  0
    8.8516   48.7938  132.2414 C   0  0  0  0  0  0  0  0  0  0  0  0
    7.1727   50.7908  129.7162 O   0  0  0  0  0  0  0  0  0  0  0  0
    5.7876   50.4835  129.6221 C   0  0  0  0  0  0  0  0  0  0  0  0
    5.4903   49.7430  128.3549 C   0  0  0  0  0  0  0  0  0  0  0  0
    5.1220   48.3681  128.6974 N   0  0  0  0  0  0  0  0  0  0  0  0
    5.2483   48.1674  130.1294 C   0  0  0  0  0  0  0  0  0  0  0  0
    5.9678   46.8545  130.3090 C   0  0  0  0  0  0  0  0  0  0  0  0
    6.8234   46.8077  129.0598 C   0  0  0  0  0  0  0  0  0  0  0  0
    5.9282   47.4082  128.0203 C   0  0  0  0  0  0  0  0  0  0  0  0
  1  2  1  0  0  0
  2  3  1  0  0  0
  3  4  1  0  0  0
  4  5  1  0  0  0
  5  6  1  0  0  0
  6  7  2  0  0  0
  7  8  1  0  0  0
  8  9  1  0  0  0
  8 10  2  0  0  0
 10 11  1  0  0  0
 11 12  2  0  0  0
  3 14  1  0  0  0
 14 15  2  0  0  0
 15 16  1  0  0  0
 16 17  2  0  0  0
 17 18  1  0  0  0
 18 19  1  0  0  0
 18 20  2  0  0  0
  2 21  1  0  0  0
 21 22  2  0  0  0
 22 23  1  0  0  0
 23 24  2  0  0  0
 24 27  1  0  0  0
 27 28  1  0  0  0
 28 29  1  0  0  0
 29 30  1  0  0  0
 30 31  1  0  0  0
 31 32  1  0  0  0
 32 33  1  0  0  0
 33 34  1  0  0  0
 24 25  1  0  0  0
 25 26  2  0  0  0
 12  2  1  0  0  0
 20 14  1  0  0  0
 26 21  1  0  0  0
 12  6  1  0  0  0
 34 30  1  0  0  0
  9 13  1  0  0  0
M  END
> <minimizedAffinity>
12.06753

> <CNNscore>
0.3619070351

> <CNNaffinity>
7.5297026634

> <CNN_VS>
2.7250523567

> <CNNaffinity_variance>
0.7141745090

$$$$
[H]Oc1c([H])c([H])c2c(c1[H])C([H])([H])C([H])([H])N(c1c([H])c([H])c([H])c(Cl)c1[H])C2(c1c([H])c([H])c(OC([H])([H])C([H])([H])N2C([H])([H])C([H])([H])C([H])([H])C2([H])[H])c([H])c1[H])C([H])([H])[H]


 34 38  0  0  0  0  0  0  0  0999 V2000
    7.2081   45.4999  130.8465 C   0  0  0  0  0  0  0  0  0  0  0  0
    8.2634   46.5554  130.8548 C   0  0  0  0  0  0  0  0  0  0  0  0
    9.5066   46.1877  130.2103 N   0  0  0  0  0  0  0  0  0  0  0  0
   10.6249   47.1124  130.4862 C   0  0  0  0  0  0  0  0  0  0  0  0
   10.3023   48.4751  129.9039 C   0  0  0  0  0  0  0  0  0  0  0  0
    8.8389   48.7197  129.8854 C   0  0  0  0  0  0  0  0  0  0  0  0
    8.4658   49.9657  129.3625 C   0  0  0  0  0  0  0  0  0  0  0  0
    7.1549   50.3587  129.2697 C   0  0  0  0  0  0  0  0  0  0  0  0
    6.7598   51.5858  128.7564 O   0  0  0  0  0  0  0  0  0  0  0  0
    6.1791   49.4900  129.7088 C   0  0  0  0  0  0  0  0  0  0  0  0
    6.5484   48.2699  130.2203 C   0  0  0  0  0  0  0  0  0  0  0  0
    7.8743   47.8479  130.3246 C   0  0  0  0  0  0  0  0  0  0  0  0
    6.6398   52.4303  129.2946 H   0  0  0  0  0  0  0  0  0  0  0  0
    9.7455   45.1154  129.3570 C   0  0  0  0  0  0  0  0  0  0  0  0
   10.1458   45.3098  128.0625 C   0  0  0  0  0  0  0  0  0  0  0  0
   10.3739   44.2408  127.1912 C   0  0  0  0  0  0  0  0  0  0  0  0
   10.1882   42.9635  127.6573 C   0  0  0  0  0  0  0  0  0  0  0  0
    9.7860   42.7323  128.9556 C   0  0  0  0  0  0  0  0  0  0  0  0
    9.5740   41.0734  129.4608 Cl  0  0  0  0  0  0  0  0  0  0  0  0
    9.5703   43.8056  129.7863 C   0  0  0  0  0  0  0  0  0  0  0  0
    8.6080   46.7191  132.3114 C   0  0  0  0  0  0  0  0  0  0  0  0
    8.6402   45.7164  133.2178 C   0  0  0  0  0  0  0  0  0  0  0  0
    9.0042   46.0176  134.5221 C   0  0  0  0  0  0  0  0  0  0  0  0
    9.3324   47.2758  134.9380 C   0  0  0  0  0  0  0  0  0  0  0  0
    9.2926   48.2988  133.9851 C   0  0  0  0  0  0  0  0  0  0  0  0
    8.9341   48.0246  132.6832 C   0  0  0  0  0  0  0  0  0  0  0  0
    9.7028   47.6417  136.2111 O   0  0  0  0  0  0  0  0  0  0  0  0
   11.0460   48.0306  136.4687 C   0  0  0  0  0  0  0  0  0  0  0  0
   11.9208   47.7421  135.2880 C   0  0  0  0  0  0  0  0  0  0  0  0
   13.1720   48.4858  135.4459 N   0  0  0  0  0  0  0  0  0  0  0  0
   14.2621   47.5641  135.7080 C   0  0  0  0  0  0  0  0  0  0  0  0
   15.0471   48.1544  136.8521 C   0  0  0  0  0  0  0  0  0  0  0  0
   13.9654   48.9022  137.6041 C   0  0  0  0  0  0  0  0  0  0  0  0
   13.1043   49.4388  136.5027 C   0  0  0  0  0  0  0  0  0  0  0  0
  1  2  1  0  0  0
  2  3  1  0  0  0
  3  4  1  0  0  0
  4  5  1  0  0  0
  5  6  1  0  0  0
  6  7  2  0  0  0
  7  8  1  0  0  0
  8  9  1  0  0  0
  8 10  2  0  0  0
 10 11  1  0  0  0
 11 12  2  0  0  0
  3 14  1  0  0  0
 14 15  2  0  0  0
 15 16  1  0  0  0
 16 17  2  0  0  0
 17 18  1  0  0  0
 18 19  1  0  0  0
 18 20  2  0  0  0
  2 21  1  0  0  0
 21 22  2  0  0  0
 22 23  1  0  0  0
 23 24  2  0  0  0
 24 27  1  0  0  0
 27 28  1  0  0  0
 28 29  1  0  0  0
 29 30  1  0  0  0
 30 31  1  0  0  0
 31 32  1  0  0  0
 32 33  1  0  0  0
 33 34  1  0  0  0
 24 25  1  0  0  0
 25 26  2  0  0  0
 12  2  1  0  0  0
 20 14  1  0  0  0
 26 21  1  0  0  0
 12  6  1  0  0  0
 34 30  1  0  0  0
  9 13  1  0  0  0
M  END
> <minimizedAffinity>
13.24018

> <CNNscore>
0.3426855206

> <CNNaffinity>
7.6166715622

> <CNN_VS>
2.6101231575

> <CNNaffinity_variance>
1.1510868073

$$$$
[H]Oc1c([H])c([H])c(C([H])([H])C([H])([H])[C@]([H])(N([H])C(=O)C([H])([H])c2c(-c3c([H])c([H])c([H])c([H])c3[H])n(C([H])([H])c3c([H])c([H])c(OC([H])([H])C([H])([H])N4C([H])([H])C([H])([H])C([H])([H])C([H])([H])C4([H])[H])c([H])c3[H])c3c([H])c([H])c([H])c([H])c23)C([H])([H])[H])c([H])c1[H]


 48 53  0  0  0  0  0  0  0  0999 V2000
   10.0190   45.5391  131.5482 C   0  0  0  0  0  0  0  0  0  0  0  0
    9.7702   46.8281  131.2288 C   0  0  0  0  0  0  0  0  0  0  0  0
    9.8746   46.9792  129.8697 N   0  0  0  0  0  0  0  0  0  0  0  0
   10.2055   45.7712  129.3081 C   0  0  0  0  0  0  0  0  0  0  0  0
   10.4298   45.4253  127.9655 C   0  0  0  0  0  0  0  0  0  0  0  0
   10.7570   44.1221  127.6611 C   0  0  0  0  0  0  0  0  0  0  0  0
   10.8522   43.2072  128.6800 C   0  0  0  0  0  0  0  0  0  0  0  0
   10.6278   43.5617  130.0041 C   0  0  0  0  0  0  0  0  0  0  0  0
   10.3011   44.8656  130.3079 C   0  0  0  0  0  0  0  0  0  0  0  0
    9.6529   48.0157  132.0995 C   0  0  0  0  0  0  0  0  0  0  0  0
   10.1262   49.2563  131.7294 C   0  0  0  0  0  0  0  0  0  0  0  0
   10.1509   50.3765  132.5125 C   0  0  0  0  0  0  0  0  0  0  0  0
    9.6596   50.2790  133.7926 C   0  0  0  0  0  0  0  0  0  0  0  0
    9.1752   49.0682  134.2078 C   0  0  0  0  0  0  0  0  0  0  0  0
    9.1661   47.9595  133.3954 C   0  0  0  0  0  0  0  0  0  0  0  0
    9.9876   44.7489  132.7538 C   0  0  0  0  0  0  0  0  0  0  0  0
    8.1467   43.0531  133.1174 N   0  0  0  0  0  0  0  0  0  0  0  0
    9.5495   43.4029  132.9151 C   0  0  0  0  0  0  0  0  0  0  0  0
   10.2852   42.4018  132.9023 O   0  0  0  0  0  0  0  0  0  0  0  0
    7.4843   43.8372  133.1403 H   0  0  0  0  0  0  0  0  0  0  0  0
    6.6747   41.2824  132.2259 C   0  0  0  0  0  0  0  0  0  0  0  0
    7.6930   41.7086  133.2781 C   0  0  0  0  0  0  0  0  0  0  0  0
    7.2082   41.4360  134.6630 C   0  0  0  0  0  0  0  0  0  0  0  0
    5.7086   41.2165  134.7010 C   0  0  0  0  0  0  0  0  0  0  0  0
    5.1074   42.0569  135.7657 C   0  0  0  0  0  0  0  0  0  0  0  0
    5.4322   41.8450  137.0736 C   0  0  0  0  0  0  0  0  0  0  0  0
    4.9003   42.6001  138.1152 C   0  0  0  0  0  0  0  0  0  0  0  0
    4.0095   43.6007  137.7957 C   0  0  0  0  0  0  0  0  0  0  0  0
    3.4492   44.3846  138.7950 O   0  0  0  0  0  0  0  0  0  0  0  0
    3.6764   43.8199  136.4701 C   0  0  0  0  0  0  0  0  0  0  0  0
    4.2092   43.0644  135.4374 C   0  0  0  0  0  0  0  0  0  0  0  0
    2.5655   44.1021  139.2426 H   0  0  0  0  0  0  0  0  0  0  0  0
    9.5906   48.1302  129.0617 C   0  0  0  0  0  0  0  0  0  0  0  0
    8.1742   48.5489  129.0259 C   0  0  0  0  0  0  0  0  0  0  0  0
    7.7668   49.8469  129.1032 C   0  0  0  0  0  0  0  0  0  0  0  0
    6.4606   50.2425  129.0363 C   0  0  0  0  0  0  0  0  0  0  0  0
    5.4213   49.2893  128.8775 C   0  0  0  0  0  0  0  0  0  0  0  0
    5.8341   47.9802  128.8010 C   0  0  0  0  0  0  0  0  0  0  0  0
    7.1516   47.5886  128.8694 C   0  0  0  0  0  0  0  0  0  0  0  0
    4.1477   49.7156  128.8098 O   0  0  0  0  0  0  0  0  0  0  0  0
    3.2553   50.0479  127.8278 C   0  0  0  0  0  0  0  0  0  0  0  0
    2.4185   51.2259  128.0923 C   0  0  0  0  0  0  0  0  0  0  0  0
    1.7482   51.8019  126.9847 N   0  0  0  0  0  0  0  0  0  0  0  0
    0.4600   52.3496  127.2679 C   0  0  0  0  0  0  0  0  0  0  0  0
    0.6566   53.7874  127.7291 C   0  0  0  0  0  0  0  0  0  0  0  0
    1.2571   54.5378  126.5501 C   0  0  0  0  0  0  0  0  0  0  0  0
    2.5810   53.9426  126.1196 C   0  0  0  0  0  0  0  0  0  0  0  0
    2.4802   52.4379  125.9730 C   0  0  0  0  0  0  0  0  0  0  0  0
 21 22  1  0  0  0
 22 23  1  0  0  0
 23 24  1  0  0  0
 24 25  1  0  0  0
 25 26  2  0  0  0
 26 27  1  0  0  0
 27 28  2  0  0  0
 28 29  1  0  0  0
 28 30  1  0  0  0
 30 31  2  0  0  0
 22 17  1  0  0  0
 17 18  1  0  0  0
 18 19  2  0  0  0
 18 16  1  0  0  0
 16  1  1  0  0  0
  1  2  2  0  0  0
  2 10  1  0  0  0
 10 11  2  0  0  0
 11 12  1  0  0  0
 12 13  2  0  0  0
 13 14  1  0  0  0
 14 15  2  0  0  0
  2  3  1  0  0  0
  3 33  1  0  0  0
 33 34  1  0  0  0
 34 35  2  0  0  0
 35 36  1  0  0  0
 36 37  2  0  0  0
 37 40  1  0  0  0
 40 41  1  0  0  0
 41 42  1  0  0  0
 42 43  1  0  0  0
 43 44  1  0  0  0
 44 45  1  0  0  0
 45 46  1  0  0  0
 46 47  1  0  0  0
 47 48  1  0  0  0
 37 38  1  0  0  0
 38 39  2  0  0  0
  3  4  1  0  0  0
  4  5  2  0  0  0
  5  6  1  0  0  0
  6  7  2  0  0  0
  7  8  1  0  0  0
  8  9  2  0  0  0
 31 25  1  0  0  0
  9  1  1  0  0  0
 15 10  1  0  0  0
 39 34  1  0  0  0
  9  4  1  0  0  0
 48 43  1  0  0  0
 29 32  1  0  0  0
 17 20  1  0  0  0
M  END
> <minimizedAffinity>
28.79265

> <CNNscore>
0.4333017766

> <CNNaffinity>
7.6970038414

> <CNN_VS>
3.3351254463

> <CNNaffinity_variance>
0.4970428944

$$$$
[H]Oc1c([H])c([H])c(C([H])([H])C([H])([H])[C@]([H])(N([H])C(=O)C([H])([H])c2c(-c3c([H])c([H])c([H])c([H])c3[H])n(C([H])([H])c3c([H])c([H])c(OC([H])([H])C([H])([H])N4C([H])([H])C([H])([H])C([H])([H])C([H])([H])C4([H])[H])c([H])c3[H])c3c([H])c([H])c([H])c([H])c23)C([H])([H])[H])c([H])c1[H]


 48 53  0  0  0  0  0  0  0  0999 V2000
    9.9805   45.8564  130.8111 C   0  0  0  0  0  0  0  0  0  0  0  0
    9.7008   47.1440  130.5120 C   0  0  0  0  0  0  0  0  0  0  0  0
    9.6053   47.2752  129.1502 N   0  0  0  0  0  0  0  0  0  0  0  0
    9.8370   46.0555  128.5647 C   0  0  0  0  0  0  0  0  0  0  0  0
    9.8571   45.6885  127.2091 C   0  0  0  0  0  0  0  0  0  0  0  0
   10.1220   44.3772  126.8800 C   0  0  0  0  0  0  0  0  0  0  0  0
   10.3568   43.4751  127.8877 C   0  0  0  0  0  0  0  0  0  0  0  0
   10.3340   43.8505  129.2247 C   0  0  0  0  0  0  0  0  0  0  0  0
   10.0694   45.1625  129.5533 C   0  0  0  0  0  0  0  0  0  0  0  0
    9.7258   48.3447  131.3721 C   0  0  0  0  0  0  0  0  0  0  0  0
   10.2971   48.3465  132.6266 C   0  0  0  0  0  0  0  0  0  0  0  0
   10.2714   49.3784  133.5229 C   0  0  0  0  0  0  0  0  0  0  0  0
    9.6220   50.5335  133.1576 C   0  0  0  0  0  0  0  0  0  0  0  0
    9.0398   50.5831  131.9200 C   0  0  0  0  0  0  0  0  0  0  0  0
    9.0822   49.5265  131.0420 C   0  0  0  0  0  0  0  0  0  0  0  0
   10.1189   45.0833  132.0201 C   0  0  0  0  0  0  0  0  0  0  0  0
    8.7547   43.2692  133.1361 N   0  0  0  0  0  0  0  0  0  0  0  0
    9.8102   43.7080  132.2280 C   0  0  0  0  0  0  0  0  0  0  0  0
   10.3834   42.7524  131.6786 O   0  0  0  0  0  0  0  0  0  0  0  0
    8.2419   44.0120  133.6252 H   0  0  0  0  0  0  0  0  0  0  0  0
    6.9991   41.6746  133.8229 C   0  0  0  0  0  0  0  0  0  0  0  0
    8.4329   41.8948  133.3524 C   0  0  0  0  0  0  0  0  0  0  0  0
    9.4201   41.2149  134.2415 C   0  0  0  0  0  0  0  0  0  0  0  0
    9.7632   42.0610  135.4517 C   0  0  0  0  0  0  0  0  0  0  0  0
   10.6405   43.1855  135.0427 C   0  0  0  0  0  0  0  0  0  0  0  0
   11.8087   42.9403  134.3821 C   0  0  0  0  0  0  0  0  0  0  0  0
   12.6720   43.9533  133.9743 C   0  0  0  0  0  0  0  0  0  0  0  0
   12.3179   45.2539  134.2567 C   0  0  0  0  0  0  0  0  0  0  0  0
   13.1417   46.3031  133.8724 O   0  0  0  0  0  0  0  0  0  0  0  0
   11.1337   45.5083  134.9269 C   0  0  0  0  0  0  0  0  0  0  0  0
   10.2783   44.4953  135.3307 C   0  0  0  0  0  0  0  0  0  0  0  0
   13.8785   46.6439  134.5064 H   0  0  0  0  0  0  0  0  0  0  0  0
    9.2173   48.4186  128.3753 C   0  0  0  0  0  0  0  0  0  0  0  0
    7.8213   48.8667  128.5570 C   0  0  0  0  0  0  0  0  0  0  0  0
    7.4576   50.1730  128.6925 C   0  0  0  0  0  0  0  0  0  0  0  0
    6.1653   50.5958  128.8266 C   0  0  0  0  0  0  0  0  0  0  0  0
    5.0944   49.6646  128.8328 C   0  0  0  0  0  0  0  0  0  0  0  0
    5.4632   48.3472  128.6974 C   0  0  0  0  0  0  0  0  0  0  0  0
    6.7672   47.9281  128.5630 C   0  0  0  0  0  0  0  0  0  0  0  0
    3.8347   50.1175  128.9612 O   0  0  0  0  0  0  0  0  0  0  0  0
    2.8100   50.4727  128.1275 C   0  0  0  0  0  0  0  0  0  0  0  0
    2.6295   51.9142  127.9099 C   0  0  0  0  0  0  0  0  0  0  0  0
    1.7895   52.3038  126.8373 N   0  0  0  0  0  0  0  0  0  0  0  0
    1.1982   53.5976  126.9635 C   0  0  0  0  0  0  0  0  0  0  0  0
    2.1776   54.6145  126.3929 C   0  0  0  0  0  0  0  0  0  0  0  0
    2.3234   54.2870  124.9147 C   0  0  0  0  0  0  0  0  0  0  0  0
    2.8452   52.8823  124.6983 C   0  0  0  0  0  0  0  0  0  0  0  0
    2.0736   51.8798  125.5321 C   0  0  0  0  0  0  0  0  0  0  0  0
 21 22  1  0  0  0
 22 23  1  0  0  0
 23 24  1  0  0  0
 24 25  1  0  0  0
 25 26  2  0  0  0
 26 27  1  0  0  0
 27 28  2  0  0  0
 28 29  1  0  0  0
 28 30  1  0  0  0
 30 31  2  0  0  0
 22 17  1  0  0  0
 17 18  1  0  0  0
 18 19  2  0  0  0
 18 16  1  0  0  0
 16  1  1  0  0  0
  1  2  2  0  0  0
  2 10  1  0  0  0
 10 11  2  0  0  0
 11 12  1  0  0  0
 12 13  2  0  0  0
 13 14  1  0  0  0
 14 15  2  0  0  0
  2  3  1  0  0  0
  3 33  1  0  0  0
 33 34  1  0  0  0
 34 35  2  0  0  0
 35 36  1  0  0  0
 36 37  2  0  0  0
 37 40  1  0  0  0
 40 41  1  0  0  0
 41 42  1  0  0  0
 42 43  1  0  0  0
 43 44  1  0  0  0
 44 45  1  0  0  0
 45 46  1  0  0  0
 46 47  1  0  0  0
 47 48  1  0  0  0
 37 38  1  0  0  0
 38 39  2  0  0  0
  3  4  1  0  0  0
  4  5  2  0  0  0
  5  6  1  0  0  0
  6  7  2  0  0  0
  7  8  1  0  0  0
  8  9  2  0  0  0
 31 25  1  0  0  0
  9  1  1  0  0  0
 15 10  1  0  0  0
 39 34  1  0  0  0
  9  4  1  0  0  0
 48 43  1  0  0  0
 29 32  1  0  0  0
 17 20  1  0  0  0
M  END
> <minimizedAffinity>
15.78348

> <CNNscore>
0.4042659700

> <CNNaffinity>
7.7905364037

> <CNN_VS>
3.1494488716

> <CNNaffinity_variance>
0.5480788946

$$$$
[H]Oc1c([H])c([H])c(C([H])([H])C([H])([H])[C@]([H])(N([H])C(=O)C([H])([H])c2c(-c3c([H])c([H])c([H])c([H])c3[H])n(C([H])([H])c3c([H])c([H])c(OC([H])([H])C([H])([H])N4C([H])([H])C([H])([H])C([H])([H])C([H])([H])C4([H])[H])c([H])c3[H])c3c([H])c([H])c([H])c([H])c23)C([H])([H])[H])c([H])c1[H]


 48 53  0  0  0  0  0  0  0  0999 V2000
    9.3732   44.9431  132.0225 C   0  0  0  0  0  0  0  0  0  0  0  0
    9.6259   46.1308  131.4299 C   0  0  0  0  0  0  0  0  0  0  0  0
    9.9518   45.9133  130.1156 N   0  0  0  0  0  0  0  0  0  0  0  0
    9.9178   44.5646  129.8622 C   0  0  0  0  0  0  0  0  0  0  0  0
   10.1823   43.8564  128.6785 C   0  0  0  0  0  0  0  0  0  0  0  0
   10.0787   42.4827  128.6893 C   0  0  0  0  0  0  0  0  0  0  0  0
    9.7205   41.8539  129.8558 C   0  0  0  0  0  0  0  0  0  0  0  0
    9.4613   42.5657  131.0200 C   0  0  0  0  0  0  0  0  0  0  0  0
    9.5656   43.9398  131.0087 C   0  0  0  0  0  0  0  0  0  0  0  0
    9.8113   47.4689  132.0276 C   0  0  0  0  0  0  0  0  0  0  0  0
   11.0265   47.9025  132.5127 C   0  0  0  0  0  0  0  0  0  0  0  0
   11.2591   49.0779  133.1709 C   0  0  0  0  0  0  0  0  0  0  0  0
   10.1947   49.9230  133.3766 C   0  0  0  0  0  0  0  0  0  0  0  0
    8.9662   49.5391  132.9114 C   0  0  0  0  0  0  0  0  0  0  0  0
    8.7653   48.3487  132.2542 C   0  0  0  0  0  0  0  0  0  0  0  0
    8.9157   44.5128  133.3203 C   0  0  0  0  0  0  0  0  0  0  0  0
    7.1174   42.8774  134.0191 N   0  0  0  0  0  0  0  0  0  0  0  0
    8.5082   43.2087  133.7243 C   0  0  0  0  0  0  0  0  0  0  0  0
    9.2633   42.2326  133.8676 O   0  0  0  0  0  0  0  0  0  0  0  0
    6.4402   43.6429  133.9218 H   0  0  0  0  0  0  0  0  0  0  0  0
    6.4899   40.6147  133.2553 C   0  0  0  0  0  0  0  0  0  0  0  0
    6.6942   41.5745  134.4227 C   0  0  0  0  0  0  0  0  0  0  0  0
    5.5031   41.6185  135.3208 C   0  0  0  0  0  0  0  0  0  0  0  0
    4.5202   42.6930  134.8993 C   0  0  0  0  0  0  0  0  0  0  0  0
    4.0763   43.4590  136.0898 C   0  0  0  0  0  0  0  0  0  0  0  0
    4.0076   42.8531  137.3102 C   0  0  0  0  0  0  0  0  0  0  0  0
    3.5981   43.5195  138.4617 C   0  0  0  0  0  0  0  0  0  0  0  0
    3.2508   44.8474  138.3483 C   0  0  0  0  0  0  0  0  0  0  0  0
    2.8359   45.5604  139.4648 O   0  0  0  0  0  0  0  0  0  0  0  0
    3.3186   45.4671  137.1124 C   0  0  0  0  0  0  0  0  0  0  0  0
    3.7268   44.7980  135.9692 C   0  0  0  0  0  0  0  0  0  0  0  0
    1.8381   45.5933  139.7186 H   0  0  0  0  0  0  0  0  0  0  0  0
   10.1879   46.8678  129.0709 C   0  0  0  0  0  0  0  0  0  0  0  0
    9.2617   48.0184  129.0388 C   0  0  0  0  0  0  0  0  0  0  0  0
    9.5441   49.2325  129.5893 C   0  0  0  0  0  0  0  0  0  0  0  0
    8.7058   50.3101  129.5329 C   0  0  0  0  0  0  0  0  0  0  0  0
    7.4515   50.2195  128.8752 C   0  0  0  0  0  0  0  0  0  0  0  0
    7.1678   48.9936  128.3215 C   0  0  0  0  0  0  0  0  0  0  0  0
    8.0167   47.9122  128.3823 C   0  0  0  0  0  0  0  0  0  0  0  0
    6.6547   51.3022  128.8346 O   0  0  0  0  0  0  0  0  0  0  0  0
    6.8034   52.6458  128.6257 C   0  0  0  0  0  0  0  0  0  0  0  0
    6.7261   53.0907  127.2278 C   0  0  0  0  0  0  0  0  0  0  0  0
    7.7532   53.9519  126.7680 N   0  0  0  0  0  0  0  0  0  0  0  0
    8.1608   53.7480  125.4146 C   0  0  0  0  0  0  0  0  0  0  0  0
    7.2467   54.5776  124.5231 C   0  0  0  0  0  0  0  0  0  0  0  0
    7.4924   56.0326  124.8926 C   0  0  0  0  0  0  0  0  0  0  0  0
    7.1847   56.3028  126.3502 C   0  0  0  0  0  0  0  0  0  0  0  0
    7.8340   55.2670  127.2454 C   0  0  0  0  0  0  0  0  0  0  0  0
 21 22  1  0  0  0
 22 23  1  0  0  0
 23 24  1  0  0  0
 24 25  1  0  0  0
 25 26  2  0  0  0
 26 27  1  0  0  0
 27 28  2  0  0  0
 28 29  1  0  0  0
 28 30  1  0  0  0
 30 31  2  0  0  0
 22 17  1  0  0  0
 17 18  1  0  0  0
 18 19  2  0  0  0
 18 16  1  0  0  0
 16  1  1  0  0  0
  1  2  2  0  0  0
  2 10  1  0  0  0
 10 11  2  0  0  0
 11 12  1  0  0  0
 12 13  2  0  0  0
 13 14  1  0  0  0
 14 15  2  0  0  0
  2  3  1  0  0  0
  3 33  1  0  0  0
 33 34  1  0  0  0
 34 35  2  0  0  0
 35 36  1  0  0  0
 36 37  2  0  0  0
 37 40  1  0  0  0
 40 41  1  0  0  0
 41 42  1  0  0  0
 42 43  1  0  0  0
 43 44  1  0  0  0
 44 45  1  0  0  0
 45 46  1  0  0  0
 46 47  1  0  0  0
 47 48  1  0  0  0
 37 38  1  0  0  0
 38 39  2  0  0  0
  3  4  1  0  0  0
  4  5  2  0  0  0
  5  6  1  0  0  0
  6  7  2  0  0  0
  7  8  1  0  0  0
  8  9  2  0  0  0
 31 25  1  0  0  0
  9  1  1  0  0  0
 15 10  1  0  0  0
 39 34  1  0  0  0
  9  4  1  0  0  0
 48 43  1  0  0  0
 29 32  1  0  0  0
 17 20  1  0  0  0
M  END
> <minimizedAffinity>
31.10695

> <CNNscore>
0.3954095542

> <CNNaffinity>
7.4987640381

> <CNN_VS>
2.9650828838

> <CNNaffinity_variance>
0.3153469563

$$$$
[H]Oc1c([H])c([H])c(C([H])([H])C([H])([H])[C@]([H])(N([H])C(=O)C([H])([H])c2c(-c3c([H])c([H])c([H])c([H])c3[H])n(C([H])([H])c3c([H])c([H])c(OC([H])([H])C([H])([H])N4C([H])([H])C([H])([H])C([H])([H])C([H])([H])C4([H])[H])c([H])c3[H])c3c([H])c([H])c([H])c([H])c23)C([H])([H])[H])c([H])c1[H]


 48 53  0  0  0  0  0  0  0  0999 V2000
    9.6098   47.2951  131.8734 C   0  0  0  0  0  0  0  0  0  0  0  0
   10.1052   46.0417  131.7780 C   0  0  0  0  0  0  0  0  0  0  0  0
   10.0277   45.4366  133.0063 N   0  0  0  0  0  0  0  0  0  0  0  0
    9.4836   46.3179  133.9071 C   0  0  0  0  0  0  0  0  0  0  0  0
    9.2145   46.1653  135.2771 C   0  0  0  0  0  0  0  0  0  0  0  0
    8.6590   47.2209  135.9664 C   0  0  0  0  0  0  0  0  0  0  0  0
    8.3875   48.3846  135.2907 C   0  0  0  0  0  0  0  0  0  0  0  0
    8.6582   48.5230  133.9354 C   0  0  0  0  0  0  0  0  0  0  0  0
    9.2144   47.4669  133.2466 C   0  0  0  0  0  0  0  0  0  0  0  0
   10.8630   45.4019  130.6832 C   0  0  0  0  0  0  0  0  0  0  0  0
   12.2119   45.1329  130.7736 C   0  0  0  0  0  0  0  0  0  0  0  0
   13.0049   44.6415  129.7744 C   0  0  0  0  0  0  0  0  0  0  0  0
   12.4213   44.3815  128.5572 C   0  0  0  0  0  0  0  0  0  0  0  0
   11.0827   44.6296  128.4169 C   0  0  0  0  0  0  0  0  0  0  0  0
   10.3131   45.1259  129.4419 C   0  0  0  0  0  0  0  0  0  0  0  0
    9.3448   48.3740  130.9544 C   0  0  0  0  0  0  0  0  0  0  0  0
    7.6077   47.7825  129.2138 N   0  0  0  0  0  0  0  0  0  0  0  0
    8.1376   48.6594  130.2536 C   0  0  0  0  0  0  0  0  0  0  0  0
    7.4176   49.6548  130.4394 O   0  0  0  0  0  0  0  0  0  0  0  0
    8.1582   46.9404  129.0092 H   0  0  0  0  0  0  0  0  0  0  0  0
    5.8393   49.4482  128.7723 C   0  0  0  0  0  0  0  0  0  0  0  0
    6.3982   48.0547  128.5050 C   0  0  0  0  0  0  0  0  0  0  0  0
    5.3689   46.9941  128.7125 C   0  0  0  0  0  0  0  0  0  0  0  0
    4.6038   47.1981  130.0053 C   0  0  0  0  0  0  0  0  0  0  0  0
    3.2837   46.5267  129.9160 C   0  0  0  0  0  0  0  0  0  0  0  0
    2.8453   46.0291  128.7238 C   0  0  0  0  0  0  0  0  0  0  0  0
    1.6170   45.3906  128.5784 C   0  0  0  0  0  0  0  0  0  0  0  0
    0.8212   45.2630  129.6953 C   0  0  0  0  0  0  0  0  0  0  0  0
   -0.4133   44.6343  129.6073 O   0  0  0  0  0  0  0  0  0  0  0  0
    1.2611   45.7663  130.9075 C   0  0  0  0  0  0  0  0  0  0  0  0
    2.4853   46.4015  131.0458 C   0  0  0  0  0  0  0  0  0  0  0  0
   -1.2597   45.1798  129.3902 H   0  0  0  0  0  0  0  0  0  0  0  0
   10.3256   44.0808  133.3686 C   0  0  0  0  0  0  0  0  0  0  0  0
   10.3386   43.1121  132.2531 C   0  0  0  0  0  0  0  0  0  0  0  0
   11.3709   42.2579  132.0049 C   0  0  0  0  0  0  0  0  0  0  0  0
   11.3740   41.3367  130.9958 C   0  0  0  0  0  0  0  0  0  0  0  0
   10.2634   41.2160  130.1206 C   0  0  0  0  0  0  0  0  0  0  0  0
    9.2235   42.0794  130.3716 C   0  0  0  0  0  0  0  0  0  0  0  0
    9.2271   43.0052  131.3898 C   0  0  0  0  0  0  0  0  0  0  0  0
   10.2992   40.2942  129.1420 O   0  0  0  0  0  0  0  0  0  0  0  0
    9.4968   39.9058  128.1045 C   0  0  0  0  0  0  0  0  0  0  0  0
   10.1891   39.5071  126.8717 C   0  0  0  0  0  0  0  0  0  0  0  0
   11.6059   39.5291  126.8924 N   0  0  0  0  0  0  0  0  0  0  0  0
   12.2277   38.3467  127.3974 C   0  0  0  0  0  0  0  0  0  0  0  0
   12.3906   37.3746  126.2367 C   0  0  0  0  0  0  0  0  0  0  0  0
   13.3375   38.0400  125.2496 C   0  0  0  0  0  0  0  0  0  0  0  0
   12.7924   39.3614  124.7504 C   0  0  0  0  0  0  0  0  0  0  0  0
   12.3127   40.2227  125.9009 C   0  0  0  0  0  0  0  0  0  0  0  0
 21 22  1  0  0  0
 22 23  1  0  0  0
 23 24  1  0  0  0
 24 25  1  0  0  0
 25 26  2  0  0  0
 26 27  1  0  0  0
 27 28  2  0  0  0
 28 29  1  0  0  0
 28 30  1  0  0  0
 30 31  2  0  0  0
 22 17  1  0  0  0
 17 18  1  0  0  0
 18 19  2  0  0  0
 18 16  1  0  0  0
 16  1  1  0  0  0
  1  2  2  0  0  0
  2 10  1  0  0  0
 10 11  2  0  0  0
 11 12  1  0  0  0
 12 13  2  0  0  0
 13 14  1  0  0  0
 14 15  2  0  0  0
  2  3  1  0  0  0
  3 33  1  0  0  0
 33 34  1  0  0  0
 34 35  2  0  0  0
 35 36  1  0  0  0
 36 37  2  0  0  0
 37 40  1  0  0  0
 40 41  1  0  0  0
 41 42  1  0  0  0
 42 43  1  0  0  0
 43 44  1  0  0  0
 44 45  1  0  0  0
 45 46  1  0  0  0
 46 47  1  0  0  0
 47 48  1  0  0  0
 37 38  1  0  0  0
 38 39  2  0  0  0
  3  4  1  0  0  0
  4  5  2  0  0  0
  5  6  1  0  0  0
  6  7  2  0  0  0
  7  8  1  0  0  0
  8  9  2  0  0  0
 31 25  1  0  0  0
  9  1  1  0  0  0
 15 10  1  0  0  0
 39 34  1  0  0  0
  9  4  1  0  0  0
 48 43  1  0  0  0
 29 32  1  0  0  0
 17 20  1  0  0  0
M  END
> <minimizedAffinity>
27.87310

> <CNNscore>
0.3815951943

> <CNNaffinity>
8.0080261230

> <CNN_VS>
3.0558242798

> <CNNaffinity_variance>
0.7459487915

$$$$
[H]Oc1c([H])c([H])c(C([H])([H])C([H])([H])[C@]([H])(N([H])C(=O)C([H])([H])c2c(-c3c([H])c([H])c([H])c([H])c3[H])n(C([H])([H])c3c([H])c([H])c(OC([H])([H])C([H])([H])N4C([H])([H])C([H])([H])C([H])([H])C([H])([H])C4([H])[H])c([H])c3[H])c3c([H])c([H])c([H])c([H])c23)C([H])([H])[H])c([H])c1[H]


 48 53  0  0  0  0  0  0  0  0999 V2000
   11.6428   43.7773  131.2370 C   0  0  0  0  0  0  0  0  0  0  0  0
   10.7933   44.3452  130.3530 C   0  0  0  0  0  0  0  0  0  0  0  0
    9.9560   43.3798  129.8553 N   0  0  0  0  0  0  0  0  0  0  0  0
   10.2788   42.1712  130.4205 C   0  0  0  0  0  0  0  0  0  0  0  0
    9.7184   40.8985  130.2236 C   0  0  0  0  0  0  0  0  0  0  0  0
   10.2354   39.8298  130.9228 C   0  0  0  0  0  0  0  0  0  0  0  0
   11.2797   40.0458  131.7872 C   0  0  0  0  0  0  0  0  0  0  0  0
   11.8251   41.3095  131.9732 C   0  0  0  0  0  0  0  0  0  0  0  0
   11.3078   42.3780  131.2732 C   0  0  0  0  0  0  0  0  0  0  0  0
   10.8182   45.6905  129.7433 C   0  0  0  0  0  0  0  0  0  0  0  0
   10.4845   46.8290  130.4451 C   0  0  0  0  0  0  0  0  0  0  0  0
   10.3817   48.0918  129.9316 C   0  0  0  0  0  0  0  0  0  0  0  0
   10.6334   48.2651  128.5914 C   0  0  0  0  0  0  0  0  0  0  0  0
   10.9716   47.1651  127.8505 C   0  0  0  0  0  0  0  0  0  0  0  0
   11.0648   45.9076  128.3974 C   0  0  0  0  0  0  0  0  0  0  0  0
   12.6711   44.2489  132.1309 C   0  0  0  0  0  0  0  0  0  0  0  0
   12.0315   45.9737  133.8667 N   0  0  0  0  0  0  0  0  0  0  0  0
   12.8111   45.5430  132.7100 C   0  0  0  0  0  0  0  0  0  0  0  0
   13.5878   46.4275  132.3124 O   0  0  0  0  0  0  0  0  0  0  0  0
   11.3669   45.2882  134.2442 H   0  0  0  0  0  0  0  0  0  0  0  0
   13.3364   47.3734  135.4270 C   0  0  0  0  0  0  0  0  0  0  0  0
   12.1630   47.2665  134.4588 C   0  0  0  0  0  0  0  0  0  0  0  0
   10.8889   47.7395  135.0756 C   0  0  0  0  0  0  0  0  0  0  0  0
   10.2383   46.6611  135.9195 C   0  0  0  0  0  0  0  0  0  0  0  0
    9.6711   45.6110  135.0381 C   0  0  0  0  0  0  0  0  0  0  0  0
   10.2379   44.3708  134.9947 C   0  0  0  0  0  0  0  0  0  0  0  0
    9.7511   43.3464  134.1876 C   0  0  0  0  0  0  0  0  0  0  0  0
    8.6491   43.6115  133.4050 C   0  0  0  0  0  0  0  0  0  0  0  0
    8.1218   42.6260  132.5817 O   0  0  0  0  0  0  0  0  0  0  0  0
    8.0703   44.8682  133.4451 C   0  0  0  0  0  0  0  0  0  0  0  0
    8.5598   45.8843  134.2507 C   0  0  0  0  0  0  0  0  0  0  0  0
    8.4572   42.5242  131.6130 H   0  0  0  0  0  0  0  0  0  0  0  0
    8.8272   43.5224  128.9814 C   0  0  0  0  0  0  0  0  0  0  0  0
    8.0246   44.7479  129.1733 C   0  0  0  0  0  0  0  0  0  0  0  0
    7.3645   45.0470  130.3273 C   0  0  0  0  0  0  0  0  0  0  0  0
    6.6489   46.1946  130.5222 C   0  0  0  0  0  0  0  0  0  0  0  0
    6.5508   47.1710  129.4970 C   0  0  0  0  0  0  0  0  0  0  0  0
    7.2162   46.8670  128.3331 C   0  0  0  0  0  0  0  0  0  0  0  0
    7.9350   45.7089  128.1434 C   0  0  0  0  0  0  0  0  0  0  0  0
    5.8426   48.2911  129.7264 O   0  0  0  0  0  0  0  0  0  0  0  0
    6.0677   49.6400  129.6967 C   0  0  0  0  0  0  0  0  0  0  0  0
    6.8808   50.1797  130.7946 C   0  0  0  0  0  0  0  0  0  0  0  0
    8.1296   49.5559  131.0385 N   0  0  0  0  0  0  0  0  0  0  0  0
    9.2695   50.4099  130.9342 C   0  0  0  0  0  0  0  0  0  0  0  0
    9.4826   51.0694  132.2901 C   0  0  0  0  0  0  0  0  0  0  0  0
    9.8011   49.9479  133.2672 C   0  0  0  0  0  0  0  0  0  0  0  0
    8.6768   48.9372  133.3498 C   0  0  0  0  0  0  0  0  0  0  0  0
    8.2240   48.5114  131.9680 C   0  0  0  0  0  0  0  0  0  0  0  0
 21 22  1  0  0  0
 22 23  1  0  0  0
 23 24  1  0  0  0
 24 25  1  0  0  0
 25 26  2  0  0  0
 26 27  1  0  0  0
 27 28  2  0  0  0
 28 29  1  0  0  0
 28 30  1  0  0  0
 30 31  2  0  0  0
 22 17  1  0  0  0
 17 18  1  0  0  0
 18 19  2  0  0  0
 18 16  1  0  0  0
 16  1  1  0  0  0
  1  2  2  0  0  0
  2 10  1  0  0  0
 10 11  2  0  0  0
 11 12  1  0  0  0
 12 13  2  0  0  0
 13 14  1  0  0  0
 14 15  2  0  0  0
  2  3  1  0  0  0
  3 33  1  0  0  0
 33 34  1  0  0  0
 34 35  2  0  0  0
 35 36  1  0  0  0
 36 37  2  0  0  0
 37 40  1  0  0  0
 40 41  1  0  0  0
 41 42  1  0  0  0
 42 43  1  0  0  0
 43 44  1  0  0  0
 44 45  1  0  0  0
 45 46  1  0  0  0
 46 47  1  0  0  0
 47 48  1  0  0  0
 37 38  1  0  0  0
 38 39  2  0  0  0
  3  4  1  0  0  0
  4  5  2  0  0  0
  5  6  1  0  0  0
  6  7  2  0  0  0
  7  8  1  0  0  0
  8  9  2  0  0  0
 31 25  1  0  0  0
  9  1  1  0  0  0
 15 10  1  0  0  0
 39 34  1  0  0  0
  9  4  1  0  0  0
 48 43  1  0  0  0
 29 32  1  0  0  0
 17 20  1  0  0  0
M  END
> <minimizedAffinity>
16.55391

> <CNNscore>
0.3712790310

> <CNNaffinity>
7.8835000992

> <CNN_VS>
2.9269783497

> <CNNaffinity_variance>
0.4426195025

$$$$
[H]Oc1c([H])c([H])c(C([H])([H])C([H])([H])[C@]([H])(N([H])C(=O)C([H])([H])c2c(-c3c([H])c([H])c([H])c([H])c3[H])n(C([H])([H])c3c([H])c([H])c(OC([H])([H])C([H])([H])N4C([H])([H])C([H])([H])C([H])([H])C([H])([H])C4([H])[H])c([H])c3[H])c3c([H])c([H])c([H])c([H])c23)C([H])([H])[H])c([H])c1[H]


 48 53  0  0  0  0  0  0  0  0999 V2000
    9.6309   48.0512  132.0754 C   0  0  0  0  0  0  0  0  0  0  0  0
   10.0101   46.7643  131.9154 C   0  0  0  0  0  0  0  0  0  0  0  0
    9.6878   46.0601  133.0472 N   0  0  0  0  0  0  0  0  0  0  0  0
    9.1017   46.9094  133.9523 C   0  0  0  0  0  0  0  0  0  0  0  0
    8.6136   46.6613  135.2457 C   0  0  0  0  0  0  0  0  0  0  0  0
    8.0654   47.7041  135.9601 C   0  0  0  0  0  0  0  0  0  0  0  0
    8.0151   48.9487  135.3833 C   0  0  0  0  0  0  0  0  0  0  0  0
    8.5011   49.1813  134.1031 C   0  0  0  0  0  0  0  0  0  0  0  0
    9.0497   48.1379  133.3892 C   0  0  0  0  0  0  0  0  0  0  0  0
   10.8595   46.1479  130.8758 C   0  0  0  0  0  0  0  0  0  0  0  0
   10.4381   45.9866  129.5733 C   0  0  0  0  0  0  0  0  0  0  0  0
   11.1171   45.3367  128.5807 C   0  0  0  0  0  0  0  0  0  0  0  0
   12.3387   44.7869  128.8886 C   0  0  0  0  0  0  0  0  0  0  0  0
   12.8033   44.9220  130.1688 C   0  0  0  0  0  0  0  0  0  0  0  0
   12.0946   45.5807  131.1450 C   0  0  0  0  0  0  0  0  0  0  0  0
    9.6156   49.2339  131.2508 C   0  0  0  0  0  0  0  0  0  0  0  0
    7.6486   50.6605  130.5487 N   0  0  0  0  0  0  0  0  0  0  0  0
    8.6426   49.6241  130.2860 C   0  0  0  0  0  0  0  0  0  0  0  0
    8.5300   49.1448  129.1453 O   0  0  0  0  0  0  0  0  0  0  0  0
    7.6858   51.0971  131.4772 H   0  0  0  0  0  0  0  0  0  0  0  0
    6.2951   49.9608  128.6058 C   0  0  0  0  0  0  0  0  0  0  0  0
    6.6693   51.0634  129.5906 C   0  0  0  0  0  0  0  0  0  0  0  0
    7.0462   52.3275  128.8924 C   0  0  0  0  0  0  0  0  0  0  0  0
    7.4558   52.0753  127.4548 C   0  0  0  0  0  0  0  0  0  0  0  0
    7.4623   53.3557  126.7051 C   0  0  0  0  0  0  0  0  0  0  0  0
    7.5658   53.3548  125.3448 C   0  0  0  0  0  0  0  0  0  0  0  0
    7.5779   54.5231  124.5880 C   0  0  0  0  0  0  0  0  0  0  0  0
    7.4802   55.7239  125.2556 C   0  0  0  0  0  0  0  0  0  0  0  0
    7.4867   56.9195  124.5502 O   0  0  0  0  0  0  0  0  0  0  0  0
    7.3750   55.7305  126.6358 C   0  0  0  0  0  0  0  0  0  0  0  0
    7.3638   54.5637  127.3838 C   0  0  0  0  0  0  0  0  0  0  0  0
    8.3755   57.4019  124.3541 H   0  0  0  0  0  0  0  0  0  0  0  0
    9.7931   44.6515  133.2984 C   0  0  0  0  0  0  0  0  0  0  0  0
    9.7822   43.7886  132.0993 C   0  0  0  0  0  0  0  0  0  0  0  0
   10.7611   42.8866  131.8074 C   0  0  0  0  0  0  0  0  0  0  0  0
   10.7395   42.0620  130.7181 C   0  0  0  0  0  0  0  0  0  0  0  0
    9.6585   42.1022  129.7994 C   0  0  0  0  0  0  0  0  0  0  0  0
    8.6726   43.0136  130.0948 C   0  0  0  0  0  0  0  0  0  0  0  0
    8.7008   43.8415  131.1937 C   0  0  0  0  0  0  0  0  0  0  0  0
    9.6682   41.2719  128.7416 O   0  0  0  0  0  0  0  0  0  0  0  0
   10.1729   41.2780  127.4702 C   0  0  0  0  0  0  0  0  0  0  0  0
    9.4265   40.4913  126.4792 C   0  0  0  0  0  0  0  0  0  0  0  0
    9.9660   39.2319  126.1177 N   0  0  0  0  0  0  0  0  0  0  0  0
    9.2053   38.4938  125.1604 C   0  0  0  0  0  0  0  0  0  0  0  0
    9.6497   38.9354  123.7725 C   0  0  0  0  0  0  0  0  0  0  0  0
   11.1124   38.5383  123.6439 C   0  0  0  0  0  0  0  0  0  0  0  0
   11.9703   39.2004  124.7012 C   0  0  0  0  0  0  0  0  0  0  0  0
   11.3546   39.0473  126.0772 C   0  0  0  0  0  0  0  0  0  0  0  0
 21 22  1  0  0  0
 22 23  1  0  0  0
 23 24  1  0  0  0
 24 25  1  0  0  0
 25 26  2  0  0  0
 26 27  1  0  0  0
 27 28  2  0  0  0
 28 29  1  0  0  0
 28 30  1  0  0  0
 30 31  2  0  0  0
 22 17  1  0  0  0
 17 18  1  0  0  0
 18 19  2  0  0  0
 18 16  1  0  0  0
 16  1  1  0  0  0
  1  2  2  0  0  0
  2 10  1  0  0  0
 10 11  2  0  0  0
 11 12  1  0  0  0
 12 13  2  0  0  0
 13 14  1  0  0  0
 14 15  2  0  0  0
  2  3  1  0  0  0
  3 33  1  0  0  0
 33 34  1  0  0  0
 34 35  2  0  0  0
 35 36  1  0  0  0
 36 37  2  0  0  0
 37 40  1  0  0  0
 40 41  1  0  0  0
 41 42  1  0  0  0
 42 43  1  0  0  0
 43 44  1  0  0  0
 44 45  1  0  0  0
 45 46  1  0  0  0
 46 47  1  0  0  0
 47 48  1  0  0  0
 37 38  1  0  0  0
 38 39  2  0  0  0
  3  4  1  0  0  0
  4  5  2  0  0  0
  5  6  1  0  0  0
  6  7  2  0  0  0
  7  8  1  0  0  0
  8  9  2  0  0  0
 31 25  1  0  0  0
  9  1  1  0  0  0
 15 10  1  0  0  0
 39 34  1  0  0  0
  9  4  1  0  0  0
 48 43  1  0  0  0
 29 32  1  0  0  0
 17 20  1  0  0  0
M  END
> <minimizedAffinity>
15.45450

> <CNNscore>
0.3573331833

> <CNNaffinity>
7.6352949142

> <CNN_VS>
2.7283442020

> <CNNaffinity_variance>
0.3391603231

$$$$
[H]Oc1c([H])c([H])c(C([H])([H])C([H])([H])[C@]([H])(N([H])C(=O)C([H])([H])c2c(-c3c([H])c([H])c([H])c([H])c3[H])n(C([H])([H])c3c([H])c([H])c(OC([H])([H])C([H])([H])N4C([H])([H])C([H])([H])C([H])([H])C([H])([H])C4([H])[H])c([H])c3[H])c3c([H])c([H])c([H])c([H])c23)C([H])([H])[H])c([H])c1[H]


 48 53  0  0  0  0  0  0  0  0999 V2000
   10.7205   43.7493  129.8611 C   0  0  0  0  0  0  0  0  0  0  0  0
    9.8401   44.3401  129.0235 C   0  0  0  0  0  0  0  0  0  0  0  0
    8.5682   44.1255  129.4893 N   0  0  0  0  0  0  0  0  0  0  0  0
    8.6314   43.3770  130.6381 C   0  0  0  0  0  0  0  0  0  0  0  0
    7.6039   42.8994  131.4681 C   0  0  0  0  0  0  0  0  0  0  0  0
    7.9388   42.1560  132.5786 C   0  0  0  0  0  0  0  0  0  0  0  0
    9.2642   41.9080  132.8356 C   0  0  0  0  0  0  0  0  0  0  0  0
   10.2712   42.3861  132.0070 C   0  0  0  0  0  0  0  0  0  0  0  0
    9.9356   43.1293  130.8960 C   0  0  0  0  0  0  0  0  0  0  0  0
   10.0498   44.9174  127.6801 C   0  0  0  0  0  0  0  0  0  0  0  0
   10.5043   46.2047  127.4888 C   0  0  0  0  0  0  0  0  0  0  0  0
   10.6258   46.8469  126.2881 C   0  0  0  0  0  0  0  0  0  0  0  0
   10.2689   46.1614  125.1514 C   0  0  0  0  0  0  0  0  0  0  0  0
    9.8133   44.8780  125.2877 C   0  0  0  0  0  0  0  0  0  0  0  0
    9.7014   44.2610  126.5108 C   0  0  0  0  0  0  0  0  0  0  0  0
   12.1566   43.6814  129.9703 C   0  0  0  0  0  0  0  0  0  0  0  0
   12.4362   44.3467  132.3944 N   0  0  0  0  0  0  0  0  0  0  0  0
   12.9776   44.0751  131.0661 C   0  0  0  0  0  0  0  0  0  0  0  0
   14.2098   44.2277  131.0217 O   0  0  0  0  0  0  0  0  0  0  0  0
   11.4204   44.2407  132.4986 H   0  0  0  0  0  0  0  0  0  0  0  0
   12.7046   44.2699  134.8477 C   0  0  0  0  0  0  0  0  0  0  0  0
   13.2472   44.7397  133.5022 C   0  0  0  0  0  0  0  0  0  0  0  0
   13.5375   46.2037  133.5007 C   0  0  0  0  0  0  0  0  0  0  0  0
   12.6041   46.9631  134.4227 C   0  0  0  0  0  0  0  0  0  0  0  0
   13.3879   47.6162  135.4999 C   0  0  0  0  0  0  0  0  0  0  0  0
   12.8995   48.7230  136.1305 C   0  0  0  0  0  0  0  0  0  0  0  0
   13.5889   49.3787  137.1466 C   0  0  0  0  0  0  0  0  0  0  0  0
   14.8156   48.8763  137.5207 C   0  0  0  0  0  0  0  0  0  0  0  0
   15.5457   49.4906  138.5290 O   0  0  0  0  0  0  0  0  0  0  0  0
   15.3159   47.7536  136.8841 C   0  0  0  0  0  0  0  0  0  0  0  0
   14.6247   47.1053  135.8726 C   0  0  0  0  0  0  0  0  0  0  0  0
   16.2161   50.2393  138.3025 H   0  0  0  0  0  0  0  0  0  0  0  0
    7.3246   44.6491  129.0017 C   0  0  0  0  0  0  0  0  0  0  0  0
    7.1290   46.1017  129.1876 C   0  0  0  0  0  0  0  0  0  0  0  0
    6.7283   46.6670  130.3609 C   0  0  0  0  0  0  0  0  0  0  0  0
    6.5786   48.0122  130.5484 C   0  0  0  0  0  0  0  0  0  0  0  0
    6.8414   48.9251  129.4941 C   0  0  0  0  0  0  0  0  0  0  0  0
    7.2443   48.3529  128.3108 C   0  0  0  0  0  0  0  0  0  0  0  0
    7.3927   46.9969  128.1287 C   0  0  0  0  0  0  0  0  0  0  0  0
    6.6888   50.2426  129.7166 O   0  0  0  0  0  0  0  0  0  0  0  0
    7.3837   51.2369  130.3488 C   0  0  0  0  0  0  0  0  0  0  0  0
    8.0513   50.8576  131.6011 C   0  0  0  0  0  0  0  0  0  0  0  0
    9.3892   50.4008  131.5053 N   0  0  0  0  0  0  0  0  0  0  0  0
   10.0142   50.0763  132.7478 C   0  0  0  0  0  0  0  0  0  0  0  0
    9.6809   48.6263  133.0718 C   0  0  0  0  0  0  0  0  0  0  0  0
   10.3133   47.7851  131.9735 C   0  0  0  0  0  0  0  0  0  0  0  0
    9.7769   48.1503  130.6056 C   0  0  0  0  0  0  0  0  0  0  0  0
    9.7981   49.6505  130.3945 C   0  0  0  0  0  0  0  0  0  0  0  0
 21 22  1  0  0  0
 22 23  1  0  0  0
 23 24  1  0  0  0
 24 25  1  0  0  0
 25 26  2  0  0  0
 26 27  1  0  0  0
 27 28  2  0  0  0
 28 29  1  0  0  0
 28 30  1  0  0  0
 30 31  2  0  0  0
 22 17  1  0  0  0
 17 18  1  0  0  0
 18 19  2  0  0  0
 18 16  1  0  0  0
 16  1  1  0  0  0
  1  2  2  0  0  0
  2 10  1  0  0  0
 10 11  2  0  0  0
 11 12  1  0  0  0
 12 13  2  0  0  0
 13 14  1  0  0  0
 14 15  2  0  0  0
  2  3  1  0  0  0
  3 33  1  0  0  0
 33 34  1  0  0  0
 34 35  2  0  0  0
 35 36  1  0  0  0
 36 37  2  0  0  0
 37 40  1  0  0  0
 40 41  1  0  0  0
 41 42  1  0  0  0
 42 43  1  0  0  0
 43 44  1  0  0  0
 44 45  1  0  0  0
 45 46  1  0  0  0
 46 47  1  0  0  0
 47 48  1  0  0  0
 37 38  1  0  0  0
 38 39  2  0  0  0
  3  4  1  0  0  0
  4  5  2  0  0  0
  5  6  1  0  0  0
  6  7  2  0  0  0
  7  8  1  0  0  0
  8  9  2  0  0  0
 31 25  1  0  0  0
  9  1  1  0  0  0
 15 10  1  0  0  0
 39 34  1  0  0  0
  9  4  1  0  0  0
 48 43  1  0  0  0
 29 32  1  0  0  0
 17 20  1  0  0  0
M  END
> <minimizedAffinity>
27.59569

> <CNNscore>
0.3472695053

> <CNNaffinity>
7.8726525307

> <CNN_VS>
2.7339322567

> <CNNaffinity_variance>
0.5489241481

$$$$
[H]Oc1c([H])c([H])c(C([H])([H])C([H])([H])[C@]([H])(N([H])C(=O)C([H])([H])c2c(-c3c([H])c([H])c([H])c([H])c3[H])n(C([H])([H])c3c([H])c([H])c(OC([H])([H])C([H])([H])N4C([H])([H])C([H])([H])C([H])([H])C([H])([H])C4([H])[H])c([H])c3[H])c3c([H])c([H])c([H])c([H])c23)C([H])([H])[H])c([H])c1[H]


 48 53  0  0  0  0  0  0  0  0999 V2000
   10.2240   46.5762  130.8561 C   0  0  0  0  0  0  0  0  0  0  0  0
   10.2411   45.2298  130.7433 C   0  0  0  0  0  0  0  0  0  0  0  0
   10.5161   44.6826  131.9704 N   0  0  0  0  0  0  0  0  0  0  0  0
   10.6883   45.6928  132.8836 C   0  0  0  0  0  0  0  0  0  0  0  0
   10.9915   45.6358  134.2539 C   0  0  0  0  0  0  0  0  0  0  0  0
   11.1156   46.8145  134.9561 C   0  0  0  0  0  0  0  0  0  0  0  0
   10.9386   48.0033  134.2929 C   0  0  0  0  0  0  0  0  0  0  0  0
   10.6388   48.0463  132.9374 C   0  0  0  0  0  0  0  0  0  0  0  0
   10.5152   46.8669  132.2353 C   0  0  0  0  0  0  0  0  0  0  0  0
   10.2410   44.3790  129.5357 C   0  0  0  0  0  0  0  0  0  0  0  0
   11.3382   44.2647  128.7091 C   0  0  0  0  0  0  0  0  0  0  0  0
   11.3875   43.5854  127.5238 C   0  0  0  0  0  0  0  0  0  0  0  0
   10.2468   42.9467  127.0989 C   0  0  0  0  0  0  0  0  0  0  0  0
    9.1301   43.0280  127.8860 C   0  0  0  0  0  0  0  0  0  0  0  0
    9.1130   43.7211  129.0728 C   0  0  0  0  0  0  0  0  0  0  0  0
    9.9248   47.6825  129.9814 C   0  0  0  0  0  0  0  0  0  0  0  0
    7.5467   47.0993  129.3477 N   0  0  0  0  0  0  0  0  0  0  0  0
    8.7670   47.8817  129.1753 C   0  0  0  0  0  0  0  0  0  0  0  0
    8.6630   48.7175  128.2619 O   0  0  0  0  0  0  0  0  0  0  0  0
    7.5672   46.3873  130.0871 H   0  0  0  0  0  0  0  0  0  0  0  0
    6.5849   48.2653  127.3952 C   0  0  0  0  0  0  0  0  0  0  0  0
    6.3783   47.2896  128.5489 C   0  0  0  0  0  0  0  0  0  0  0  0
    5.1829   47.6439  129.3690 C   0  0  0  0  0  0  0  0  0  0  0  0
    5.0336   49.1443  129.5266 C   0  0  0  0  0  0  0  0  0  0  0  0
    6.2458   49.7017  130.1756 C   0  0  0  0  0  0  0  0  0  0  0  0
    6.7989   49.0733  131.2528 C   0  0  0  0  0  0  0  0  0  0  0  0
    7.9342   49.5487  131.9030 C   0  0  0  0  0  0  0  0  0  0  0  0
    8.5130   50.7041  131.4265 C   0  0  0  0  0  0  0  0  0  0  0  0
    9.6471   51.2222  132.0367 O   0  0  0  0  0  0  0  0  0  0  0  0
    7.9559   51.3458  130.3338 C   0  0  0  0  0  0  0  0  0  0  0  0
    6.8249   50.8676  129.6908 C   0  0  0  0  0  0  0  0  0  0  0  0
    9.5585   51.8980  132.8091 H   0  0  0  0  0  0  0  0  0  0  0  0
   10.5271   43.3034  132.3653 C   0  0  0  0  0  0  0  0  0  0  0  0
    9.2226   42.7511  132.7850 C   0  0  0  0  0  0  0  0  0  0  0  0
    8.1239   42.7104  131.9799 C   0  0  0  0  0  0  0  0  0  0  0  0
    6.9250   42.1700  132.3510 C   0  0  0  0  0  0  0  0  0  0  0  0
    6.7533   41.6025  133.6403 C   0  0  0  0  0  0  0  0  0  0  0  0
    7.8623   41.6456  134.4516 C   0  0  0  0  0  0  0  0  0  0  0  0
    9.0670   42.1917  134.0715 C   0  0  0  0  0  0  0  0  0  0  0  0
    5.5609   41.0746  133.9689 O   0  0  0  0  0  0  0  0  0  0  0  0
    4.4120   41.5008  134.5767 C   0  0  0  0  0  0  0  0  0  0  0  0
    3.4325   42.1638  133.7054 C   0  0  0  0  0  0  0  0  0  0  0  0
    2.3990   42.8975  134.3392 N   0  0  0  0  0  0  0  0  0  0  0  0
    2.1176   44.1752  133.7665 C   0  0  0  0  0  0  0  0  0  0  0  0
    1.1063   43.9707  132.6466 C   0  0  0  0  0  0  0  0  0  0  0  0
   -0.1595   43.4411  133.3032 C   0  0  0  0  0  0  0  0  0  0  0  0
    0.0868   42.1349  134.0282 C   0  0  0  0  0  0  0  0  0  0  0  0
    1.3119   42.2264  134.9151 C   0  0  0  0  0  0  0  0  0  0  0  0
 21 22  1  0  0  0
 22 23  1  0  0  0
 23 24  1  0  0  0
 24 25  1  0  0  0
 25 26  2  0  0  0
 26 27  1  0  0  0
 27 28  2  0  0  0
 28 29  1  0  0  0
 28 30  1  0  0  0
 30 31  2  0  0  0
 22 17  1  0  0  0
 17 18  1  0  0  0
 18 19  2  0  0  0
 18 16  1  0  0  0
 16  1  1  0  0  0
  1  2  2  0  0  0
  2 10  1  0  0  0
 10 11  2  0  0  0
 11 12  1  0  0  0
 12 13  2  0  0  0
 13 14  1  0  0  0
 14 15  2  0  0  0
  2  3  1  0  0  0
  3 33  1  0  0  0
 33 34  1  0  0  0
 34 35  2  0  0  0
 35 36  1  0  0  0
 36 37  2  0  0  0
 37 40  1  0  0  0
 40 41  1  0  0  0
 41 42  1  0  0  0
 42 43  1  0  0  0
 43 44  1  0  0  0
 44 45  1  0  0  0
 45 46  1  0  0  0
 46 47  1  0  0  0
 47 48  1  0  0  0
 37 38  1  0  0  0
 38 39  2  0  0  0
  3  4  1  0  0  0
  4  5  2  0  0  0
  5  6  1  0  0  0
  6  7  2  0  0  0
  7  8  1  0  0  0
  8  9  2  0  0  0
 31 25  1  0  0  0
  9  1  1  0  0  0
 15 10  1  0  0  0
 39 34  1  0  0  0
  9  4  1  0  0  0
 48 43  1  0  0  0
 29 32  1  0  0  0
 17 20  1  0  0  0
M  END
> <minimizedAffinity>
27.31994

> <CNNscore>
0.3231603801

> <CNNaffinity>
7.8959836960

> <CNN_VS>
2.5516691208

> <CNNaffinity_variance>
0.6098985672

$$$$
[H]Oc1c([H])c([H])c(C([H])([H])C([H])([H])[C@]([H])(N([H])C(=O)C([H])([H])c2c(-c3c([H])c([H])c([H])c([H])c3[H])n(C([H])([H])c3c([H])c([H])c(OC([H])([H])C([H])([H])N4C([H])([H])C([H])([H])C([H])([H])C([H])([H])C4([H])[H])c([H])c3[H])c3c([H])c([H])c([H])c([H])c23)C([H])([H])[H])c([H])c1[H]


 48 53  0  0  0  0  0  0  0  0999 V2000
    9.0485   44.8907  133.4655 C   0  0  0  0  0  0  0  0  0  0  0  0
    9.5068   45.8447  132.6256 C   0  0  0  0  0  0  0  0  0  0  0  0
   10.1203   46.8278  133.3590 N   0  0  0  0  0  0  0  0  0  0  0  0
   10.0464   46.5058  134.6913 C   0  0  0  0  0  0  0  0  0  0  0  0
   10.5172   47.1969  135.8197 C   0  0  0  0  0  0  0  0  0  0  0  0
   10.3092   46.6509  137.0675 C   0  0  0  0  0  0  0  0  0  0  0  0
    9.6495   45.4510  137.1646 C   0  0  0  0  0  0  0  0  0  0  0  0
    9.1888   44.7772  136.0408 C   0  0  0  0  0  0  0  0  0  0  0  0
    9.3968   45.3240  134.7931 C   0  0  0  0  0  0  0  0  0  0  0  0
    9.2385   46.0513  131.1877 C   0  0  0  0  0  0  0  0  0  0  0  0
    8.0227   45.7539  130.6100 C   0  0  0  0  0  0  0  0  0  0  0  0
    7.7264   45.8170  129.2770 C   0  0  0  0  0  0  0  0  0  0  0  0
    8.7197   46.2147  128.4139 C   0  0  0  0  0  0  0  0  0  0  0  0
    9.9453   46.5237  128.9387 C   0  0  0  0  0  0  0  0  0  0  0  0
   10.2116   46.4484  130.2850 C   0  0  0  0  0  0  0  0  0  0  0  0
    8.4102   43.6061  133.3201 C   0  0  0  0  0  0  0  0  0  0  0  0
    9.0608   43.0394  130.9425 N   0  0  0  0  0  0  0  0  0  0  0  0
    8.2451   42.8322  132.1354 C   0  0  0  0  0  0  0  0  0  0  0  0
    7.4156   41.9197  131.9835 O   0  0  0  0  0  0  0  0  0  0  0  0
    9.7664   43.7828  131.0014 H   0  0  0  0  0  0  0  0  0  0  0  0
    8.3129   40.8868  129.9918 C   0  0  0  0  0  0  0  0  0  0  0  0
    8.9080   42.2699  129.7493 C   0  0  0  0  0  0  0  0  0  0  0  0
   10.1692   42.2005  128.9545 C   0  0  0  0  0  0  0  0  0  0  0  0
   10.9970   43.4619  129.1019 C   0  0  0  0  0  0  0  0  0  0  0  0
   11.5608   43.5323  130.4725 C   0  0  0  0  0  0  0  0  0  0  0  0
   12.2406   44.6429  130.8795 C   0  0  0  0  0  0  0  0  0  0  0  0
   12.7921   44.7662  132.1517 C   0  0  0  0  0  0  0  0  0  0  0  0
   12.6362   43.7135  133.0260 C   0  0  0  0  0  0  0  0  0  0  0  0
   13.1654   43.7834  134.3075 O   0  0  0  0  0  0  0  0  0  0  0  0
   11.9474   42.5842  132.6181 C   0  0  0  0  0  0  0  0  0  0  0  0
   11.4008   42.4672  131.3498 C   0  0  0  0  0  0  0  0  0  0  0  0
   14.1230   43.4521  134.4927 H   0  0  0  0  0  0  0  0  0  0  0  0
   10.8492   47.9765  132.9035 C   0  0  0  0  0  0  0  0  0  0  0  0
   10.0466   49.0073  132.2136 C   0  0  0  0  0  0  0  0  0  0  0  0
   10.3305   49.4783  130.9669 C   0  0  0  0  0  0  0  0  0  0  0  0
    9.5725   50.4064  130.3103 C   0  0  0  0  0  0  0  0  0  0  0  0
    8.4079   50.9493  130.9129 C   0  0  0  0  0  0  0  0  0  0  0  0
    8.1237   50.4739  132.1711 C   0  0  0  0  0  0  0  0  0  0  0  0
    8.8919   49.5390  132.8269 C   0  0  0  0  0  0  0  0  0  0  0  0
    7.6831   51.8565  130.2346 O   0  0  0  0  0  0  0  0  0  0  0  0
    6.8649   51.8655  129.1385 C   0  0  0  0  0  0  0  0  0  0  0  0
    7.0002   50.7217  128.2267 C   0  0  0  0  0  0  0  0  0  0  0  0
    6.9993   49.4299  128.8091 N   0  0  0  0  0  0  0  0  0  0  0  0
    6.3056   49.3211  130.0527 C   0  0  0  0  0  0  0  0  0  0  0  0
    4.8409   49.0402  129.7456 C   0  0  0  0  0  0  0  0  0  0  0  0
    4.8007   47.6906  129.0450 C   0  0  0  0  0  0  0  0  0  0  0  0
    5.6100   47.6964  127.7654 C   0  0  0  0  0  0  0  0  0  0  0  0
    6.9850   48.2908  127.9928 C   0  0  0  0  0  0  0  0  0  0  0  0
 21 22  1  0  0  0
 22 23  1  0  0  0
 23 24  1  0  0  0
 24 25  1  0  0  0
 25 26  2  0  0  0
 26 27  1  0  0  0
 27 28  2  0  0  0
 28 29  1  0  0  0
 28 30  1  0  0  0
 30 31  2  0  0  0
 22 17  1  0  0  0
 17 18  1  0  0  0
 18 19  2  0  0  0
 18 16  1  0  0  0
 16  1  1  0  0  0
  1  2  2  0  0  0
  2 10  1  0  0  0
 10 11  2  0  0  0
 11 12  1  0  0  0
 12 13  2  0  0  0
 13 14  1  0  0  0
 14 15  2  0  0  0
  2  3  1  0  0  0
  3 33  1  0  0  0
 33 34  1  0  0  0
 34 35  2  0  0  0
 35 36  1  0  0  0
 36 37  2  0  0  0
 37 40  1  0  0  0
 40 41  1  0  0  0
 41 42  1  0  0  0
 42 43  1  0  0  0
 43 44  1  0  0  0
 44 45  1  0  0  0
 45 46  1  0  0  0
 46 47  1  0  0  0
 47 48  1  0  0  0
 37 38  1  0  0  0
 38 39  2  0  0  0
  3  4  1  0  0  0
  4  5  2  0  0  0
  5  6  1  0  0  0
  6  7  2  0  0  0
  7  8  1  0  0  0
  8  9  2  0  0  0
 31 25  1  0  0  0
  9  1  1  0  0  0
 15 10  1  0  0  0
 39 34  1  0  0  0
  9  4  1  0  0  0
 48 43  1  0  0  0
 29 32  1  0  0  0
 17 20  1  0  0  0
M  END
> <minimizedAffinity>
13.17275

> <CNNscore>
0.3122990131

> <CNNaffinity>
8.1261453629

> <CNN_VS>
2.5377871990

> <CNNaffinity_variance>
0.4879549444

$$$$
[H]Oc1c([H])c([H])c([C@]2([H])OC(C([H])([H])[H])(C([H])([H])[H])[C@]3(O[H])C([H])([H])C([H])=C(C([H])([H])[H])[C@@]2([H])C3([H])[H])c([H])c1F


 23 25  0  0  0  0  0  0  0  0999 V2000
   10.8165   45.0004  128.2455 C   0  0  0  0  0  0  0  0  0  0  0  0
   10.7635   44.5191  129.6466 C   0  0  0  0  0  0  0  0  0  0  0  0
   11.8980   44.1243  130.2011 C   0  0  0  0  0  0  0  0  0  0  0  0
   12.0309   43.6158  131.5859 C   0  0  0  0  0  0  0  0  0  0  0  0
   10.7267   43.7364  132.3513 C   0  0  0  0  0  0  0  0  0  0  0  0
   10.7538   42.8837  133.4585 O   0  0  0  0  0  0  0  0  0  0  0  0
    9.6332   43.3479  131.4031 C   0  0  0  0  0  0  0  0  0  0  0  0
    9.4912   44.4899  130.3690 C   0  0  0  0  0  0  0  0  0  0  0  0
    9.2225   45.7110  131.2170 C   0  0  0  0  0  0  0  0  0  0  0  0
   10.4217   46.0687  131.8456 O   0  0  0  0  0  0  0  0  0  0  0  0
   10.6225   45.1379  132.8655 C   0  0  0  0  0  0  0  0  0  0  0  0
   11.9479   45.5216  133.5235 C   0  0  0  0  0  0  0  0  0  0  0  0
    9.5762   45.2349  133.9565 C   0  0  0  0  0  0  0  0  0  0  0  0
    9.8809   42.4169  133.5321 H   0  0  0  0  0  0  0  0  0  0  0  0
    8.6075   46.8401  130.5195 C   0  0  0  0  0  0  0  0  0  0  0  0
    9.1777   48.1073  130.6826 C   0  0  0  0  0  0  0  0  0  0  0  0
    8.6453   49.2184  130.0649 C   0  0  0  0  0  0  0  0  0  0  0  0
    7.5301   49.1225  129.2626 C   0  0  0  0  0  0  0  0  0  0  0  0
    7.0071   50.2682  128.6446 O   0  0  0  0  0  0  0  0  0  0  0  0
    6.9591   47.8836  129.0932 C   0  0  0  0  0  0  0  0  0  0  0  0
    5.8644   47.7783  128.3080 F   0  0  0  0  0  0  0  0  0  0  0  0
    7.5076   46.7590  129.7257 C   0  0  0  0  0  0  0  0  0  0  0  0
    6.1951   50.1924  128.0616 H   0  0  0  0  0  0  0  0  0  0  0  0
  1  2  1  0  0  0
  2  3  2  0  0  0
  3  4  1  0  0  0
  4  5  1  0  0  0
  5  6  1  0  0  0
  5  7  1  0  0  0
  7  8  1  0  0  0
  8  9  1  0  0  0
  9 10  1  0  0  0
 10 11  1  0  0  0
 11 12  1  0  0  0
 11 13  1  0  0  0
  9 15  1  0  0  0
 15 16  2  0  0  0
 16 17  1  0  0  0
 17 18  2  0  0  0
 18 19  1  0  0  0
 18 20  1  0  0  0
 20 21  1  0  0  0
 20 22  2  0  0  0
  8  2  1  0  0  0
 22 15  1  0  0  0
 11  5  1  0  0  0
  6 14  1  0  0  0
 19 23  1  0  0  0
M  END
> <minimizedAffinity>
-10.66250

> <CNNscore>
0.9412933588

> <CNNaffinity>
7.8652863503

> <CNN_VS>
7.4035420418

> <CNNaffinity_variance>
0.5516977906

$$$$
[H]Oc1c([H])c([H])c([C@]2([H])OC(C([H])([H])[H])(C([H])([H])[H])[C@]3(O[H])C([H])([H])C([H])=C(C([H])([H])[H])[C@@]2([H])C3([H])[H])c([H])c1F


 23 25  0  0  0  0  0  0  0  0999 V2000
    8.8808   47.0918  133.9763 C   0  0  0  0  0  0  0  0  0  0  0  0
    9.8532   46.1912  133.3124 C   0  0  0  0  0  0  0  0  0  0  0  0
    9.9331   44.9461  133.7526 C   0  0  0  0  0  0  0  0  0  0  0  0
   10.8453   43.9134  133.2093 C   0  0  0  0  0  0  0  0  0  0  0  0
   11.5833   44.4122  131.9813 C   0  0  0  0  0  0  0  0  0  0  0  0
   12.7117   43.6179  131.7591 O   0  0  0  0  0  0  0  0  0  0  0  0
   11.9744   45.8317  132.2608 C   0  0  0  0  0  0  0  0  0  0  0  0
   10.6842   46.6842  132.2134 C   0  0  0  0  0  0  0  0  0  0  0  0
   10.1265   46.4154  130.8352 C   0  0  0  0  0  0  0  0  0  0  0  0
    9.5909   45.1216  130.8344 O   0  0  0  0  0  0  0  0  0  0  0  0
   10.6778   44.2472  130.8013 C   0  0  0  0  0  0  0  0  0  0  0  0
   10.0807   42.8403  130.8307 C   0  0  0  0  0  0  0  0  0  0  0  0
   11.4586   44.3377  129.5065 C   0  0  0  0  0  0  0  0  0  0  0  0
   13.4818   44.2015  131.5319 H   0  0  0  0  0  0  0  0  0  0  0  0
    9.1739   47.4069  130.3362 C   0  0  0  0  0  0  0  0  0  0  0  0
    9.3628   48.7451  130.6980 C   0  0  0  0  0  0  0  0  0  0  0  0
    8.4987   49.7317  130.2741 C   0  0  0  0  0  0  0  0  0  0  0  0
    7.4151   49.4363  129.4771 C   0  0  0  0  0  0  0  0  0  0  0  0
    6.5500   50.4583  129.0585 O   0  0  0  0  0  0  0  0  0  0  0  0
    7.2169   48.1255  129.1138 C   0  0  0  0  0  0  0  0  0  0  0  0
    6.1566   47.8247  128.3320 F   0  0  0  0  0  0  0  0  0  0  0  0
    8.1011   47.1287  129.5500 C   0  0  0  0  0  0  0  0  0  0  0  0
    5.7629   50.2375  128.4784 H   0  0  0  0  0  0  0  0  0  0  0  0
  1  2  1  0  0  0
  2  3  2  0  0  0
  3  4  1  0  0  0
  4  5  1  0  0  0
  5  6  1  0  0  0
  5  7  1  0  0  0
  7  8  1  0  0  0
  8  9  1  0  0  0
  9 10  1  0  0  0
 10 11  1  0  0  0
 11 12  1  0  0  0
 11 13  1  0  0  0
  9 15  1  0  0  0
 15 16  2  0  0  0
 16 17  1  0  0  0
 17 18  2  0  0  0
 18 19  1  0  0  0
 18 20  1  0  0  0
 20 21  1  0  0  0
 20 22  2  0  0  0
  8  2  1  0  0  0
 22 15  1  0  0  0
 11  5  1  0  0  0
  6 14  1  0  0  0
 19 23  1  0  0  0
M  END
> <minimizedAffinity>
-10.56408

> <CNNscore>
0.9270449877

> <CNNaffinity>
7.8860268593

> <CNN_VS>
7.3107018471

> <CNNaffinity_variance>
0.6524152756

$$$$
[H]Oc1c([H])c([H])c([C@]2([H])OC(C([H])([H])[H])(C([H])([H])[H])[C@]3(O[H])C([H])([H])C([H])=C(C([H])([H])[H])[C@@]2([H])C3([H])[H])c([H])c1F


 23 25  0  0  0  0  0  0  0  0999 V2000
    8.5676   46.2766  134.3395 C   0  0  0  0  0  0  0  0  0  0  0  0
    9.6727   45.4659  133.7745 C   0  0  0  0  0  0  0  0  0  0  0  0
    9.6011   44.1523  133.9146 C   0  0  0  0  0  0  0  0  0  0  0  0
   10.6117   43.1917  133.4146 C   0  0  0  0  0  0  0  0  0  0  0  0
   11.6783   43.8849  132.5881 C   0  0  0  0  0  0  0  0  0  0  0  0
   12.8087   43.0672  132.5028 O   0  0  0  0  0  0  0  0  0  0  0  0
   11.9989   45.1701  133.2892 C   0  0  0  0  0  0  0  0  0  0  0  0
   10.7916   46.1172  133.0924 C   0  0  0  0  0  0  0  0  0  0  0  0
   10.6457   46.2062  131.5913 C   0  0  0  0  0  0  0  0  0  0  0  0
   10.1093   44.9939  131.1401 O   0  0  0  0  0  0  0  0  0  0  0  0
   11.1445   44.0603  131.2011 C   0  0  0  0  0  0  0  0  0  0  0  0
   10.5385   42.7366  130.7348 C   0  0  0  0  0  0  0  0  0  0  0  0
   12.2638   44.3678  130.2281 C   0  0  0  0  0  0  0  0  0  0  0  0
   13.6219   43.6198  132.6385 H   0  0  0  0  0  0  0  0  0  0  0  0
    9.8932   47.3596  131.0983 C   0  0  0  0  0  0  0  0  0  0  0  0
    9.0639   47.1807  129.9857 C   0  0  0  0  0  0  0  0  0  0  0  0
    8.3339   48.2248  129.4599 C   0  0  0  0  0  0  0  0  0  0  0  0
    8.3939   49.4855  130.0110 C   0  0  0  0  0  0  0  0  0  0  0  0
    7.6411   50.5321  129.4575 O   0  0  0  0  0  0  0  0  0  0  0  0
    9.2047   49.6761  131.1045 C   0  0  0  0  0  0  0  0  0  0  0  0
    9.2709   50.9093  131.6530 F   0  0  0  0  0  0  0  0  0  0  0  0
    9.9437   48.6080  131.6324 C   0  0  0  0  0  0  0  0  0  0  0  0
    7.6886   51.4476  129.8628 H   0  0  0  0  0  0  0  0  0  0  0  0
  1  2  1  0  0  0
  2  3  2  0  0  0
  3  4  1  0  0  0
  4  5  1  0  0  0
  5  6  1  0  0  0
  5  7  1  0  0  0
  7  8  1  0  0  0
  8  9  1  0  0  0
  9 10  1  0  0  0
 10 11  1  0  0  0
 11 12  1  0  0  0
 11 13  1  0  0  0
  9 15  1  0  0  0
 15 16  2  0  0  0
 16 17  1  0  0  0
 17 18  2  0  0  0
 18 19  1  0  0  0
 18 20  1  0  0  0
 20 21  1  0  0  0
 20 22  2  0  0  0
  8  2  1  0  0  0
 22 15  1  0  0  0
 11  5  1  0  0  0
  6 14  1  0  0  0
 19 23  1  0  0  0
M  END
> <minimizedAffinity>
-10.30947

> <CNNscore>
0.8603574038

> <CNNaffinity>
7.5158948898

> <CNN_VS>
6.4663558006

> <CNNaffinity_variance>
0.4649319649

$$$$
[H]Oc1c([H])c([H])c([C@]2([H])OC(C([H])([H])[H])(C([H])([H])[H])[C@]3(O[H])C([H])([H])C([H])=C(C([H])([H])[H])[C@@]2([H])C3([H])[H])c([H])c1F


 23 25  0  0  0  0  0  0  0  0999 V2000
   10.6493   48.4452  131.9570 C   0  0  0  0  0  0  0  0  0  0  0  0
    9.3703   48.7796  131.2862 C   0  0  0  0  0  0  0  0  0  0  0  0
    9.4174   49.6150  130.2613 C   0  0  0  0  0  0  0  0  0  0  0  0
    8.2421   50.0584  129.4765 C   0  0  0  0  0  0  0  0  0  0  0  0
    6.9826   49.3244  129.8964 C   0  0  0  0  0  0  0  0  0  0  0  0
    5.8602   50.0408  129.4713 O   0  0  0  0  0  0  0  0  0  0  0  0
    7.0198   49.2254  131.3913 C   0  0  0  0  0  0  0  0  0  0  0  0
    8.1145   48.1957  131.7588 C   0  0  0  0  0  0  0  0  0  0  0  0
    7.6899   46.9436  131.0277 C   0  0  0  0  0  0  0  0  0  0  0  0
    7.9502   47.1339  129.6650 O   0  0  0  0  0  0  0  0  0  0  0  0
    6.9645   48.0025  129.1951 C   0  0  0  0  0  0  0  0  0  0  0  0
    7.2773   48.2249  127.7154 C   0  0  0  0  0  0  0  0  0  0  0  0
    5.5801   47.3895  129.2371 C   0  0  0  0  0  0  0  0  0  0  0  0
    5.1891   50.0595  130.2024 H   0  0  0  0  0  0  0  0  0  0  0  0
    8.2637   45.6953  131.5296 C   0  0  0  0  0  0  0  0  0  0  0  0
    8.4359   45.5557  132.9110 C   0  0  0  0  0  0  0  0  0  0  0  0
    8.9805   44.4120  133.4542 C   0  0  0  0  0  0  0  0  0  0  0  0
    9.3763   43.3620  132.6557 C   0  0  0  0  0  0  0  0  0  0  0  0
    9.9279   42.2082  133.2325 O   0  0  0  0  0  0  0  0  0  0  0  0
    9.2133   43.4852  131.2964 C   0  0  0  0  0  0  0  0  0  0  0  0
    9.5984   42.4607  130.5038 F   0  0  0  0  0  0  0  0  0  0  0  0
    8.6585   44.6524  130.7529 C   0  0  0  0  0  0  0  0  0  0  0  0
   10.2142   41.4471  132.6465 H   0  0  0  0  0  0  0  0  0  0  0  0
  1  2  1  0  0  0
  2  3  2  0  0  0
  3  4  1  0  0  0
  4  5  1  0  0  0
  5  6  1  0  0  0
  5  7  1  0  0  0
  7  8  1  0  0  0
  8  9  1  0  0  0
  9 10  1  0  0  0
 10 11  1  0  0  0
 11 12  1  0  0  0
 11 13  1  0  0  0
  9 15  1  0  0  0
 15 16  2  0  0  0
 16 17  1  0  0  0
 17 18  2  0  0  0
 18 19  1  0  0  0
 18 20  1  0  0  0
 20 21  1  0  0  0
 20 22  2  0  0  0
  8  2  1  0  0  0
 22 15  1  0  0  0
 11  5  1  0  0  0
  6 14  1  0  0  0
 19 23  1  0  0  0
M  END
> <minimizedAffinity>
-6.26155

> <CNNscore>
0.4231507182

> <CNNaffinity>
6.5938162804

> <CNN_VS>
2.7901780605

> <CNNaffinity_variance>
0.2332571000

$$$$
[H]Oc1c([H])c([H])c([C@]2([H])OC(C([H])([H])[H])(C([H])([H])[H])[C@]3(O[H])C([H])([H])C([H])=C(C([H])([H])[H])[C@@]2([H])C3([H])[H])c([H])c1F


 23 25  0  0  0  0  0  0  0  0999 V2000
    7.6407   44.2057  130.5956 C   0  0  0  0  0  0  0  0  0  0  0  0
    8.9510   44.0396  131.2687 C   0  0  0  0  0  0  0  0  0  0  0  0
    9.6853   42.9931  130.9280 C   0  0  0  0  0  0  0  0  0  0  0  0
   11.0150   42.6715  131.4960 C   0  0  0  0  0  0  0  0  0  0  0  0
   11.5073   43.7705  132.4186 C   0  0  0  0  0  0  0  0  0  0  0  0
   12.5130   43.2680  133.2492 O   0  0  0  0  0  0  0  0  0  0  0  0
   10.3249   44.2207  133.2217 C   0  0  0  0  0  0  0  0  0  0  0  0
    9.3940   45.0098  132.2707 C   0  0  0  0  0  0  0  0  0  0  0  0
   10.2793   46.1090  131.7319 C   0  0  0  0  0  0  0  0  0  0  0  0
   11.1687   45.5330  130.8164 O   0  0  0  0  0  0  0  0  0  0  0  0
   12.1174   44.8434  131.5722 C   0  0  0  0  0  0  0  0  0  0  0  0
   13.0636   44.1957  130.5613 C   0  0  0  0  0  0  0  0  0  0  0  0
   12.9773   45.7667  132.4103 C   0  0  0  0  0  0  0  0  0  0  0  0
   12.3641   43.5934  134.1750 H   0  0  0  0  0  0  0  0  0  0  0  0
    9.5792   47.2633  131.1688 C   0  0  0  0  0  0  0  0  0  0  0  0
    9.5806   48.4572  131.8983 C   0  0  0  0  0  0  0  0  0  0  0  0
    8.9325   49.5818  131.4349 C   0  0  0  0  0  0  0  0  0  0  0  0
    8.2578   49.5721  130.2343 C   0  0  0  0  0  0  0  0  0  0  0  0
    7.6058   50.7299  129.7841 O   0  0  0  0  0  0  0  0  0  0  0  0
    8.2478   48.4059  129.5068 C   0  0  0  0  0  0  0  0  0  0  0  0
    7.5888   48.3855  128.3273 F   0  0  0  0  0  0  0  0  0  0  0  0
    8.9099   47.2668  129.9862 C   0  0  0  0  0  0  0  0  0  0  0  0
    7.1164   50.7171  128.9094 H   0  0  0  0  0  0  0  0  0  0  0  0
  1  2  1  0  0  0
  2  3  2  0  0  0
  3  4  1  0  0  0
  4  5  1  0  0  0
  5  6  1  0  0  0
  5  7  1  0  0  0
  7  8  1  0  0  0
  8  9  1  0  0  0
  9 10  1  0  0  0
 10 11  1  0  0  0
 11 12  1  0  0  0
 11 13  1  0  0  0
  9 15  1  0  0  0
 15 16  2  0  0  0
 16 17  1  0  0  0
 17 18  2  0  0  0
 18 19  1  0  0  0
 18 20  1  0  0  0
 20 21  1  0  0  0
 20 22  2  0  0  0
  8  2  1  0  0  0
 22 15  1  0  0  0
 11  5  1  0  0  0
  6 14  1  0  0  0
 19 23  1  0  0  0
M  END
> <minimizedAffinity>
-8.63269

> <CNNscore>
0.3908720613

> <CNNaffinity>
7.0055589676

> <CNN_VS>
2.7382771969

> <CNNaffinity_variance>
0.4551720619

$$$$
[H]Oc1c([H])c([H])c([C@]2([H])OC(C([H])([H])[H])(C([H])([H])[H])[C@]3(O[H])C([H])([H])C([H])=C(C([H])([H])[H])[C@@]2([H])C3([H])[H])c([H])c1F


 23 25  0  0  0  0  0  0  0  0999 V2000
   10.6557   45.7619  133.7912 C   0  0  0  0  0  0  0  0  0  0  0  0
   10.0246   46.9293  133.1306 C   0  0  0  0  0  0  0  0  0  0  0  0
   10.6475   48.0932  133.2196 C   0  0  0  0  0  0  0  0  0  0  0  0
   10.1637   49.3596  132.6230 C   0  0  0  0  0  0  0  0  0  0  0  0
    8.9317   49.1371  131.7664 C   0  0  0  0  0  0  0  0  0  0  0  0
    8.2644   50.3514  131.5825 O   0  0  0  0  0  0  0  0  0  0  0  0
    8.0676   48.1573  132.5009 C   0  0  0  0  0  0  0  0  0  0  0  0
    8.7584   46.7758  132.4132 C   0  0  0  0  0  0  0  0  0  0  0  0
    8.9029   46.5401  130.9279 C   0  0  0  0  0  0  0  0  0  0  0  0
    9.9221   47.3776  130.4581 O   0  0  0  0  0  0  0  0  0  0  0  0
    9.3856   48.6651  130.4207 C   0  0  0  0  0  0  0  0  0  0  0  0
   10.5158   49.5727  129.9352 C   0  0  0  0  0  0  0  0  0  0  0  0
    8.2761   48.8041  129.3989 C   0  0  0  0  0  0  0  0  0  0  0  0
    7.2887   50.2076  131.6943 H   0  0  0  0  0  0  0  0  0  0  0  0
    9.1048   45.1478  130.5273 C   0  0  0  0  0  0  0  0  0  0  0  0
   10.2089   44.8453  129.7230 C   0  0  0  0  0  0  0  0  0  0  0  0
   10.4557   43.5576  129.2983 C   0  0  0  0  0  0  0  0  0  0  0  0
    9.6230   42.5187  129.6503 C   0  0  0  0  0  0  0  0  0  0  0  0
    9.8956   41.2164  129.2054 O   0  0  0  0  0  0  0  0  0  0  0  0
    8.5340   42.8011  130.4402 C   0  0  0  0  0  0  0  0  0  0  0  0
    7.7105   41.7890  130.7915 F   0  0  0  0  0  0  0  0  0  0  0  0
    8.2909   44.1142  130.8674 C   0  0  0  0  0  0  0  0  0  0  0  0
    9.2861   40.4641  129.4648 H   0  0  0  0  0  0  0  0  0  0  0  0
  1  2  1  0  0  0
  2  3  2  0  0  0
  3  4  1  0  0  0
  4  5  1  0  0  0
  5  6  1  0  0  0
  5  7  1  0  0  0
  7  8  1  0  0  0
  8  9  1  0  0  0
  9 10  1  0  0  0
 10 11  1  0  0  0
 11 12  1  0  0  0
 11 13  1  0  0  0
  9 15  1  0  0  0
 15 16  2  0  0  0
 16 17  1  0  0  0
 17 18  2  0  0  0
 18 19  1  0  0  0
 18 20  1  0  0  0
 20 21  1  0  0  0
 20 22  2  0  0  0
  8  2  1  0  0  0
 22 15  1  0  0  0
 11  5  1  0  0  0
  6 14  1  0  0  0
 19 23  1  0  0  0
M  END
> <minimizedAffinity>
-3.74450

> <CNNscore>
0.3735690117

> <CNNaffinity>
6.4465751648

> <CNN_VS>
2.4082407951

> <CNNaffinity_variance>
0.3434540629

$$$$
[H]Oc1c([H])c([H])c([C@]2([H])OC(C([H])([H])[H])(C([H])([H])[H])[C@]3(O[H])C([H])([H])C([H])=C(C([H])([H])[H])[C@@]2([H])C3([H])[H])c([H])c1F


 23 25  0  0  0  0  0  0  0  0999 V2000
    9.1800   46.3269  133.8302 C   0  0  0  0  0  0  0  0  0  0  0  0
    9.3804   45.9914  132.4002 C   0  0  0  0  0  0  0  0  0  0  0  0
   10.2948   46.6769  131.7335 C   0  0  0  0  0  0  0  0  0  0  0  0
   10.6267   46.4767  130.3039 C   0  0  0  0  0  0  0  0  0  0  0  0
    9.8908   45.2843  129.7227 C   0  0  0  0  0  0  0  0  0  0  0  0
    9.8772   45.3775  128.3281 O   0  0  0  0  0  0  0  0  0  0  0  0
    8.4985   45.3260  130.2756 C   0  0  0  0  0  0  0  0  0  0  0  0
    8.5835   44.9378  131.7708 C   0  0  0  0  0  0  0  0  0  0  0  0
    9.2425   43.5785  131.7521 C   0  0  0  0  0  0  0  0  0  0  0  0
   10.5969   43.7629  131.4476 O   0  0  0  0  0  0  0  0  0  0  0  0
   10.6565   44.0501  130.0834 C   0  0  0  0  0  0  0  0  0  0  0  0
   12.1353   44.2782  129.7708 C   0  0  0  0  0  0  0  0  0  0  0  0
   10.2280   42.8796  129.2228 C   0  0  0  0  0  0  0  0  0  0  0  0
    8.9720   45.1440  127.9944 H   0  0  0  0  0  0  0  0  0  0  0  0
    9.0533   42.7695  132.9559 C   0  0  0  0  0  0  0  0  0  0  0  0
    7.7582   42.3416  133.2676 C   0  0  0  0  0  0  0  0  0  0  0  0
    7.5033   41.5859  134.3916 C   0  0  0  0  0  0  0  0  0  0  0  0
    8.5160   41.2231  135.2516 C   0  0  0  0  0  0  0  0  0  0  0  0
    8.2311   40.4532  136.3893 O   0  0  0  0  0  0  0  0  0  0  0  0
    9.7937   41.6365  134.9581 C   0  0  0  0  0  0  0  0  0  0  0  0
   10.7948   41.2860  135.7954 F   0  0  0  0  0  0  0  0  0  0  0  0
   10.0434   42.4051  133.8125 C   0  0  0  0  0  0  0  0  0  0  0  0
    8.9722   40.1920  137.0117 H   0  0  0  0  0  0  0  0  0  0  0  0
  1  2  1  0  0  0
  2  3  2  0  0  0
  3  4  1  0  0  0
  4  5  1  0  0  0
  5  6  1  0  0  0
  5  7  1  0  0  0
  7  8  1  0  0  0
  8  9  1  0  0  0
  9 10  1  0  0  0
 10 11  1  0  0  0
 11 12  1  0  0  0
 11 13  1  0  0  0
  9 15  1  0  0  0
 15 16  2  0  0  0
 16 17  1  0  0  0
 17 18  2  0  0  0
 18 19  1  0  0  0
 18 20  1  0  0  0
 20 21  1  0  0  0
 20 22  2  0  0  0
  8  2  1  0  0  0
 22 15  1  0  0  0
 11  5  1  0  0  0
  6 14  1  0  0  0
 19 23  1  0  0  0
M  END
> <minimizedAffinity>
20.21336

> <CNNscore>
0.2723590434

> <CNNaffinity>
6.3637480736

> <CNN_VS>
1.7332243919

> <CNNaffinity_variance>
0.5204156041

$$$$
[H]Oc1c([H])c([H])c([C@]2([H])OC(C([H])([H])[H])(C([H])([H])[H])[C@]3(O[H])C([H])([H])C([H])=C(C([H])([H])[H])[C@@]2([H])C3([H])[H])c([H])c1F


 23 25  0  0  0  0  0  0  0  0999 V2000
    7.8679   43.2018  131.4655 C   0  0  0  0  0  0  0  0  0  0  0  0
    8.0391   44.4559  132.2372 C   0  0  0  0  0  0  0  0  0  0  0  0
    7.8705   44.3952  133.5481 C   0  0  0  0  0  0  0  0  0  0  0  0
    8.0016   45.5453  134.4722 C   0  0  0  0  0  0  0  0  0  0  0  0
    8.4983   46.7848  133.7522 C   0  0  0  0  0  0  0  0  0  0  0  0
    8.2044   47.9182  134.5155 O   0  0  0  0  0  0  0  0  0  0  0  0
    7.7894   46.8295  132.4326 C   0  0  0  0  0  0  0  0  0  0  0  0
    8.3807   45.7031  131.5522 C   0  0  0  0  0  0  0  0  0  0  0  0
    9.8585   46.0145  131.5151 C   0  0  0  0  0  0  0  0  0  0  0  0
   10.3974   45.6860  132.7652 O   0  0  0  0  0  0  0  0  0  0  0  0
    9.9878   46.6889  133.6445 C   0  0  0  0  0  0  0  0  0  0  0  0
   10.5571   46.3029  135.0097 C   0  0  0  0  0  0  0  0  0  0  0  0
   10.5916   48.0375  133.3114 C   0  0  0  0  0  0  0  0  0  0  0  0
    7.8545   48.6309  133.9198 H   0  0  0  0  0  0  0  0  0  0  0  0
   10.6042   45.4030  130.4153 C   0  0  0  0  0  0  0  0  0  0  0  0
    9.9369   45.1856  129.2050 C   0  0  0  0  0  0  0  0  0  0  0  0
   10.5729   44.6039  128.1295 C   0  0  0  0  0  0  0  0  0  0  0  0
   11.8916   44.2142  128.2063 C   0  0  0  0  0  0  0  0  0  0  0  0
   12.5168   43.6243  127.0976 O   0  0  0  0  0  0  0  0  0  0  0  0
   12.5600   44.4216  129.3895 C   0  0  0  0  0  0  0  0  0  0  0  0
   13.8543   44.0429  129.4756 F   0  0  0  0  0  0  0  0  0  0  0  0
   11.9047   45.0139  130.4782 C   0  0  0  0  0  0  0  0  0  0  0  0
   13.4769   43.3427  127.1592 H   0  0  0  0  0  0  0  0  0  0  0  0
  1  2  1  0  0  0
  2  3  2  0  0  0
  3  4  1  0  0  0
  4  5  1  0  0  0
  5  6  1  0  0  0
  5  7  1  0  0  0
  7  8  1  0  0  0
  8  9  1  0  0  0
  9 10  1  0  0  0
 10 11  1  0  0  0
 11 12  1  0  0  0
 11 13  1  0  0  0
  9 15  1  0  0  0
 15 16  2  0  0  0
 16 17  1  0  0  0
 17 18  2  0  0  0
 18 19  1  0  0  0
 18 20  1  0  0  0
 20 21  1  0  0  0
 20 22  2  0  0  0
  8  2  1  0  0  0
 22 15  1  0  0  0
 11  5  1  0  0  0
  6 14  1  0  0  0
 19 23  1  0  0  0
M  END
> <minimizedAffinity>
-0.32410

> <CNNscore>
0.2317760736

> <CNNaffinity>
6.2584481239

> <CNN_VS>
1.4505585432

> <CNNaffinity_variance>
0.6180624962

$$$$
[H]Oc1c([H])c([H])c([C@]2([H])OC(C([H])([H])[H])(C([H])([H])[H])[C@]3(O[H])C([H])([H])C([H])=C(C([H])([H])[H])[C@@]2([H])C3([H])[H])c([H])c1F


 23 25  0  0  0  0  0  0  0  0999 V2000
   10.4934   47.0723  134.5882 C   0  0  0  0  0  0  0  0  0  0  0  0
    9.7831   47.7550  133.4806 C   0  0  0  0  0  0  0  0  0  0  0  0
   10.1070   49.0130  133.2296 C   0  0  0  0  0  0  0  0  0  0  0  0
    9.5019   49.8463  132.1650 C   0  0  0  0  0  0  0  0  0  0  0  0
    8.5600   49.0381  131.2926 C   0  0  0  0  0  0  0  0  0  0  0  0
    7.7027   49.9018  130.6050 O   0  0  0  0  0  0  0  0  0  0  0  0
    7.7898   48.1372  132.2096 C   0  0  0  0  0  0  0  0  0  0  0  0
    8.7639   47.0435  132.7082 C   0  0  0  0  0  0  0  0  0  0  0  0
    9.2714   46.4071  131.4354 C   0  0  0  0  0  0  0  0  0  0  0  0
   10.1632   47.3038  130.8338 O   0  0  0  0  0  0  0  0  0  0  0  0
    9.3831   48.3155  130.2727 C   0  0  0  0  0  0  0  0  0  0  0  0
   10.3689   49.3015  129.6461 C   0  0  0  0  0  0  0  0  0  0  0  0
    8.5159   47.8186  129.1346 C   0  0  0  0  0  0  0  0  0  0  0  0
    6.7801   49.5369  130.6341 H   0  0  0  0  0  0  0  0  0  0  0  0
    9.8493   45.0718  131.5852 C   0  0  0  0  0  0  0  0  0  0  0  0
    9.0064   44.0278  131.9816 C   0  0  0  0  0  0  0  0  0  0  0  0
    9.4837   42.7463  132.1536 C   0  0  0  0  0  0  0  0  0  0  0  0
   10.8107   42.4452  131.9412 C   0  0  0  0  0  0  0  0  0  0  0  0
   11.2723   41.1329  132.1228 O   0  0  0  0  0  0  0  0  0  0  0  0
   11.6507   43.4611  131.5514 C   0  0  0  0  0  0  0  0  0  0  0  0
   12.9547   43.1765  131.3403 F   0  0  0  0  0  0  0  0  0  0  0  0
   11.1562   44.7616  131.3791 C   0  0  0  0  0  0  0  0  0  0  0  0
   12.2392   40.9195  131.9667 H   0  0  0  0  0  0  0  0  0  0  0  0
  1  2  1  0  0  0
  2  3  2  0  0  0
  3  4  1  0  0  0
  4  5  1  0  0  0
  5  6  1  0  0  0
  5  7  1  0  0  0
  7  8  1  0  0  0
  8  9  1  0  0  0
  9 10  1  0  0  0
 10 11  1  0  0  0
 11 12  1  0  0  0
 11 13  1  0  0  0
  9 15  1  0  0  0
 15 16  2  0  0  0
 16 17  1  0  0  0
 17 18  2  0  0  0
 18 19  1  0  0  0
 18 20  1  0  0  0
 20 21  1  0  0  0
 20 22  2  0  0  0
  8  2  1  0  0  0
 22 15  1  0  0  0
 11  5  1  0  0  0
  6 14  1  0  0  0
 19 23  1  0  0  0
M  END
> <minimizedAffinity>
-5.30723

> <CNNscore>
0.2288326472

> <CNNaffinity>
6.4461340904

> <CNN_VS>
1.4750859737

> <CNNaffinity_variance>
0.1224689707

$$$$
[H]Oc1c([H])c([H])c2c(c1[H])C([H])([H])C([H])([H])C([H])([H])C(c1c([H])c([H])c(OC([H])([H])C([H])([H])[H])c(F)c1F)=C2c1c([H])c([H])c(O[C@]2([H])C([H])([H])N(C([H])([H])C([H])([H])C([H])([H])F)C([H])([H])C2([H])[H])c([H])c1[H]


 40 44  0  0  0  0  0  0  0  0999 V2000
   10.5788   45.6295  133.4599 C   0  0  0  0  0  0  0  0  0  0  0  0
   10.2813   44.9283  132.4126 C   0  0  0  0  0  0  0  0  0  0  0  0
   10.5214   43.4865  132.2309 C   0  0  0  0  0  0  0  0  0  0  0  0
   10.4869   43.0974  130.9333 C   0  0  0  0  0  0  0  0  0  0  0  0
   10.6829   41.7548  130.5724 C   0  0  0  0  0  0  0  0  0  0  0  0
   10.9164   40.8059  131.5387 C   0  0  0  0  0  0  0  0  0  0  0  0
   11.1157   39.4697  131.2381 O   0  0  0  0  0  0  0  0  0  0  0  0
   10.9574   41.1833  132.8698 C   0  0  0  0  0  0  0  0  0  0  0  0
   10.7631   42.4882  133.1679 C   0  0  0  0  0  0  0  0  0  0  0  0
   10.9063   42.7673  134.6478 C   0  0  0  0  0  0  0  0  0  0  0  0
   11.9048   43.9344  134.7481 C   0  0  0  0  0  0  0  0  0  0  0  0
   11.1103   45.1757  134.8204 C   0  0  0  0  0  0  0  0  0  0  0  0
   11.2849   38.7854  131.9521 H   0  0  0  0  0  0  0  0  0  0  0  0
    9.6092   49.8278  133.4357 C   0  0  0  0  0  0  0  0  0  0  0  0
   10.7143   49.3566  132.7741 C   0  0  0  0  0  0  0  0  0  0  0  0
   11.0604   47.9968  132.7570 C   0  0  0  0  0  0  0  0  0  0  0  0
   10.3018   47.0569  133.4102 C   0  0  0  0  0  0  0  0  0  0  0  0
    9.1791   47.5390  134.0820 C   0  0  0  0  0  0  0  0  0  0  0  0
    8.4036   46.6601  134.7705 F   0  0  0  0  0  0  0  0  0  0  0  0
    8.8358   48.8718  134.1002 C   0  0  0  0  0  0  0  0  0  0  0  0
    7.7361   49.3329  134.7565 F   0  0  0  0  0  0  0  0  0  0  0  0
    9.2434   51.1645  133.4663 O   0  0  0  0  0  0  0  0  0  0  0  0
    9.0530   53.0606  134.9829 C   0  0  0  0  0  0  0  0  0  0  0  0
    9.9165   52.2027  134.0929 C   0  0  0  0  0  0  0  0  0  0  0  0
    9.7028   45.5471  131.2654 C   0  0  0  0  0  0  0  0  0  0  0  0
    8.4327   45.4136  130.7947 C   0  0  0  0  0  0  0  0  0  0  0  0
    7.9982   46.0433  129.6411 C   0  0  0  0  0  0  0  0  0  0  0  0
    8.8206   46.8506  128.8877 C   0  0  0  0  0  0  0  0  0  0  0  0
   10.1077   46.9899  129.3612 C   0  0  0  0  0  0  0  0  0  0  0  0
   10.5596   46.3764  130.4991 C   0  0  0  0  0  0  0  0  0  0  0  0
    8.4548   47.5075  127.7314 O   0  0  0  0  0  0  0  0  0  0  0  0
    7.8907   48.7740  127.6208 C   0  0  0  0  0  0  0  0  0  0  0  0
    6.5085   48.5742  126.9808 C   0  0  0  0  0  0  0  0  0  0  0  0
    5.7778   47.8901  128.1160 C   0  0  0  0  0  0  0  0  0  0  0  0
    6.2418   48.5493  129.2968 N   0  0  0  0  0  0  0  0  0  0  0  0
    7.4135   49.2958  128.9909 C   0  0  0  0  0  0  0  0  0  0  0  0
    5.1721   49.2435  129.9212 C   0  0  0  0  0  0  0  0  0  0  0  0
    3.8383   48.5825  129.8279 C   0  0  0  0  0  0  0  0  0  0  0  0
    4.1029   47.0736  129.9328 C   0  0  0  0  0  0  0  0  0  0  0  0
    2.8595   46.4724  130.0417 F   0  0  0  0  0  0  0  0  0  0  0  0
 23 24  1  0  0  0
 24 22  1  0  0  0
 22 14  1  0  0  0
 14 15  2  0  0  0
 15 16  1  0  0  0
 16 17  2  0  0  0
 17 18  1  0  0  0
 18 19  1  0  0  0
 18 20  2  0  0  0
 20 21  1  0  0  0
 17  1  1  0  0  0
  1  2  2  0  0  0
  2 25  1  0  0  0
 25 26  2  0  0  0
 26 27  1  0  0  0
 27 28  2  0  0  0
 28 31  1  0  0  0
 31 32  1  0  0  0
 32 33  1  0  0  0
 33 34  1  0  0  0
 34 35  1  0  0  0
 35 37  1  0  0  0
 37 38  1  0  0  0
 38 39  1  0  0  0
 39 40  1  0  0  0
 35 36  1  0  0  0
 28 29  1  0  0  0
 29 30  2  0  0  0
  2  3  1  0  0  0
  3  4  2  0  0  0
  4  5  1  0  0  0
  5  6  2  0  0  0
  6  7  1  0  0  0
  6  8  1  0  0  0
  8  9  2  0  0  0
  9 10  1  0  0  0
 10 11  1  0  0  0
 11 12  1  0  0  0
 20 14  1  0  0  0
 12  1  1  0  0  0
 30 25  1  0  0  0
  9  3  1  0  0  0
 36 32  1  0  0  0
  7 13  1  0  0  0
M  END
> <minimizedAffinity>
19.36911

> <CNNscore>
0.4814125597

> <CNNaffinity>
8.2409420013

> <CNN_VS>
3.9672930241

> <CNNaffinity_variance>
1.1929298639

$$$$
[H]Oc1c([H])c([H])c2c(c1[H])C([H])([H])C([H])([H])C([H])([H])C(c1c([H])c([H])c(OC([H])([H])C([H])([H])[H])c(F)c1F)=C2c1c([H])c([H])c(O[C@]2([H])C([H])([H])N(C([H])([H])C([H])([H])C([H])([H])F)C([H])([H])C2([H])[H])c([H])c1[H]


 40 44  0  0  0  0  0  0  0  0999 V2000
   10.5597   43.4554  130.2545 C   0  0  0  0  0  0  0  0  0  0  0  0
   10.4127   44.6525  129.7827 C   0  0  0  0  0  0  0  0  0  0  0  0
   10.2584   45.0185  128.3645 C   0  0  0  0  0  0  0  0  0  0  0  0
   10.5199   46.3250  128.1173 C   0  0  0  0  0  0  0  0  0  0  0  0
   10.4117   46.8546  126.8215 C   0  0  0  0  0  0  0  0  0  0  0  0
   10.0366   46.0481  125.7738 C   0  0  0  0  0  0  0  0  0  0  0  0
    9.9144   46.5187  124.4779 O   0  0  0  0  0  0  0  0  0  0  0  0
    9.7670   44.7103  126.0051 C   0  0  0  0  0  0  0  0  0  0  0  0
    9.8854   44.2464  127.2701 C   0  0  0  0  0  0  0  0  0  0  0  0
    9.6318   42.7578  127.3626 C   0  0  0  0  0  0  0  0  0  0  0  0
   10.8469   42.1829  128.1122 C   0  0  0  0  0  0  0  0  0  0  0  0
   10.4763   42.1065  129.5384 C   0  0  0  0  0  0  0  0  0  0  0  0
    9.6393   45.9206  123.7208 H   0  0  0  0  0  0  0  0  0  0  0  0
   10.9411   42.9807  134.5201 C   0  0  0  0  0  0  0  0  0  0  0  0
   11.9952   43.4264  133.7643 C   0  0  0  0  0  0  0  0  0  0  0  0
   11.9079   43.5963  132.3741 C   0  0  0  0  0  0  0  0  0  0  0  0
   10.7491   43.3208  131.6907 C   0  0  0  0  0  0  0  0  0  0  0  0
    9.6795   42.8676  132.4618 C   0  0  0  0  0  0  0  0  0  0  0  0
    8.5135   42.5520  131.8383 F   0  0  0  0  0  0  0  0  0  0  0  0
    9.7609   42.7008  133.8256 C   0  0  0  0  0  0  0  0  0  0  0  0
    8.7103   42.2605  134.5707 F   0  0  0  0  0  0  0  0  0  0  0  0
   10.9997   42.8068  135.8941 O   0  0  0  0  0  0  0  0  0  0  0  0
   10.2271   45.0415  136.4780 C   0  0  0  0  0  0  0  0  0  0  0  0
   10.9863   43.7974  136.8647 C   0  0  0  0  0  0  0  0  0  0  0  0
   10.4355   45.7828  130.6520 C   0  0  0  0  0  0  0  0  0  0  0  0
   11.4917   46.5886  130.9480 C   0  0  0  0  0  0  0  0  0  0  0  0
   11.3954   47.6409  131.8421 C   0  0  0  0  0  0  0  0  0  0  0  0
   10.2229   47.9477  132.4955 C   0  0  0  0  0  0  0  0  0  0  0  0
    9.1499   47.1351  132.1980 C   0  0  0  0  0  0  0  0  0  0  0  0
    9.2221   46.0886  131.3177 C   0  0  0  0  0  0  0  0  0  0  0  0
   10.0559   48.9791  133.3960 O   0  0  0  0  0  0  0  0  0  0  0  0
    9.0724   49.9624  133.3823 C   0  0  0  0  0  0  0  0  0  0  0  0
    9.6074   51.0928  132.4901 C   0  0  0  0  0  0  0  0  0  0  0  0
    9.5462   50.4232  131.1343 C   0  0  0  0  0  0  0  0  0  0  0  0
    8.3356   49.6629  131.1585 N   0  0  0  0  0  0  0  0  0  0  0  0
    7.8778   49.5472  132.5005 C   0  0  0  0  0  0  0  0  0  0  0  0
    7.4200   50.1713  130.1997 C   0  0  0  0  0  0  0  0  0  0  0  0
    6.4217   49.1905  129.6842 C   0  0  0  0  0  0  0  0  0  0  0  0
    7.2328   48.0236  129.1025 C   0  0  0  0  0  0  0  0  0  0  0  0
    7.5488   48.3858  127.8031 F   0  0  0  0  0  0  0  0  0  0  0  0
 23 24  1  0  0  0
 24 22  1  0  0  0
 22 14  1  0  0  0
 14 15  2  0  0  0
 15 16  1  0  0  0
 16 17  2  0  0  0
 17 18  1  0  0  0
 18 19  1  0  0  0
 18 20  2  0  0  0
 20 21  1  0  0  0
 17  1  1  0  0  0
  1  2  2  0  0  0
  2 25  1  0  0  0
 25 26  2  0  0  0
 26 27  1  0  0  0
 27 28  2  0  0  0
 28 31  1  0  0  0
 31 32  1  0  0  0
 32 33  1  0  0  0
 33 34  1  0  0  0
 34 35  1  0  0  0
 35 37  1  0  0  0
 37 38  1  0  0  0
 38 39  1  0  0  0
 39 40  1  0  0  0
 35 36  1  0  0  0
 28 29  1  0  0  0
 29 30  2  0  0  0
  2  3  1  0  0  0
  3  4  2  0  0  0
  4  5  1  0  0  0
  5  6  2  0  0  0
  6  7  1  0  0  0
  6  8  1  0  0  0
  8  9  2  0  0  0
  9 10  1  0  0  0
 10 11  1  0  0  0
 11 12  1  0  0  0
 20 14  1  0  0  0
 12  1  1  0  0  0
 30 25  1  0  0  0
  9  3  1  0  0  0
 36 32  1  0  0  0
  7 13  1  0  0  0
M  END
> <minimizedAffinity>
17.46098

> <CNNscore>
0.4253235161

> <CNNaffinity>
8.2028284073

> <CNN_VS>
3.4888558388

> <CNNaffinity_variance>
1.0160382986

$$$$
[H]Oc1c([H])c([H])c2c(c1[H])C([H])([H])C([H])([H])C([H])([H])C(c1c([H])c([H])c(OC([H])([H])C([H])([H])[H])c(F)c1F)=C2c1c([H])c([H])c(O[C@]2([H])C([H])([H])N(C([H])([H])C([H])([H])C([H])([H])F)C([H])([H])C2([H])[H])c([H])c1[H]


 40 44  0  0  0  0  0  0  0  0999 V2000
    9.8816   44.2997  132.2379 C   0  0  0  0  0  0  0  0  0  0  0  0
    9.3864   44.3279  131.0415 C   0  0  0  0  0  0  0  0  0  0  0  0
    9.6648   43.3684  129.9593 C   0  0  0  0  0  0  0  0  0  0  0  0
    9.3454   43.8407  128.7299 C   0  0  0  0  0  0  0  0  0  0  0  0
    9.5322   43.0570  127.5801 C   0  0  0  0  0  0  0  0  0  0  0  0
   10.0478   41.7874  127.6845 C   0  0  0  0  0  0  0  0  0  0  0  0
   10.2518   40.9731  126.5841 O   0  0  0  0  0  0  0  0  0  0  0  0
   10.3822   41.2872  128.9312 C   0  0  0  0  0  0  0  0  0  0  0  0
   10.1845   42.0798  130.0092 C   0  0  0  0  0  0  0  0  0  0  0  0
   10.6595   41.4342  131.2922 C   0  0  0  0  0  0  0  0  0  0  0  0
   11.5789   42.4747  131.9563 C   0  0  0  0  0  0  0  0  0  0  0  0
   10.7496   43.2353  132.9108 C   0  0  0  0  0  0  0  0  0  0  0  0
   10.6286   40.0474  126.6725 H   0  0  0  0  0  0  0  0  0  0  0  0
    8.9308   47.6080  134.8297 C   0  0  0  0  0  0  0  0  0  0  0  0
    8.1733   46.4646  134.8408 C   0  0  0  0  0  0  0  0  0  0  0  0
    8.4537   45.3661  134.0139 C   0  0  0  0  0  0  0  0  0  0  0  0
    9.5130   45.3799  133.1401 C   0  0  0  0  0  0  0  0  0  0  0  0
   10.2809   46.5437  133.1310 C   0  0  0  0  0  0  0  0  0  0  0  0
   11.3271   46.6280  132.2672 F   0  0  0  0  0  0  0  0  0  0  0  0
   10.0097   47.6227  133.9413 C   0  0  0  0  0  0  0  0  0  0  0  0
   10.7668   48.7538  133.9276 F   0  0  0  0  0  0  0  0  0  0  0  0
    8.6775   48.7057  135.6374 O   0  0  0  0  0  0  0  0  0  0  0  0
    6.4707   49.7262  135.7786 C   0  0  0  0  0  0  0  0  0  0  0  0
    7.5628   48.9194  136.4345 C   0  0  0  0  0  0  0  0  0  0  0  0
    8.5135   45.3824  130.6422 C   0  0  0  0  0  0  0  0  0  0  0  0
    7.1879   45.5202  130.9183 C   0  0  0  0  0  0  0  0  0  0  0  0
    6.4356   46.5790  130.4394 C   0  0  0  0  0  0  0  0  0  0  0  0
    6.9758   47.5690  129.6497 C   0  0  0  0  0  0  0  0  0  0  0  0
    8.3186   47.4345  129.3684 C   0  0  0  0  0  0  0  0  0  0  0  0
    9.0820   46.3958  129.8304 C   0  0  0  0  0  0  0  0  0  0  0  0
    6.2870   48.6498  129.1398 O   0  0  0  0  0  0  0  0  0  0  0  0
    5.8480   49.7747  129.8301 C   0  0  0  0  0  0  0  0  0  0  0  0
    7.0585   50.2927  130.6216 C   0  0  0  0  0  0  0  0  0  0  0  0
    7.9236   50.8082  129.4918 C   0  0  0  0  0  0  0  0  0  0  0  0
    7.0048   51.4062  128.5740 N   0  0  0  0  0  0  0  0  0  0  0  0
    5.6832   50.9821  128.8856 C   0  0  0  0  0  0  0  0  0  0  0  0
    7.2374   52.8045  128.4911 C   0  0  0  0  0  0  0  0  0  0  0  0
    6.8291   53.4470  127.2086 C   0  0  0  0  0  0  0  0  0  0  0  0
    8.1002   54.0836  126.6280 C   0  0  0  0  0  0  0  0  0  0  0  0
    7.8571   54.2622  125.2759 F   0  0  0  0  0  0  0  0  0  0  0  0
 23 24  1  0  0  0
 24 22  1  0  0  0
 22 14  1  0  0  0
 14 15  2  0  0  0
 15 16  1  0  0  0
 16 17  2  0  0  0
 17 18  1  0  0  0
 18 19  1  0  0  0
 18 20  2  0  0  0
 20 21  1  0  0  0
 17  1  1  0  0  0
  1  2  2  0  0  0
  2 25  1  0  0  0
 25 26  2  0  0  0
 26 27  1  0  0  0
 27 28  2  0  0  0
 28 31  1  0  0  0
 31 32  1  0  0  0
 32 33  1  0  0  0
 33 34  1  0  0  0
 34 35  1  0  0  0
 35 37  1  0  0  0
 37 38  1  0  0  0
 38 39  1  0  0  0
 39 40  1  0  0  0
 35 36  1  0  0  0
 28 29  1  0  0  0
 29 30  2  0  0  0
  2  3  1  0  0  0
  3  4  2  0  0  0
  4  5  1  0  0  0
  5  6  2  0  0  0
  6  7  1  0  0  0
  6  8  1  0  0  0
  8  9  2  0  0  0
  9 10  1  0  0  0
 10 11  1  0  0  0
 11 12  1  0  0  0
 20 14  1  0  0  0
 12  1  1  0  0  0
 30 25  1  0  0  0
  9  3  1  0  0  0
 36 32  1  0  0  0
  7 13  1  0  0  0
M  END
> <minimizedAffinity>
12.31070

> <CNNscore>
0.3863727450

> <CNNaffinity>
8.0377502441

> <CNN_VS>
3.1055676937

> <CNNaffinity_variance>
0.4812309146

$$$$
[H]Oc1c([H])c([H])c2c(c1[H])C([H])([H])C([H])([H])C([H])([H])C(c1c([H])c([H])c(OC([H])([H])C([H])([H])[H])c(F)c1F)=C2c1c([H])c([H])c(O[C@]2([H])C([H])([H])N(C([H])([H])C([H])([H])C([H])([H])F)C([H])([H])C2([H])[H])c([H])c1[H]


 40 44  0  0  0  0  0  0  0  0999 V2000
    9.8206   44.6077  132.4631 C   0  0  0  0  0  0  0  0  0  0  0  0
    9.8417   45.1557  131.2899 C   0  0  0  0  0  0  0  0  0  0  0  0
   10.1655   44.4849  130.0193 C   0  0  0  0  0  0  0  0  0  0  0  0
   10.4985   45.3472  129.0283 C   0  0  0  0  0  0  0  0  0  0  0  0
   10.8259   44.8852  127.7435 C   0  0  0  0  0  0  0  0  0  0  0  0
   10.8148   43.5387  127.4690 C   0  0  0  0  0  0  0  0  0  0  0  0
   11.1287   43.0302  126.2206 O   0  0  0  0  0  0  0  0  0  0  0  0
   10.4792   42.6414  128.4681 C   0  0  0  0  0  0  0  0  0  0  0  0
   10.1718   43.1342  129.6896 C   0  0  0  0  0  0  0  0  0  0  0  0
    9.8967   42.0407  130.6981 C   0  0  0  0  0  0  0  0  0  0  0  0
   10.7943   42.3644  131.9058 C   0  0  0  0  0  0  0  0  0  0  0  0
    9.9735   43.1378  132.8573 C   0  0  0  0  0  0  0  0  0  0  0  0
   11.1168   42.0449  126.0315 H   0  0  0  0  0  0  0  0  0  0  0  0
    9.1209   47.2384  135.8031 C   0  0  0  0  0  0  0  0  0  0  0  0
    8.1370   46.3960  135.3523 C   0  0  0  0  0  0  0  0  0  0  0  0
    8.3285   45.5235  134.2701 C   0  0  0  0  0  0  0  0  0  0  0  0
    9.5249   45.4682  133.5983 C   0  0  0  0  0  0  0  0  0  0  0  0
   10.5231   46.3260  134.0588 C   0  0  0  0  0  0  0  0  0  0  0  0
   11.7211   46.3369  133.4166 F   0  0  0  0  0  0  0  0  0  0  0  0
   10.3394   47.1824  135.1206 C   0  0  0  0  0  0  0  0  0  0  0  0
   11.3207   48.0143  135.5650 F   0  0  0  0  0  0  0  0  0  0  0  0
    8.9591   48.1076  136.8708 O   0  0  0  0  0  0  0  0  0  0  0  0
    7.1507   49.3907  135.8634 C   0  0  0  0  0  0  0  0  0  0  0  0
    7.8866   48.9552  137.1054 C   0  0  0  0  0  0  0  0  0  0  0  0
    9.5804   46.5490  131.1351 C   0  0  0  0  0  0  0  0  0  0  0  0
   10.3220   47.4687  130.4594 C   0  0  0  0  0  0  0  0  0  0  0  0
    9.9797   48.8091  130.4121 C   0  0  0  0  0  0  0  0  0  0  0  0
    8.8632   49.3073  131.0452 C   0  0  0  0  0  0  0  0  0  0  0  0
    8.1081   48.3793  131.7299 C   0  0  0  0  0  0  0  0  0  0  0  0
    8.4276   47.0492  131.7909 C   0  0  0  0  0  0  0  0  0  0  0  0
    8.4631   50.6273  131.0393 O   0  0  0  0  0  0  0  0  0  0  0  0
    7.2579   51.1434  130.5748 C   0  0  0  0  0  0  0  0  0  0  0  0
    7.3957   51.2493  129.0484 C   0  0  0  0  0  0  0  0  0  0  0  0
    7.3944   49.7836  128.6715 C   0  0  0  0  0  0  0  0  0  0  0  0
    6.4339   49.1843  129.5448 N   0  0  0  0  0  0  0  0  0  0  0  0
    6.1424   50.0798  130.6111 C   0  0  0  0  0  0  0  0  0  0  0  0
    5.3362   48.6853  128.7951 C   0  0  0  0  0  0  0  0  0  0  0  0
    5.1104   47.2142  128.8915 C   0  0  0  0  0  0  0  0  0  0  0  0
    6.4558   46.6038  129.3101 C   0  0  0  0  0  0  0  0  0  0  0  0
    6.2433   46.0182  130.5476 F   0  0  0  0  0  0  0  0  0  0  0  0
 23 24  1  0  0  0
 24 22  1  0  0  0
 22 14  1  0  0  0
 14 15  2  0  0  0
 15 16  1  0  0  0
 16 17  2  0  0  0
 17 18  1  0  0  0
 18 19  1  0  0  0
 18 20  2  0  0  0
 20 21  1  0  0  0
 17  1  1  0  0  0
  1  2  2  0  0  0
  2 25  1  0  0  0
 25 26  2  0  0  0
 26 27  1  0  0  0
 27 28  2  0  0  0
 28 31  1  0  0  0
 31 32  1  0  0  0
 32 33  1  0  0  0
 33 34  1  0  0  0
 34 35  1  0  0  0
 35 37  1  0  0  0
 37 38  1  0  0  0
 38 39  1  0  0  0
 39 40  1  0  0  0
 35 36  1  0  0  0
 28 29  1  0  0  0
 29 30  2  0  0  0
  2  3  1  0  0  0
  3  4  2  0  0  0
  4  5  1  0  0  0
  5  6  2  0  0  0
  6  7  1  0  0  0
  6  8  1  0  0  0
  8  9  2  0  0  0
  9 10  1  0  0  0
 10 11  1  0  0  0
 11 12  1  0  0  0
 20 14  1  0  0  0
 12  1  1  0  0  0
 30 25  1  0  0  0
  9  3  1  0  0  0
 36 32  1  0  0  0
  7 13  1  0  0  0
M  END
> <minimizedAffinity>
9.45280

> <CNNscore>
0.3844172955

> <CNNaffinity>
8.2172183990

> <CNN_VS>
3.1588408947

> <CNNaffinity_variance>
0.2134597301

$$$$
[H]Oc1c([H])c([H])c2c(c1[H])C([H])([H])C([H])([H])C([H])([H])C(c1c([H])c([H])c(OC([H])([H])C([H])([H])[H])c(F)c1F)=C2c1c([H])c([H])c(O[C@]2([H])C([H])([H])N(C([H])([H])C([H])([H])C([H])([H])F)C([H])([H])C2([H])[H])c([H])c1[H]


 40 44  0  0  0  0  0  0  0  0999 V2000
   10.2134   43.5935  131.8724 C   0  0  0  0  0  0  0  0  0  0  0  0
    9.9598   43.7824  130.6166 C   0  0  0  0  0  0  0  0  0  0  0  0
   10.0545   42.7751  129.5462 C   0  0  0  0  0  0  0  0  0  0  0  0
   10.1243   43.3167  128.3060 C   0  0  0  0  0  0  0  0  0  0  0  0
   10.2072   42.5055  127.1631 C   0  0  0  0  0  0  0  0  0  0  0  0
   10.2203   41.1368  127.2859 C   0  0  0  0  0  0  0  0  0  0  0  0
   10.3003   40.2914  126.1930 O   0  0  0  0  0  0  0  0  0  0  0  0
   10.1518   40.5639  128.5441 C   0  0  0  0  0  0  0  0  0  0  0  0
   10.0736   41.3866  129.6149 C   0  0  0  0  0  0  0  0  0  0  0  0
   10.0779   40.6283  130.9239 C   0  0  0  0  0  0  0  0  0  0  0  0
   11.1839   41.2829  131.7708 C   0  0  0  0  0  0  0  0  0  0  0  0
   10.5317   42.2980  132.6204 C   0  0  0  0  0  0  0  0  0  0  0  0
   10.3087   39.2932  126.2946 H   0  0  0  0  0  0  0  0  0  0  0  0
    9.7141   46.9470  134.5316 C   0  0  0  0  0  0  0  0  0  0  0  0
   10.9271   46.6866  133.9469 C   0  0  0  0  0  0  0  0  0  0  0  0
   11.1272   45.6064  133.0739 C   0  0  0  0  0  0  0  0  0  0  0  0
   10.1069   44.7438  132.7569 C   0  0  0  0  0  0  0  0  0  0  0  0
    8.8751   45.0110  133.3530 C   0  0  0  0  0  0  0  0  0  0  0  0
    7.8329   44.1759  133.0994 F   0  0  0  0  0  0  0  0  0  0  0  0
    8.6747   46.0701  134.2090 C   0  0  0  0  0  0  0  0  0  0  0  0
    7.4676   46.3249  134.7841 F   0  0  0  0  0  0  0  0  0  0  0  0
    9.4888   48.0080  135.3948 O   0  0  0  0  0  0  0  0  0  0  0  0
    9.5674   46.5792  137.3656 C   0  0  0  0  0  0  0  0  0  0  0  0
    9.3865   47.9556  136.7770 C   0  0  0  0  0  0  0  0  0  0  0  0
    9.5894   45.0734  130.1374 C   0  0  0  0  0  0  0  0  0  0  0  0
   10.3041   46.2293  130.2112 C   0  0  0  0  0  0  0  0  0  0  0  0
    9.8170   47.4354  129.7377 C   0  0  0  0  0  0  0  0  0  0  0  0
    8.5739   47.5511  129.1572 C   0  0  0  0  0  0  0  0  0  0  0  0
    7.8466   46.3827  129.0789 C   0  0  0  0  0  0  0  0  0  0  0  0
    8.3078   45.1789  129.5411 C   0  0  0  0  0  0  0  0  0  0  0  0
    8.0270   48.7176  128.6647 O   0  0  0  0  0  0  0  0  0  0  0  0
    6.9320   49.4148  129.1639 C   0  0  0  0  0  0  0  0  0  0  0  0
    5.7963   49.2151  128.1488 C   0  0  0  0  0  0  0  0  0  0  0  0
    5.4909   47.7487  128.3652 C   0  0  0  0  0  0  0  0  0  0  0  0
    5.6086   47.5573  129.7772 N   0  0  0  0  0  0  0  0  0  0  0  0
    6.2868   48.6693  130.3493 C   0  0  0  0  0  0  0  0  0  0  0  0
    4.3479   47.2089  130.3299 C   0  0  0  0  0  0  0  0  0  0  0  0
    3.4734   46.3752  129.4555 C   0  0  0  0  0  0  0  0  0  0  0  0
    2.0619   46.4680  130.0529 C   0  0  0  0  0  0  0  0  0  0  0  0
    1.5045   45.2068  129.9188 F   0  0  0  0  0  0  0  0  0  0  0  0
 23 24  1  0  0  0
 24 22  1  0  0  0
 22 14  1  0  0  0
 14 15  2  0  0  0
 15 16  1  0  0  0
 16 17  2  0  0  0
 17 18  1  0  0  0
 18 19  1  0  0  0
 18 20  2  0  0  0
 20 21  1  0  0  0
 17  1  1  0  0  0
  1  2  2  0  0  0
  2 25  1  0  0  0
 25 26  2  0  0  0
 26 27  1  0  0  0
 27 28  2  0  0  0
 28 31  1  0  0  0
 31 32  1  0  0  0
 32 33  1  0  0  0
 33 34  1  0  0  0
 34 35  1  0  0  0
 35 37  1  0  0  0
 37 38  1  0  0  0
 38 39  1  0  0  0
 39 40  1  0  0  0
 35 36  1  0  0  0
 28 29  1  0  0  0
 29 30  2  0  0  0
  2  3  1  0  0  0
  3  4  2  0  0  0
  4  5  1  0  0  0
  5  6  2  0  0  0
  6  7  1  0  0  0
  6  8  1  0  0  0
  8  9  2  0  0  0
  9 10  1  0  0  0
 10 11  1  0  0  0
 11 12  1  0  0  0
 20 14  1  0  0  0
 12  1  1  0  0  0
 30 25  1  0  0  0
  9  3  1  0  0  0
 36 32  1  0  0  0
  7 13  1  0  0  0
M  END
> <minimizedAffinity>
21.60422

> <CNNscore>
0.3742609024

> <CNNaffinity>
8.1211652756

> <CNN_VS>
3.0394346714

> <CNNaffinity_variance>
1.3861039877

$$$$
[H]Oc1c([H])c([H])c2c(c1[H])C([H])([H])C([H])([H])C([H])([H])C(c1c([H])c([H])c(OC([H])([H])C([H])([H])[H])c(F)c1F)=C2c1c([H])c([H])c(O[C@]2([H])C([H])([H])N(C([H])([H])C([H])([H])C([H])([H])F)C([H])([H])C2([H])[H])c([H])c1[H]


 40 44  0  0  0  0  0  0  0  0999 V2000
   10.8602   45.6446  132.8335 C   0  0  0  0  0  0  0  0  0  0  0  0
   10.1785   44.8655  132.0553 C   0  0  0  0  0  0  0  0  0  0  0  0
   10.4336   43.4354  131.8118 C   0  0  0  0  0  0  0  0  0  0  0  0
    9.8428   42.9707  130.6843 C   0  0  0  0  0  0  0  0  0  0  0  0
    9.9682   41.6261  130.3002 C   0  0  0  0  0  0  0  0  0  0  0  0
   10.7000   40.7527  131.0684 C   0  0  0  0  0  0  0  0  0  0  0  0
   10.8553   39.4181  130.7361 O   0  0  0  0  0  0  0  0  0  0  0  0
   11.3129   41.2082  132.2230 C   0  0  0  0  0  0  0  0  0  0  0  0
   11.1636   42.5117  132.5513 C   0  0  0  0  0  0  0  0  0  0  0  0
   11.9436   42.8848  133.7927 C   0  0  0  0  0  0  0  0  0  0  0  0
   12.7710   44.1213  133.3982 C   0  0  0  0  0  0  0  0  0  0  0  0
   11.9929   45.3075  133.8042 C   0  0  0  0  0  0  0  0  0  0  0  0
   11.3916   38.7894  131.3050 H   0  0  0  0  0  0  0  0  0  0  0  0
    9.7432   49.8062  132.8086 C   0  0  0  0  0  0  0  0  0  0  0  0
    9.5586   49.0343  133.9272 C   0  0  0  0  0  0  0  0  0  0  0  0
    9.9126   47.6772  133.9740 C   0  0  0  0  0  0  0  0  0  0  0  0
   10.4677   47.0445  132.8890 C   0  0  0  0  0  0  0  0  0  0  0  0
   10.6538   47.8317  131.7533 C   0  0  0  0  0  0  0  0  0  0  0  0
   11.1742   47.2547  130.6379 F   0  0  0  0  0  0  0  0  0  0  0  0
   10.3090   49.1633  131.7039 C   0  0  0  0  0  0  0  0  0  0  0  0
   10.4971   49.9248  130.5916 F   0  0  0  0  0  0  0  0  0  0  0  0
    9.4052   51.1486  132.7366 O   0  0  0  0  0  0  0  0  0  0  0  0
    9.0676   52.6600  134.6163 C   0  0  0  0  0  0  0  0  0  0  0  0
    9.9415   52.1882  133.4816 C   0  0  0  0  0  0  0  0  0  0  0  0
    9.0874   45.3761  131.2923 C   0  0  0  0  0  0  0  0  0  0  0  0
    9.0408   45.6080  129.9519 C   0  0  0  0  0  0  0  0  0  0  0  0
    7.9267   46.1440  129.3292 C   0  0  0  0  0  0  0  0  0  0  0  0
    6.7855   46.4802  130.0223 C   0  0  0  0  0  0  0  0  0  0  0  0
    6.8275   46.2459  131.3801 C   0  0  0  0  0  0  0  0  0  0  0  0
    7.9183   45.7174  132.0173 C   0  0  0  0  0  0  0  0  0  0  0  0
    5.6420   47.0161  129.4676 O   0  0  0  0  0  0  0  0  0  0  0  0
    5.5584   48.0068  128.4949 C   0  0  0  0  0  0  0  0  0  0  0  0
    4.8325   49.1917  129.1498 C   0  0  0  0  0  0  0  0  0  0  0  0
    5.8915   49.6551  130.1267 C   0  0  0  0  0  0  0  0  0  0  0  0
    7.1260   49.5119  129.4197 N   0  0  0  0  0  0  0  0  0  0  0  0
    6.9219   48.6921  128.2751 C   0  0  0  0  0  0  0  0  0  0  0  0
    7.7202   50.7846  129.2114 C   0  0  0  0  0  0  0  0  0  0  0  0
    6.7652   51.9153  129.0278 C   0  0  0  0  0  0  0  0  0  0  0  0
    7.1242   52.5611  127.6817 C   0  0  0  0  0  0  0  0  0  0  0  0
    7.1217   53.9293  127.8995 F   0  0  0  0  0  0  0  0  0  0  0  0
 23 24  1  0  0  0
 24 22  1  0  0  0
 22 14  1  0  0  0
 14 15  2  0  0  0
 15 16  1  0  0  0
 16 17  2  0  0  0
 17 18  1  0  0  0
 18 19  1  0  0  0
 18 20  2  0  0  0
 20 21  1  0  0  0
 17  1  1  0  0  0
  1  2  2  0  0  0
  2 25  1  0  0  0
 25 26  2  0  0  0
 26 27  1  0  0  0
 27 28  2  0  0  0
 28 31  1  0  0  0
 31 32  1  0  0  0
 32 33  1  0  0  0
 33 34  1  0  0  0
 34 35  1  0  0  0
 35 37  1  0  0  0
 37 38  1  0  0  0
 38 39  1  0  0  0
 39 40  1  0  0  0
 35 36  1  0  0  0
 28 29  1  0  0  0
 29 30  2  0  0  0
  2  3  1  0  0  0
  3  4  2  0  0  0
  4  5  1  0  0  0
  5  6  2  0  0  0
  6  7  1  0  0  0
  6  8  1  0  0  0
  8  9  2  0  0  0
  9 10  1  0  0  0
 10 11  1  0  0  0
 11 12  1  0  0  0
 20 14  1  0  0  0
 12  1  1  0  0  0
 30 25  1  0  0  0
  9  3  1  0  0  0
 36 32  1  0  0  0
  7 13  1  0  0  0
M  END
> <minimizedAffinity>
9.35580

> <CNNscore>
0.3630874455

> <CNNaffinity>
8.1117210388

> <CNN_VS>
2.9452641010

> <CNNaffinity_variance>
0.6995745897

$$$$
[H]Oc1c([H])c([H])c2c(c1[H])C([H])([H])C([H])([H])C([H])([H])C(c1c([H])c([H])c(OC([H])([H])C([H])([H])[H])c(F)c1F)=C2c1c([H])c([H])c(O[C@]2([H])C([H])([H])N(C([H])([H])C([H])([H])C([H])([H])F)C([H])([H])C2([H])[H])c([H])c1[H]


 40 44  0  0  0  0  0  0  0  0999 V2000
   10.7318   45.2649  132.7203 C   0  0  0  0  0  0  0  0  0  0  0  0
   10.0132   44.5659  131.9004 C   0  0  0  0  0  0  0  0  0  0  0  0
   10.2305   43.1562  131.5336 C   0  0  0  0  0  0  0  0  0  0  0  0
    9.6003   42.7976  130.3887 C   0  0  0  0  0  0  0  0  0  0  0  0
    9.6863   41.4870  129.8925 C   0  0  0  0  0  0  0  0  0  0  0  0
   10.4188   40.5391  130.5659 C   0  0  0  0  0  0  0  0  0  0  0  0
   10.5363   39.2337  130.1212 O   0  0  0  0  0  0  0  0  0  0  0  0
   11.0716   40.8858  131.7362 C   0  0  0  0  0  0  0  0  0  0  0  0
   10.9595   42.1605  132.1742 C   0  0  0  0  0  0  0  0  0  0  0  0
   11.7798   42.4147  133.4196 C   0  0  0  0  0  0  0  0  0  0  0  0
   12.6232   43.6631  133.1048 C   0  0  0  0  0  0  0  0  0  0  0  0
   11.8821   44.8267  133.6281 C   0  0  0  0  0  0  0  0  0  0  0  0
   11.0735   38.5498  130.6215 H   0  0  0  0  0  0  0  0  0  0  0  0
    9.5518   49.3518  133.4064 C   0  0  0  0  0  0  0  0  0  0  0  0
   10.4891   49.0399  132.4551 C   0  0  0  0  0  0  0  0  0  0  0  0
   10.8963   47.7212  132.2012 C   0  0  0  0  0  0  0  0  0  0  0  0
   10.3716   46.6628  132.9012 C   0  0  0  0  0  0  0  0  0  0  0  0
    9.4191   46.9831  133.8678 C   0  0  0  0  0  0  0  0  0  0  0  0
    8.8831   45.9803  134.6128 F   0  0  0  0  0  0  0  0  0  0  0  0
    9.0163   48.2751  134.1189 C   0  0  0  0  0  0  0  0  0  0  0  0
    8.0836   48.5780  135.0627 F   0  0  0  0  0  0  0  0  0  0  0  0
    9.1299   50.6446  133.6752 O   0  0  0  0  0  0  0  0  0  0  0  0
    9.5474   52.8725  134.5663 C   0  0  0  0  0  0  0  0  0  0  0  0
    9.8695   51.8107  133.5451 C   0  0  0  0  0  0  0  0  0  0  0  0
    8.9138   45.1590  131.2125 C   0  0  0  0  0  0  0  0  0  0  0  0
    7.6805   45.4552  131.7060 C   0  0  0  0  0  0  0  0  0  0  0  0
    6.6782   46.0007  130.9223 C   0  0  0  0  0  0  0  0  0  0  0  0
    6.8585   46.2832  129.5869 C   0  0  0  0  0  0  0  0  0  0  0  0
    8.1066   45.9861  129.0827 C   0  0  0  0  0  0  0  0  0  0  0  0
    9.1125   45.4458  129.8387 C   0  0  0  0  0  0  0  0  0  0  0  0
    5.9068   46.8261  128.7490 O   0  0  0  0  0  0  0  0  0  0  0  0
    5.9526   48.0565  128.1022 C   0  0  0  0  0  0  0  0  0  0  0  0
    4.7465   48.8573  128.6160 C   0  0  0  0  0  0  0  0  0  0  0  0
    5.1800   49.1196  130.0421 C   0  0  0  0  0  0  0  0  0  0  0  0
    6.5830   49.3805  129.9537 N   0  0  0  0  0  0  0  0  0  0  0  0
    7.0631   48.9539  128.6843 C   0  0  0  0  0  0  0  0  0  0  0  0
    6.8559   50.7203  130.3363 C   0  0  0  0  0  0  0  0  0  0  0  0
    8.2677   51.1644  130.1515 C   0  0  0  0  0  0  0  0  0  0  0  0
    9.0769   49.8950  129.8488 C   0  0  0  0  0  0  0  0  0  0  0  0
   10.3178   50.0816  130.4359 F   0  0  0  0  0  0  0  0  0  0  0  0
 23 24  1  0  0  0
 24 22  1  0  0  0
 22 14  1  0  0  0
 14 15  2  0  0  0
 15 16  1  0  0  0
 16 17  2  0  0  0
 17 18  1  0  0  0
 18 19  1  0  0  0
 18 20  2  0  0  0
 20 21  1  0  0  0
 17  1  1  0  0  0
  1  2  2  0  0  0
  2 25  1  0  0  0
 25 26  2  0  0  0
 26 27  1  0  0  0
 27 28  2  0  0  0
 28 31  1  0  0  0
 31 32  1  0  0  0
 32 33  1  0  0  0
 33 34  1  0  0  0
 34 35  1  0  0  0
 35 37  1  0  0  0
 37 38  1  0  0  0
 38 39  1  0  0  0
 39 40  1  0  0  0
 35 36  1  0  0  0
 28 29  1  0  0  0
 29 30  2  0  0  0
  2  3  1  0  0  0
  3  4  2  0  0  0
  4  5  1  0  0  0
  5  6  2  0  0  0
  6  7  1  0  0  0
  6  8  1  0  0  0
  8  9  2  0  0  0
  9 10  1  0  0  0
 10 11  1  0  0  0
 11 12  1  0  0  0
 20 14  1  0  0  0
 12  1  1  0  0  0
 30 25  1  0  0  0
  9  3  1  0  0  0
 36 32  1  0  0  0
  7 13  1  0  0  0
M  END
> <minimizedAffinity>
12.24712

> <CNNscore>
0.3606897593

> <CNNaffinity>
8.0229187012

> <CNN_VS>
2.8937845230

> <CNNaffinity_variance>
0.3469471931

$$$$
[H]Oc1c([H])c([H])c2c(c1[H])C([H])([H])C([H])([H])C([H])([H])C(c1c([H])c([H])c(OC([H])([H])C([H])([H])[H])c(F)c1F)=C2c1c([H])c([H])c(O[C@]2([H])C([H])([H])N(C([H])([H])C([H])([H])C([H])([H])F)C([H])([H])C2([H])[H])c([H])c1[H]


 40 44  0  0  0  0  0  0  0  0999 V2000
   10.5496   43.4059  129.8416 C   0  0  0  0  0  0  0  0  0  0  0  0
   10.4212   44.5923  129.3384 C   0  0  0  0  0  0  0  0  0  0  0  0
   10.2402   44.9210  127.9142 C   0  0  0  0  0  0  0  0  0  0  0  0
   10.5284   46.2125  127.6221 C   0  0  0  0  0  0  0  0  0  0  0  0
   10.4008   46.7071  126.3143 C   0  0  0  0  0  0  0  0  0  0  0  0
    9.9789   45.8808  125.3005 C   0  0  0  0  0  0  0  0  0  0  0  0
    9.8357   46.3166  123.9947 O   0  0  0  0  0  0  0  0  0  0  0  0
    9.6813   44.5576  125.5778 C   0  0  0  0  0  0  0  0  0  0  0  0
    9.8200   44.1276  126.8527 C   0  0  0  0  0  0  0  0  0  0  0  0
    9.5311   42.6495  126.9953 C   0  0  0  0  0  0  0  0  0  0  0  0
   10.7499   42.0649  127.7314 C   0  0  0  0  0  0  0  0  0  0  0  0
   10.4138   42.0394  129.1680 C   0  0  0  0  0  0  0  0  0  0  0  0
    9.5263   45.7044  123.2626 H   0  0  0  0  0  0  0  0  0  0  0  0
   11.0264   43.0471  134.1089 C   0  0  0  0  0  0  0  0  0  0  0  0
   12.0761   43.4282  133.3128 C   0  0  0  0  0  0  0  0  0  0  0  0
   11.9583   43.5588  131.9206 C   0  0  0  0  0  0  0  0  0  0  0  0
   10.7721   43.3079  131.2760 C   0  0  0  0  0  0  0  0  0  0  0  0
    9.7069   42.9205  132.0880 C   0  0  0  0  0  0  0  0  0  0  0  0
    8.5135   42.6316  131.5047 F   0  0  0  0  0  0  0  0  0  0  0  0
    9.8182   42.7923  133.4539 C   0  0  0  0  0  0  0  0  0  0  0  0
    8.7719   42.4163  134.2390 F   0  0  0  0  0  0  0  0  0  0  0  0
   11.1149   42.9132  135.4858 O   0  0  0  0  0  0  0  0  0  0  0  0
   10.5823   45.2576  135.8754 C   0  0  0  0  0  0  0  0  0  0  0  0
   10.9845   43.9162  136.4347 C   0  0  0  0  0  0  0  0  0  0  0  0
   10.4948   45.7462  130.1730 C   0  0  0  0  0  0  0  0  0  0  0  0
    9.6684   46.8276  130.1791 C   0  0  0  0  0  0  0  0  0  0  0  0
    9.8672   47.9096  131.0194 C   0  0  0  0  0  0  0  0  0  0  0  0
   10.9157   47.9681  131.9098 C   0  0  0  0  0  0  0  0  0  0  0  0
   11.7548   46.8745  131.9082 C   0  0  0  0  0  0  0  0  0  0  0  0
   11.5780   45.7938  131.0860 C   0  0  0  0  0  0  0  0  0  0  0  0
   11.1730   49.0117  132.7744 O   0  0  0  0  0  0  0  0  0  0  0  0
   10.5604   49.2677  133.9965 C   0  0  0  0  0  0  0  0  0  0  0  0
    9.1703   49.8343  133.6699 C   0  0  0  0  0  0  0  0  0  0  0  0
    8.4946   48.5986  133.1158 C   0  0  0  0  0  0  0  0  0  0  0  0
    8.9647   47.5275  133.9380 N   0  0  0  0  0  0  0  0  0  0  0  0
   10.1001   47.9627  134.6763 C   0  0  0  0  0  0  0  0  0  0  0  0
    7.8869   46.9657  134.6721 C   0  0  0  0  0  0  0  0  0  0  0  0
    7.5476   45.5536  134.3326 C   0  0  0  0  0  0  0  0  0  0  0  0
    7.9664   45.3556  132.8686 C   0  0  0  0  0  0  0  0  0  0  0  0
    6.9315   45.8647  132.1010 F   0  0  0  0  0  0  0  0  0  0  0  0
 23 24  1  0  0  0
 24 22  1  0  0  0
 22 14  1  0  0  0
 14 15  2  0  0  0
 15 16  1  0  0  0
 16 17  2  0  0  0
 17 18  1  0  0  0
 18 19  1  0  0  0
 18 20  2  0  0  0
 20 21  1  0  0  0
 17  1  1  0  0  0
  1  2  2  0  0  0
  2 25  1  0  0  0
 25 26  2  0  0  0
 26 27  1  0  0  0
 27 28  2  0  0  0
 28 31  1  0  0  0
 31 32  1  0  0  0
 32 33  1  0  0  0
 33 34  1  0  0  0
 34 35  1  0  0  0
 35 37  1  0  0  0
 37 38  1  0  0  0
 38 39  1  0  0  0
 39 40  1  0  0  0
 35 36  1  0  0  0
 28 29  1  0  0  0
 29 30  2  0  0  0
  2  3  1  0  0  0
  3  4  2  0  0  0
  4  5  1  0  0  0
  5  6  2  0  0  0
  6  7  1  0  0  0
  6  8  1  0  0  0
  8  9  2  0  0  0
  9 10  1  0  0  0
 10 11  1  0  0  0
 11 12  1  0  0  0
 20 14  1  0  0  0
 12  1  1  0  0  0
 30 25  1  0  0  0
  9  3  1  0  0  0
 36 32  1  0  0  0
  7 13  1  0  0  0
M  END
> <minimizedAffinity>
20.70634

> <CNNscore>
0.3555017114

> <CNNaffinity>
7.8086280823

> <CNN_VS>
2.7759807110

> <CNNaffinity_variance>
0.3678272963

$$$$
[H]Oc1c([H])c([H])c2c(c1[H])C([H])([H])C([H])([H])C([H])([H])C(c1c([H])c([H])c(OC([H])([H])C([H])([H])[H])c(F)c1F)=C2c1c([H])c([H])c(O[C@]2([H])C([H])([H])N(C([H])([H])C([H])([H])C([H])([H])F)C([H])([H])C2([H])[H])c([H])c1[H]


 40 44  0  0  0  0  0  0  0  0999 V2000
    9.1222   48.6347  131.5302 C   0  0  0  0  0  0  0  0  0  0  0  0
    8.3990   47.7996  130.8543 C   0  0  0  0  0  0  0  0  0  0  0  0
    7.3076   48.1426  129.9267 C   0  0  0  0  0  0  0  0  0  0  0  0
    6.4765   47.1033  129.6703 C   0  0  0  0  0  0  0  0  0  0  0  0
    5.3858   47.2442  128.7975 C   0  0  0  0  0  0  0  0  0  0  0  0
    5.1411   48.4499  128.1852 C   0  0  0  0  0  0  0  0  0  0  0  0
    4.0810   48.6430  127.3166 O   0  0  0  0  0  0  0  0  0  0  0  0
    5.9772   49.5244  128.4354 C   0  0  0  0  0  0  0  0  0  0  0  0
    7.0144   49.3399  129.2837 C   0  0  0  0  0  0  0  0  0  0  0  0
    7.7979   50.6125  129.5189 C   0  0  0  0  0  0  0  0  0  0  0  0
    7.8837   50.7618  131.0484 C   0  0  0  0  0  0  0  0  0  0  0  0
    9.1648   50.1623  131.4685 C   0  0  0  0  0  0  0  0  0  0  0  0
    3.9123   49.5278  126.8747 H   0  0  0  0  0  0  0  0  0  0  0  0
   12.1666   46.9184  134.0506 C   0  0  0  0  0  0  0  0  0  0  0  0
   11.1629   47.6870  134.5826 C   0  0  0  0  0  0  0  0  0  0  0  0
   10.1531   48.2597  133.7945 C   0  0  0  0  0  0  0  0  0  0  0  0
   10.1178   48.0787  132.4337 C   0  0  0  0  0  0  0  0  0  0  0  0
   11.1396   47.2972  131.8959 C   0  0  0  0  0  0  0  0  0  0  0  0
   11.1742   47.1045  130.5506 F   0  0  0  0  0  0  0  0  0  0  0  0
   12.1312   46.7328  132.6657 C   0  0  0  0  0  0  0  0  0  0  0  0
   13.1232   45.9687  132.1321 F   0  0  0  0  0  0  0  0  0  0  0  0
   13.1740   46.3390  134.8063 O   0  0  0  0  0  0  0  0  0  0  0  0
   14.3059   48.0262  136.1494 C   0  0  0  0  0  0  0  0  0  0  0  0
   14.3944   46.9028  135.1474 C   0  0  0  0  0  0  0  0  0  0  0  0
    8.5867   46.3936  131.0005 C   0  0  0  0  0  0  0  0  0  0  0  0
    8.1902   45.6001  132.0328 C   0  0  0  0  0  0  0  0  0  0  0  0
    8.4656   44.2441  132.0755 C   0  0  0  0  0  0  0  0  0  0  0  0
    9.1602   43.6014  131.0755 C   0  0  0  0  0  0  0  0  0  0  0  0
    9.5627   44.4007  130.0271 C   0  0  0  0  0  0  0  0  0  0  0  0
    9.3023   45.7436  129.9638 C   0  0  0  0  0  0  0  0  0  0  0  0
    9.4684   42.2571  131.0529 O   0  0  0  0  0  0  0  0  0  0  0  0
   10.0884   41.5150  132.0525 C   0  0  0  0  0  0  0  0  0  0  0  0
   11.5984   41.6146  131.7877 C   0  0  0  0  0  0  0  0  0  0  0  0
   11.8417   43.0673  132.1353 C   0  0  0  0  0  0  0  0  0  0  0  0
   11.0129   43.3125  133.2742 N   0  0  0  0  0  0  0  0  0  0  0  0
   10.0628   42.2613  133.4014 C   0  0  0  0  0  0  0  0  0  0  0  0
   11.8152   43.6058  134.4084 C   0  0  0  0  0  0  0  0  0  0  0  0
   11.0660   43.9194  135.6593 C   0  0  0  0  0  0  0  0  0  0  0  0
    9.8813   44.7999  135.2363 C   0  0  0  0  0  0  0  0  0  0  0  0
    9.7259   45.7425  136.2397 F   0  0  0  0  0  0  0  0  0  0  0  0
 23 24  1  0  0  0
 24 22  1  0  0  0
 22 14  1  0  0  0
 14 15  2  0  0  0
 15 16  1  0  0  0
 16 17  2  0  0  0
 17 18  1  0  0  0
 18 19  1  0  0  0
 18 20  2  0  0  0
 20 21  1  0  0  0
 17  1  1  0  0  0
  1  2  2  0  0  0
  2 25  1  0  0  0
 25 26  2  0  0  0
 26 27  1  0  0  0
 27 28  2  0  0  0
 28 31  1  0  0  0
 31 32  1  0  0  0
 32 33  1  0  0  0
 33 34  1  0  0  0
 34 35  1  0  0  0
 35 37  1  0  0  0
 37 38  1  0  0  0
 38 39  1  0  0  0
 39 40  1  0  0  0
 35 36  1  0  0  0
 28 29  1  0  0  0
 29 30  2  0  0  0
  2  3  1  0  0  0
  3  4  2  0  0  0
  4  5  1  0  0  0
  5  6  2  0  0  0
  6  7  1  0  0  0
  6  8  1  0  0  0
  8  9  2  0  0  0
  9 10  1  0  0  0
 10 11  1  0  0  0
 11 12  1  0  0  0
 20 14  1  0  0  0
 12  1  1  0  0  0
 30 25  1  0  0  0
  9  3  1  0  0  0
 36 32  1  0  0  0
  7 13  1  0  0  0
M  END
> <minimizedAffinity>
8.51684

> <CNNscore>
0.3550377786

> <CNNaffinity>
8.4578418732

> <CNN_VS>
3.0028533936

> <CNNaffinity_variance>
1.6440112591

$$$$
[H]Oc1c([H])c([H])c([C@]2([H])C([H])([H])C([H])([H])C([H])([H])[C@@]([H])(C([H])([H])O[H])C([H])([H])C2([H])[H])c([H])c1[H]


 18 19  0  0  0  0  0  0  0  0999 V2000
   10.5909   43.8867  131.8480 C   0  0  0  0  0  0  0  0  0  0  0  0
    9.1752   43.6258  132.3007 C   0  0  0  0  0  0  0  0  0  0  0  0
    8.6929   44.8127  133.0556 C   0  0  0  0  0  0  0  0  0  0  0  0
    8.8771   46.1202  132.3650 C   0  0  0  0  0  0  0  0  0  0  0  0
    8.7898   46.0507  130.8663 C   0  0  0  0  0  0  0  0  0  0  0  0
   10.1121   45.7211  130.2187 C   0  0  0  0  0  0  0  0  0  0  0  0
   10.5136   44.2857  130.3907 C   0  0  0  0  0  0  0  0  0  0  0  0
    8.3652   47.3873  130.3934 C   0  0  0  0  0  0  0  0  0  0  0  0
    7.6778   47.5034  129.2012 C   0  0  0  0  0  0  0  0  0  0  0  0
    7.2552   48.7099  128.7048 C   0  0  0  0  0  0  0  0  0  0  0  0
    7.5106   49.8608  129.3962 C   0  0  0  0  0  0  0  0  0  0  0  0
    7.0854   51.1178  128.9057 O   0  0  0  0  0  0  0  0  0  0  0  0
    8.1920   49.7928  130.5876 C   0  0  0  0  0  0  0  0  0  0  0  0
    8.6026   48.5685  131.0593 C   0  0  0  0  0  0  0  0  0  0  0  0
    7.7023   51.6296  128.3116 H   0  0  0  0  0  0  0  0  0  0  0  0
   12.6571   42.9252  132.6509 O   0  0  0  0  0  0  0  0  0  0  0  0
   11.4641   42.6606  132.0056 C   0  0  0  0  0  0  0  0  0  0  0  0
   13.4479   42.7440  132.0582 H   0  0  0  0  0  0  0  0  0  0  0  0
 16 17  1  0  0  0
 17  1  1  0  0  0
  1  2  1  0  0  0
  2  3  1  0  0  0
  3  4  1  0  0  0
  4  5  1  0  0  0
  5  6  1  0  0  0
  6  7  1  0  0  0
  5  8  1  0  0  0
  8  9  2  0  0  0
  9 10  1  0  0  0
 10 11  2  0  0  0
 11 12  1  0  0  0
 11 13  1  0  0  0
 13 14  2  0  0  0
  7  1  1  0  0  0
 14  8  1  0  0  0
 16 18  1  0  0  0
 12 15  1  0  0  0
M  END
> <minimizedAffinity>
-8.68028

> <CNNscore>
0.8629656434

> <CNNaffinity>
7.0175466537

> <CNN_VS>
6.0559015274

> <CNNaffinity_variance>
1.0190023184

$$$$
[H]Oc1c([H])c([H])c([C@]2([H])C([H])([H])C([H])([H])C([H])([H])[C@@]([H])(C([H])([H])O[H])C([H])([H])C2([H])[H])c([H])c1[H]


 18 19  0  0  0  0  0  0  0  0999 V2000
   10.9331   43.7596  131.2495 C   0  0  0  0  0  0  0  0  0  0  0  0
   11.9989   44.3886  130.3859 C   0  0  0  0  0  0  0  0  0  0  0  0
   11.3806   44.8071  129.0999 C   0  0  0  0  0  0  0  0  0  0  0  0
   10.1433   45.6273  129.2293 C   0  0  0  0  0  0  0  0  0  0  0  0
   10.1050   46.5090  130.4457 C   0  0  0  0  0  0  0  0  0  0  0  0
    9.5549   45.8042  131.6612 C   0  0  0  0  0  0  0  0  0  0  0  0
   10.5114   44.8110  132.2525 C   0  0  0  0  0  0  0  0  0  0  0  0
    9.2131   47.6470  130.1296 C   0  0  0  0  0  0  0  0  0  0  0  0
    8.2338   47.5004  129.1669 C   0  0  0  0  0  0  0  0  0  0  0  0
    7.3743   48.5128  128.8251 C   0  0  0  0  0  0  0  0  0  0  0  0
    7.4671   49.7270  129.4454 C   0  0  0  0  0  0  0  0  0  0  0  0
    6.5925   50.7875  129.1111 O   0  0  0  0  0  0  0  0  0  0  0  0
    8.4270   49.9181  130.4100 C   0  0  0  0  0  0  0  0  0  0  0  0
    9.2742   48.8839  130.7309 C   0  0  0  0  0  0  0  0  0  0  0  0
    6.8625   51.4149  128.3838 H   0  0  0  0  0  0  0  0  0  0  0  0
   12.6452   42.7505  132.6237 O   0  0  0  0  0  0  0  0  0  0  0  0
   11.4480   42.5318  131.9690 C   0  0  0  0  0  0  0  0  0  0  0  0
   13.3811   42.1752  132.2539 H   0  0  0  0  0  0  0  0  0  0  0  0
 16 17  1  0  0  0
 17  1  1  0  0  0
  1  2  1  0  0  0
  2  3  1  0  0  0
  3  4  1  0  0  0
  4  5  1  0  0  0
  5  6  1  0  0  0
  6  7  1  0  0  0
  5  8  1  0  0  0
  8  9  2  0  0  0
  9 10  1  0  0  0
 10 11  2  0  0  0
 11 12  1  0  0  0
 11 13  1  0  0  0
 13 14  2  0  0  0
  7  1  1  0  0  0
 14  8  1  0  0  0
 16 18  1  0  0  0
 12 15  1  0  0  0
M  END
> <minimizedAffinity>
-8.97902

> <CNNscore>
0.7923418283

> <CNNaffinity>
6.8652100563

> <CNN_VS>
5.4395933151

> <CNNaffinity_variance>
0.8868247271

$$$$
[H]Oc1c([H])c([H])c([C@]2([H])C([H])([H])C([H])([H])C([H])([H])[C@@]([H])(C([H])([H])O[H])C([H])([H])C2([H])[H])c([H])c1[H]


 18 19  0  0  0  0  0  0  0  0999 V2000
   10.8649   43.7498  131.2670 C   0  0  0  0  0  0  0  0  0  0  0  0
   11.9519   44.3606  130.4169 C   0  0  0  0  0  0  0  0  0  0  0  0
   11.3610   44.7708  129.1154 C   0  0  0  0  0  0  0  0  0  0  0  0
   10.1287   45.6029  129.2135 C   0  0  0  0  0  0  0  0  0  0  0  0
   10.0757   46.4975  130.4198 C   0  0  0  0  0  0  0  0  0  0  0  0
    9.4972   45.8102  131.6321 C   0  0  0  0  0  0  0  0  0  0  0  0
   10.4340   44.8151  132.2512 C   0  0  0  0  0  0  0  0  0  0  0  0
    9.1997   47.6397  130.0755 C   0  0  0  0  0  0  0  0  0  0  0  0
    9.3547   48.8427  130.7359 C   0  0  0  0  0  0  0  0  0  0  0  0
    8.5780   49.9403  130.4667 C   0  0  0  0  0  0  0  0  0  0  0  0
    7.6031   49.8703  129.5116 C   0  0  0  0  0  0  0  0  0  0  0  0
    6.7884   50.9883  129.2151 O   0  0  0  0  0  0  0  0  0  0  0  0
    7.4132   48.6928  128.8291 C   0  0  0  0  0  0  0  0  0  0  0  0
    8.2079   47.6096  129.1213 C   0  0  0  0  0  0  0  0  0  0  0  0
    5.9378   51.1047  129.7233 H   0  0  0  0  0  0  0  0  0  0  0  0
   12.5965   42.7057  132.5898 O   0  0  0  0  0  0  0  0  0  0  0  0
   11.3558   42.5252  132.0086 C   0  0  0  0  0  0  0  0  0  0  0  0
   13.2811   42.0786  132.2058 H   0  0  0  0  0  0  0  0  0  0  0  0
 16 17  1  0  0  0
 17  1  1  0  0  0
  1  2  1  0  0  0
  2  3  1  0  0  0
  3  4  1  0  0  0
  4  5  1  0  0  0
  5  6  1  0  0  0
  6  7  1  0  0  0
  5  8  1  0  0  0
  8  9  2  0  0  0
  9 10  1  0  0  0
 10 11  2  0  0  0
 11 12  1  0  0  0
 11 13  1  0  0  0
 13 14  2  0  0  0
  7  1  1  0  0  0
 14  8  1  0  0  0
 16 18  1  0  0  0
 12 15  1  0  0  0
M  END
> <minimizedAffinity>
-9.01756

> <CNNscore>
0.7856153250

> <CNNaffinity>
6.8480849266

> <CNN_VS>
5.3799605370

> <CNNaffinity_variance>
0.8965903521

$$$$
[H]Oc1c([H])c([H])c([C@]2([H])C([H])([H])C([H])([H])C([H])([H])[C@@]([H])(C([H])([H])O[H])C([H])([H])C2([H])[H])c([H])c1[H]


 18 19  0  0  0  0  0  0  0  0999 V2000
   11.2394   44.0257  131.6977 C   0  0  0  0  0  0  0  0  0  0  0  0
   10.9481   43.6975  130.2539 C   0  0  0  0  0  0  0  0  0  0  0  0
    9.5012   43.9263  129.9986 C   0  0  0  0  0  0  0  0  0  0  0  0
    8.9832   45.2537  130.4347 C   0  0  0  0  0  0  0  0  0  0  0  0
    9.9845   46.3712  130.3504 C   0  0  0  0  0  0  0  0  0  0  0  0
   10.8333   46.4902  131.5923 C   0  0  0  0  0  0  0  0  0  0  0  0
   11.8621   45.4046  131.7119 C   0  0  0  0  0  0  0  0  0  0  0  0
    9.2201   47.6285  130.1923 C   0  0  0  0  0  0  0  0  0  0  0  0
    8.2234   47.7067  129.2394 C   0  0  0  0  0  0  0  0  0  0  0  0
    7.4772   48.8398  129.0400 C   0  0  0  0  0  0  0  0  0  0  0  0
    7.7068   49.9521  129.8000 C   0  0  0  0  0  0  0  0  0  0  0  0
    6.9509   51.1334  129.6141 O   0  0  0  0  0  0  0  0  0  0  0  0
    8.6891   49.9198  130.7605 C   0  0  0  0  0  0  0  0  0  0  0  0
    9.4205   48.7690  130.9368 C   0  0  0  0  0  0  0  0  0  0  0  0
    7.2824   51.8122  128.9623 H   0  0  0  0  0  0  0  0  0  0  0  0
   12.6046   43.3859  133.5858 O   0  0  0  0  0  0  0  0  0  0  0  0
   12.1854   43.0218  132.3203 C   0  0  0  0  0  0  0  0  0  0  0  0
   13.5985   43.5283  133.6211 H   0  0  0  0  0  0  0  0  0  0  0  0
 16 17  1  0  0  0
 17  1  1  0  0  0
  1  2  1  0  0  0
  2  3  1  0  0  0
  3  4  1  0  0  0
  4  5  1  0  0  0
  5  6  1  0  0  0
  6  7  1  0  0  0
  5  8  1  0  0  0
  8  9  2  0  0  0
  9 10  1  0  0  0
 10 11  2  0  0  0
 11 12  1  0  0  0
 11 13  1  0  0  0
 13 14  2  0  0  0
  7  1  1  0  0  0
 14  8  1  0  0  0
 16 18  1  0  0  0
 12 15  1  0  0  0
M  END
> <minimizedAffinity>
-8.34213

> <CNNscore>
0.7697483897

> <CNNaffinity>
6.7247290611

> <CNN_VS>
5.1763491631

> <CNNaffinity_variance>
0.6395549774

$$$$
[H]Oc1c([H])c([H])c([C@]2([H])C([H])([H])C([H])([H])C([H])([H])[C@@]([H])(C([H])([H])O[H])C([H])([H])C2([H])[H])c([H])c1[H]


 18 19  0  0  0  0  0  0  0  0999 V2000
   11.7810   44.9945  130.7119 C   0  0  0  0  0  0  0  0  0  0  0  0
   11.0206   44.6725  131.9750 C   0  0  0  0  0  0  0  0  0  0  0  0
   10.5704   45.9470  132.5949 C   0  0  0  0  0  0  0  0  0  0  0  0
    9.8557   46.8794  131.6782 C   0  0  0  0  0  0  0  0  0  0  0  0
    9.0572   46.2025  130.5999 C   0  0  0  0  0  0  0  0  0  0  0  0
    9.8761   45.8992  129.3695 C   0  0  0  0  0  0  0  0  0  0  0  0
   10.8293   44.7563  129.5602 C   0  0  0  0  0  0  0  0  0  0  0  0
    7.9723   47.1322  130.2141 C   0  0  0  0  0  0  0  0  0  0  0  0
    8.1111   48.4839  130.4610 C   0  0  0  0  0  0  0  0  0  0  0  0
    7.1459   49.3999  130.1296 C   0  0  0  0  0  0  0  0  0  0  0  0
    5.9892   48.9876  129.5299 C   0  0  0  0  0  0  0  0  0  0  0  0
    4.9781   49.9124  129.1781 O   0  0  0  0  0  0  0  0  0  0  0  0
    5.8079   47.6513  129.2652 C   0  0  0  0  0  0  0  0  0  0  0  0
    6.7939   46.7571  129.6092 C   0  0  0  0  0  0  0  0  0  0  0  0
    4.2675   50.1174  129.8478 H   0  0  0  0  0  0  0  0  0  0  0  0
   13.7232   44.3905  129.4077 O   0  0  0  0  0  0  0  0  0  0  0  0
   13.0090   44.1231  130.5602 C   0  0  0  0  0  0  0  0  0  0  0  0
   13.7501   43.5951  128.7946 H   0  0  0  0  0  0  0  0  0  0  0  0
 16 17  1  0  0  0
 17  1  1  0  0  0
  1  2  1  0  0  0
  2  3  1  0  0  0
  3  4  1  0  0  0
  4  5  1  0  0  0
  5  6  1  0  0  0
  6  7  1  0  0  0
  5  8  1  0  0  0
  8  9  2  0  0  0
  9 10  1  0  0  0
 10 11  2  0  0  0
 11 12  1  0  0  0
 11 13  1  0  0  0
 13 14  2  0  0  0
  7  1  1  0  0  0
 14  8  1  0  0  0
 16 18  1  0  0  0
 12 15  1  0  0  0
M  END
> <minimizedAffinity>
-6.85335

> <CNNscore>
0.5473113060

> <CNNaffinity>
6.5456247330

> <CNN_VS>
3.5824944973

> <CNNaffinity_variance>
1.0022300482

$$$$
[H]Oc1c([H])c([H])c([C@]2([H])C([H])([H])C([H])([H])C([H])([H])[C@@]([H])(C([H])([H])O[H])C([H])([H])C2([H])[H])c([H])c1[H]


 18 19  0  0  0  0  0  0  0  0999 V2000
    8.0337   49.3379  130.1197 C   0  0  0  0  0  0  0  0  0  0  0  0
    7.1161   48.2056  129.7281 C   0  0  0  0  0  0  0  0  0  0  0  0
    7.8980   47.2108  128.9470 C   0  0  0  0  0  0  0  0  0  0  0  0
    9.1715   46.7672  129.5809 C   0  0  0  0  0  0  0  0  0  0  0  0
    9.1442   46.7439  131.0833 C   0  0  0  0  0  0  0  0  0  0  0  0
    9.5071   48.0745  131.6951 C   0  0  0  0  0  0  0  0  0  0  0  0
    8.4219   49.1021  131.5629 C   0  0  0  0  0  0  0  0  0  0  0  0
   10.1465   45.7466  131.5206 C   0  0  0  0  0  0  0  0  0  0  0  0
    9.8641   44.3995  131.4073 C   0  0  0  0  0  0  0  0  0  0  0  0
   10.7466   43.4232  131.7929 C   0  0  0  0  0  0  0  0  0  0  0  0
   11.9622   43.7675  132.3139 C   0  0  0  0  0  0  0  0  0  0  0  0
   12.8902   42.7796  132.7192 O   0  0  0  0  0  0  0  0  0  0  0  0
   12.2858   45.0965  132.4452 C   0  0  0  0  0  0  0  0  0  0  0  0
   11.3801   46.0522  132.0497 C   0  0  0  0  0  0  0  0  0  0  0  0
   12.8553   42.4525  133.6611 H   0  0  0  0  0  0  0  0  0  0  0  0
    7.0709   51.0095  128.6647 O   0  0  0  0  0  0  0  0  0  0  0  0
    7.3552   50.6832  129.9771 C   0  0  0  0  0  0  0  0  0  0  0  0
    7.5625   51.8355  128.3726 H   0  0  0  0  0  0  0  0  0  0  0  0
 16 17  1  0  0  0
 17  1  1  0  0  0
  1  2  1  0  0  0
  2  3  1  0  0  0
  3  4  1  0  0  0
  4  5  1  0  0  0
  5  6  1  0  0  0
  6  7  1  0  0  0
  5  8  1  0  0  0
  8  9  2  0  0  0
  9 10  1  0  0  0
 10 11  2  0  0  0
 11 12  1  0  0  0
 11 13  1  0  0  0
 13 14  2  0  0  0
  7  1  1  0  0  0
 14  8  1  0  0  0
 16 18  1  0  0  0
 12 15  1  0  0  0
M  END
> <minimizedAffinity>
-8.05235

> <CNNscore>
0.5258323550

> <CNNaffinity>
6.4654169083

> <CNN_VS>
3.3997254372

> <CNNaffinity_variance>
0.3643518090

$$$$
[H]Oc1c([H])c([H])c([C@]2([H])C([H])([H])C([H])([H])C([H])([H])[C@@]([H])(C([H])([H])O[H])C([H])([H])C2([H])[H])c([H])c1[H]


 18 19  0  0  0  0  0  0  0  0999 V2000
    7.7000   49.3934  129.9108 C   0  0  0  0  0  0  0  0  0  0  0  0
    6.4887   48.5166  129.7076 C   0  0  0  0  0  0  0  0  0  0  0  0
    6.8772   47.3624  128.8543 C   0  0  0  0  0  0  0  0  0  0  0  0
    8.0915   46.6240  129.3022 C   0  0  0  0  0  0  0  0  0  0  0  0
    8.2967   46.6077  130.7909 C   0  0  0  0  0  0  0  0  0  0  0  0
    9.0587   47.8110  131.2889 C   0  0  0  0  0  0  0  0  0  0  0  0
    8.2433   49.0705  131.2854 C   0  0  0  0  0  0  0  0  0  0  0  0
    9.0879   45.3976  131.1072 C   0  0  0  0  0  0  0  0  0  0  0  0
    8.6409   44.5239  132.0789 C   0  0  0  0  0  0  0  0  0  0  0  0
    9.3240   43.3852  132.4214 C   0  0  0  0  0  0  0  0  0  0  0  0
   10.4976   43.0768  131.7926 C   0  0  0  0  0  0  0  0  0  0  0  0
   11.2212   41.9082  132.1275 O   0  0  0  0  0  0  0  0  0  0  0  0
   10.9804   43.9178  130.8190 C   0  0  0  0  0  0  0  0  0  0  0  0
   10.2728   45.0520  130.4976 C   0  0  0  0  0  0  0  0  0  0  0  0
   11.9085   41.9650  132.8485 H   0  0  0  0  0  0  0  0  0  0  0  0
    6.9129   51.2407  128.5670 O   0  0  0  0  0  0  0  0  0  0  0  0
    7.3487   50.8629  129.8228 C   0  0  0  0  0  0  0  0  0  0  0  0
    7.5250   51.9197  128.1503 H   0  0  0  0  0  0  0  0  0  0  0  0
 16 17  1  0  0  0
 17  1  1  0  0  0
  1  2  1  0  0  0
  2  3  1  0  0  0
  3  4  1  0  0  0
  4  5  1  0  0  0
  5  6  1  0  0  0
  6  7  1  0  0  0
  5  8  1  0  0  0
  8  9  2  0  0  0
  9 10  1  0  0  0
 10 11  2  0  0  0
 11 12  1  0  0  0
 11 13  1  0  0  0
 13 14  2  0  0  0
  7  1  1  0  0  0
 14  8  1  0  0  0
 16 18  1  0  0  0
 12 15  1  0  0  0
M  END
> <minimizedAffinity>
-7.59436

> <CNNscore>
0.5201715827

> <CNNaffinity>
6.3741121292

> <CNN_VS>
3.3156321049

> <CNNaffinity_variance>
0.3603517413

$$$$
[H]Oc1c([H])c([H])c([C@]2([H])C([H])([H])C([H])([H])C([H])([H])[C@@]([H])(C([H])([H])O[H])C([H])([H])C2([H])[H])c([H])c1[H]


 18 19  0  0  0  0  0  0  0  0999 V2000
    7.7833   49.2853  130.6550 C   0  0  0  0  0  0  0  0  0  0  0  0
    9.0430   50.0625  130.9489 C   0  0  0  0  0  0  0  0  0  0  0  0
    9.5793   49.6162  132.2621 C   0  0  0  0  0  0  0  0  0  0  0  0
    9.7268   48.1417  132.4180 C   0  0  0  0  0  0  0  0  0  0  0  0
   10.0491   47.4100  131.1455 C   0  0  0  0  0  0  0  0  0  0  0  0
    8.8168   47.0279  130.3630 C   0  0  0  0  0  0  0  0  0  0  0  0
    8.1650   48.1936  129.6794 C   0  0  0  0  0  0  0  0  0  0  0  0
   10.7573   46.1675  131.5261 C   0  0  0  0  0  0  0  0  0  0  0  0
   11.1208   45.9645  132.8429 C   0  0  0  0  0  0  0  0  0  0  0  0
   11.7783   44.8372  133.2640 C   0  0  0  0  0  0  0  0  0  0  0  0
   12.0999   43.8580  132.3666 C   0  0  0  0  0  0  0  0  0  0  0  0
   12.7779   42.6856  132.7755 O   0  0  0  0  0  0  0  0  0  0  0  0
   11.7577   44.0175  131.0453 C   0  0  0  0  0  0  0  0  0  0  0  0
   11.0989   45.1589  130.6537 C   0  0  0  0  0  0  0  0  0  0  0  0
   13.7755   42.6838  132.7609 H   0  0  0  0  0  0  0  0  0  0  0  0
    7.1640   50.9295  128.9964 O   0  0  0  0  0  0  0  0  0  0  0  0
    6.7090   50.1663  130.0548 C   0  0  0  0  0  0  0  0  0  0  0  0
    7.0981   51.9127  129.1923 H   0  0  0  0  0  0  0  0  0  0  0  0
 16 17  1  0  0  0
 17  1  1  0  0  0
  1  2  1  0  0  0
  2  3  1  0  0  0
  3  4  1  0  0  0
  4  5  1  0  0  0
  5  6  1  0  0  0
  6  7  1  0  0  0
  5  8  1  0  0  0
  8  9  2  0  0  0
  9 10  1  0  0  0
 10 11  2  0  0  0
 11 12  1  0  0  0
 11 13  1  0  0  0
 13 14  2  0  0  0
  7  1  1  0  0  0
 14  8  1  0  0  0
 16 18  1  0  0  0
 12 15  1  0  0  0
M  END
> <minimizedAffinity>
-8.71744

> <CNNscore>
0.4991118014

> <CNNaffinity>
6.2316880226

> <CNN_VS>
3.1103091240

> <CNNaffinity_variance>
0.0721649975

$$$$
[H]Oc1c([H])c([H])c([C@]2([H])C([H])([H])C([H])([H])C([H])([H])[C@@]([H])(C([H])([H])O[H])C([H])([H])C2([H])[H])c([H])c1[H]


 18 19  0  0  0  0  0  0  0  0999 V2000
    9.9182   45.3084  128.7383 C   0  0  0  0  0  0  0  0  0  0  0  0
    9.9203   46.6889  129.3479 C   0  0  0  0  0  0  0  0  0  0  0  0
    9.0916   46.6629  130.5823 C   0  0  0  0  0  0  0  0  0  0  0  0
    9.4231   45.5749  131.5450 C   0  0  0  0  0  0  0  0  0  0  0  0
   10.8723   45.1771  131.5603 C   0  0  0  0  0  0  0  0  0  0  0  0
   11.2006   44.1258  130.5289 C   0  0  0  0  0  0  0  0  0  0  0  0
   11.2290   44.6606  129.1274 C   0  0  0  0  0  0  0  0  0  0  0  0
   11.1538   44.6132  132.8993 C   0  0  0  0  0  0  0  0  0  0  0  0
   10.1531   43.9564  133.5881 C   0  0  0  0  0  0  0  0  0  0  0  0
   10.3454   43.4106  134.8314 C   0  0  0  0  0  0  0  0  0  0  0  0
   11.5663   43.5051  135.4381 C   0  0  0  0  0  0  0  0  0  0  0  0
   11.7905   42.9506  136.7201 O   0  0  0  0  0  0  0  0  0  0  0  0
   12.5917   44.1503  134.7895 C   0  0  0  0  0  0  0  0  0  0  0  0
   12.3681   44.6872  133.5437 C   0  0  0  0  0  0  0  0  0  0  0  0
   11.6233   43.5217  137.5209 H   0  0  0  0  0  0  0  0  0  0  0  0
   10.8352   44.7331  126.5782 O   0  0  0  0  0  0  0  0  0  0  0  0
    9.7922   45.3621  127.2311 C   0  0  0  0  0  0  0  0  0  0  0  0
   11.3614   45.3763  126.0135 H   0  0  0  0  0  0  0  0  0  0  0  0
 16 17  1  0  0  0
 17  1  1  0  0  0
  1  2  1  0  0  0
  2  3  1  0  0  0
  3  4  1  0  0  0
  4  5  1  0  0  0
  5  6  1  0  0  0
  6  7  1  0  0  0
  5  8  1  0  0  0
  8  9  2  0  0  0
  9 10  1  0  0  0
 10 11  2  0  0  0
 11 12  1  0  0  0
 11 13  1  0  0  0
 13 14  2  0  0  0
  7  1  1  0  0  0
 14  8  1  0  0  0
 16 18  1  0  0  0
 12 15  1  0  0  0
M  END
> <minimizedAffinity>
1.11407

> <CNNscore>
0.4360281527

> <CNNaffinity>
6.1996622086

> <CNN_VS>
2.7032272816

> <CNNaffinity_variance>
1.7343982458

$$$$
[H]Oc1c([H])c([H])c2c(c1[H])C([H])([H])C([H])([H])C1([H])C2([H])C([H])([H])C([H])([H])[C@@]2(C([H])([H])[H])C1([H])C([H])([H])C([H])([H])[C@]2(C#Cc1c([H])c([H])c([H])c(C(=O)[O-])c1[H])O[H]


 33 37  0  0  0  0  0  0  0  0999 V2000
   11.3652   48.3828  134.4655 C   0  0  0  0  0  0  0  0  0  0  0  0
   10.5142   47.3261  133.7465 C   0  0  0  0  0  0  0  0  0  0  0  0
   10.9423   47.3546  132.3070 C   0  0  0  0  0  0  0  0  0  0  0  0
   10.4845   48.5933  131.5868 C   0  0  0  0  0  0  0  0  0  0  0  0
    9.2048   49.1590  132.0891 C   0  0  0  0  0  0  0  0  0  0  0  0
    8.3356   48.1237  132.7814 C   0  0  0  0  0  0  0  0  0  0  0  0
    7.7799   47.0946  131.8660 C   0  0  0  0  0  0  0  0  0  0  0  0
    7.6641   47.5405  130.4505 C   0  0  0  0  0  0  0  0  0  0  0  0
    7.5971   49.0013  130.2596 C   0  0  0  0  0  0  0  0  0  0  0  0
    6.7769   49.5690  129.2758 C   0  0  0  0  0  0  0  0  0  0  0  0
    6.7192   50.9281  129.0959 C   0  0  0  0  0  0  0  0  0  0  0  0
    5.8890   51.4816  128.1018 O   0  0  0  0  0  0  0  0  0  0  0  0
    7.4894   51.7294  129.9074 C   0  0  0  0  0  0  0  0  0  0  0  0
    8.3074   51.1653  130.8885 C   0  0  0  0  0  0  0  0  0  0  0  0
    8.3672   49.8040  131.0713 C   0  0  0  0  0  0  0  0  0  0  0  0
    9.0749   47.6238  133.9685 C   0  0  0  0  0  0  0  0  0  0  0  0
    8.5123   46.3575  134.5780 C   0  0  0  0  0  0  0  0  0  0  0  0
    9.7050   45.9372  135.4514 C   0  0  0  0  0  0  0  0  0  0  0  0
   10.8160   46.0165  134.3938 C   0  0  0  0  0  0  0  0  0  0  0  0
   12.0496   45.9897  135.0386 O   0  0  0  0  0  0  0  0  0  0  0  0
    4.9161   51.7315  128.3308 H   0  0  0  0  0  0  0  0  0  0  0  0
   12.7397   45.9921  134.3252 H   0  0  0  0  0  0  0  0  0  0  0  0
   10.7505   44.8824  133.4729 C   0  0  0  0  0  0  0  0  0  0  0  0
   10.6863   43.9588  132.6992 C   0  0  0  0  0  0  0  0  0  0  0  0
   10.5996   42.8741  131.7607 C   0  0  0  0  0  0  0  0  0  0  0  0
   10.8784   41.5668  132.0889 C   0  0  0  0  0  0  0  0  0  0  0  0
   10.7930   40.5309  131.1823 C   0  0  0  0  0  0  0  0  0  0  0  0
   10.4110   40.8217  129.8916 C   0  0  0  0  0  0  0  0  0  0  0  0
   10.1216   42.1397  129.5292 C   0  0  0  0  0  0  0  0  0  0  0  0
   10.2185   43.1591  130.4700 C   0  0  0  0  0  0  0  0  0  0  0  0
    9.7219   42.4213  128.1657 C   0  0  0  0  0  0  0  0  0  0  0  0
    8.9248   43.5193  127.8896 O   0  0  0  0  0  0  0  0  0  0  0  0
   10.1116   41.6547  127.2547 O   0  0  0  0  0  0  0  0  0  0  0  0
  2  1  1  0  0  0
  2  3  1  0  0  0
  3  4  1  0  0  0
  4  5  1  0  0  0
  5  6  1  0  0  0
  6  7  1  0  0  0
  7  8  1  0  0  0
  8  9  1  0  0  0
  9 10  2  0  0  0
 10 11  1  0  0  0
 11 12  1  0  0  0
 11 13  2  0  0  0
 13 14  1  0  0  0
 14 15  2  0  0  0
  6 16  1  0  0  0
 16 17  1  0  0  0
 17 18  1  0  0  0
 18 19  1  0  0  0
 19 20  1  0  0  0
 19 23  1  0  0  0
 23 24  3  0  0  0
 24 25  1  0  0  0
 25 26  2  0  0  0
 26 27  1  0  0  0
 27 28  2  0  0  0
 28 29  1  0  0  0
 29 30  2  0  0  0
 29 31  1  0  0  0
 31 32  1  0  0  0
 31 33  2  0  0  0
 16  2  1  0  0  0
 30 25  1  0  0  0
 19  2  1  0  0  0
 15  5  1  0  0  0
 15  9  1  0  0  0
 12 21  1  0  0  0
 20 22  1  0  0  0
M  CHG 1  32  -1
M  END
> <minimizedAffinity>
9.20002

> <CNNscore>
0.5285245180

> <CNNaffinity>
7.7859525681

> <CNN_VS>
4.1150670052

> <CNNaffinity_variance>
1.5359201431

$$$$
[H]Oc1c([H])c([H])c2c(c1[H])C([H])([H])C([H])([H])C1([H])C2([H])C([H])([H])C([H])([H])[C@@]2(C([H])([H])[H])C1([H])C([H])([H])C([H])([H])[C@]2(C#Cc1c([H])c([H])c([H])c(C(=O)[O-])c1[H])O[H]


 33 37  0  0  0  0  0  0  0  0999 V2000
   11.0337   45.4706  128.5324 C   0  0  0  0  0  0  0  0  0  0  0  0
   10.9732   45.1150  130.0249 C   0  0  0  0  0  0  0  0  0  0  0  0
    9.5593   45.3768  130.4592 C   0  0  0  0  0  0  0  0  0  0  0  0
    9.2320   46.8435  130.5264 C   0  0  0  0  0  0  0  0  0  0  0  0
   10.3861   47.7159  130.8682 C   0  0  0  0  0  0  0  0  0  0  0  0
   11.4735   46.9805  131.6321 C   0  0  0  0  0  0  0  0  0  0  0  0
   11.0795   46.5834  133.0080 C   0  0  0  0  0  0  0  0  0  0  0  0
   10.0009   47.4236  133.5966 C   0  0  0  0  0  0  0  0  0  0  0  0
    9.8656   48.7689  133.0076 C   0  0  0  0  0  0  0  0  0  0  0  0
    9.5501   49.8808  133.7995 C   0  0  0  0  0  0  0  0  0  0  0  0
    9.4196   51.1311  133.2494 C   0  0  0  0  0  0  0  0  0  0  0  0
    9.1019   52.2378  134.0606 O   0  0  0  0  0  0  0  0  0  0  0  0
    9.6062   51.2727  131.8932 C   0  0  0  0  0  0  0  0  0  0  0  0
    9.9208   50.1656  131.1025 C   0  0  0  0  0  0  0  0  0  0  0  0
   10.0523   48.9116  131.6508 C   0  0  0  0  0  0  0  0  0  0  0  0
   11.9997   45.9022  130.7570 C   0  0  0  0  0  0  0  0  0  0  0  0
   12.8422   44.8645  131.4676 C   0  0  0  0  0  0  0  0  0  0  0  0
   12.8462   43.7580  130.4009 C   0  0  0  0  0  0  0  0  0  0  0  0
   11.3352   43.6723  130.1391 C   0  0  0  0  0  0  0  0  0  0  0  0
   11.1250   42.9549  128.9647 O   0  0  0  0  0  0  0  0  0  0  0  0
    9.8587   52.7893  134.4902 H   0  0  0  0  0  0  0  0  0  0  0  0
   10.1416   42.8774  128.8548 H   0  0  0  0  0  0  0  0  0  0  0  0
   10.6482   42.9838  131.2311 C   0  0  0  0  0  0  0  0  0  0  0  0
   10.0637   42.4261  132.1273 C   0  0  0  0  0  0  0  0  0  0  0  0
    9.3462   41.7728  133.1872 C   0  0  0  0  0  0  0  0  0  0  0  0
    9.9506   40.9627  134.1214 C   0  0  0  0  0  0  0  0  0  0  0  0
    9.2550   40.3389  135.1361 C   0  0  0  0  0  0  0  0  0  0  0  0
    7.8947   40.5383  135.2147 C   0  0  0  0  0  0  0  0  0  0  0  0
    7.2537   41.3556  134.2802 C   0  0  0  0  0  0  0  0  0  0  0  0
    7.9871   41.9686  133.2703 C   0  0  0  0  0  0  0  0  0  0  0  0
    5.8220   41.5504  134.3831 C   0  0  0  0  0  0  0  0  0  0  0  0
    5.3184   42.6393  135.0744 O   0  0  0  0  0  0  0  0  0  0  0  0
    5.0614   40.7181  133.8370 O   0  0  0  0  0  0  0  0  0  0  0  0
  2  1  1  0  0  0
  2  3  1  0  0  0
  3  4  1  0  0  0
  4  5  1  0  0  0
  5  6  1  0  0  0
  6  7  1  0  0  0
  7  8  1  0  0  0
  8  9  1  0  0  0
  9 10  2  0  0  0
 10 11  1  0  0  0
 11 12  1  0  0  0
 11 13  2  0  0  0
 13 14  1  0  0  0
 14 15  2  0  0  0
  6 16  1  0  0  0
 16 17  1  0  0  0
 17 18  1  0  0  0
 18 19  1  0  0  0
 19 20  1  0  0  0
 19 23  1  0  0  0
 23 24  3  0  0  0
 24 25  1  0  0  0
 25 26  2  0  0  0
 26 27  1  0  0  0
 27 28  2  0  0  0
 28 29  1  0  0  0
 29 30  2  0  0  0
 29 31  1  0  0  0
 31 32  1  0  0  0
 31 33  2  0  0  0
 16  2  1  0  0  0
 30 25  1  0  0  0
 19  2  1  0  0  0
 15  5  1  0  0  0
 15  9  1  0  0  0
 12 21  1  0  0  0
 20 22  1  0  0  0
M  CHG 1  32  -1
M  END
> <minimizedAffinity>
30.54277

> <CNNscore>
0.5259089470

> <CNNaffinity>
7.4815416336

> <CNN_VS>
3.9346096516

> <CNNaffinity_variance>
2.3236751556

$$$$
[H]Oc1c([H])c([H])c2c(c1[H])C([H])([H])C([H])([H])C1([H])C2([H])C([H])([H])C([H])([H])[C@@]2(C([H])([H])[H])C1([H])C([H])([H])C([H])([H])[C@]2(C#Cc1c([H])c([H])c([H])c(C(=O)[O-])c1[H])O[H]


 33 37  0  0  0  0  0  0  0  0999 V2000
    9.8383   45.0651  126.8118 C   0  0  0  0  0  0  0  0  0  0  0  0
    9.9655   45.1558  128.3393 C   0  0  0  0  0  0  0  0  0  0  0  0
    8.5636   45.1203  128.8775 C   0  0  0  0  0  0  0  0  0  0  0  0
    7.8014   46.3877  128.6029 C   0  0  0  0  0  0  0  0  0  0  0  0
    8.6434   47.6114  128.5453 C   0  0  0  0  0  0  0  0  0  0  0  0
    9.9419   47.4690  129.3202 C   0  0  0  0  0  0  0  0  0  0  0  0
    9.7595   47.3933  130.7923 C   0  0  0  0  0  0  0  0  0  0  0  0
    8.5042   48.0264  131.2815 C   0  0  0  0  0  0  0  0  0  0  0  0
    7.9292   49.0469  130.3854 C   0  0  0  0  0  0  0  0  0  0  0  0
    7.3242   50.2035  130.8945 C   0  0  0  0  0  0  0  0  0  0  0  0
    6.7851   51.1499  130.0598 C   0  0  0  0  0  0  0  0  0  0  0  0
    6.1807   52.3067  130.5890 O   0  0  0  0  0  0  0  0  0  0  0  0
    6.8508   50.9389  128.7015 C   0  0  0  0  0  0  0  0  0  0  0  0
    7.4536   49.7867  128.1924 C   0  0  0  0  0  0  0  0  0  0  0  0
    7.9946   48.8368  129.0261 C   0  0  0  0  0  0  0  0  0  0  0  0
   10.7323   46.3786  128.6943 C   0  0  0  0  0  0  0  0  0  0  0  0
   11.8894   45.8749  129.5304 C   0  0  0  0  0  0  0  0  0  0  0  0
   12.1832   44.5553  128.7994 C   0  0  0  0  0  0  0  0  0  0  0  0
   10.7623   43.9727  128.7763 C   0  0  0  0  0  0  0  0  0  0  0  0
   10.7268   42.9168  127.8697 O   0  0  0  0  0  0  0  0  0  0  0  0
    6.7495   53.1500  130.7530 H   0  0  0  0  0  0  0  0  0  0  0  0
    9.8117   42.5354  127.9182 H   0  0  0  0  0  0  0  0  0  0  0  0
   10.3780   43.4654  130.0928 C   0  0  0  0  0  0  0  0  0  0  0  0
   10.0458   43.0614  131.1801 C   0  0  0  0  0  0  0  0  0  0  0  0
    9.6309   42.5963  132.4749 C   0  0  0  0  0  0  0  0  0  0  0  0
   10.4478   42.6163  133.5824 C   0  0  0  0  0  0  0  0  0  0  0  0
   10.0423   42.1680  134.8222 C   0  0  0  0  0  0  0  0  0  0  0  0
    8.7616   41.6793  134.9539 C   0  0  0  0  0  0  0  0  0  0  0  0
    7.9095   41.6466  133.8470 C   0  0  0  0  0  0  0  0  0  0  0  0
    8.3524   42.1070  132.6120 C   0  0  0  0  0  0  0  0  0  0  0  0
    6.5669   41.1281  134.0098 C   0  0  0  0  0  0  0  0  0  0  0  0
    5.6787   41.1581  132.9480 O   0  0  0  0  0  0  0  0  0  0  0  0
    6.2350   40.6578  135.1225 O   0  0  0  0  0  0  0  0  0  0  0  0
  2  1  1  0  0  0
  2  3  1  0  0  0
  3  4  1  0  0  0
  4  5  1  0  0  0
  5  6  1  0  0  0
  6  7  1  0  0  0
  7  8  1  0  0  0
  8  9  1  0  0  0
  9 10  2  0  0  0
 10 11  1  0  0  0
 11 12  1  0  0  0
 11 13  2  0  0  0
 13 14  1  0  0  0
 14 15  2  0  0  0
  6 16  1  0  0  0
 16 17  1  0  0  0
 17 18  1  0  0  0
 18 19  1  0  0  0
 19 20  1  0  0  0
 19 23  1  0  0  0
 23 24  3  0  0  0
 24 25  1  0  0  0
 25 26  2  0  0  0
 26 27  1  0  0  0
 27 28  2  0  0  0
 28 29  1  0  0  0
 29 30  2  0  0  0
 29 31  1  0  0  0
 31 32  1  0  0  0
 31 33  2  0  0  0
 16  2  1  0  0  0
 30 25  1  0  0  0
 19  2  1  0  0  0
 15  5  1  0  0  0
 15  9  1  0  0  0
 12 21  1  0  0  0
 20 22  1  0  0  0
M  CHG 1  32  -1
M  END
> <minimizedAffinity>
16.03558

> <CNNscore>
0.5161628723

> <CNNaffinity>
7.5543684959

> <CNN_VS>
3.8992846012

> <CNNaffinity_variance>
2.3380179405

$$$$
[H]Oc1c([H])c([H])c2c(c1[H])C([H])([H])C([H])([H])C1([H])C2([H])C([H])([H])C([H])([H])[C@@]2(C([H])([H])[H])C1([H])C([H])([H])C([H])([H])[C@]2(C#Cc1c([H])c([H])c([H])c(C(=O)[O-])c1[H])O[H]


 33 37  0  0  0  0  0  0  0  0999 V2000
   12.4489   44.8490  132.2477 C   0  0  0  0  0  0  0  0  0  0  0  0
   11.1412   44.9272  131.4468 C   0  0  0  0  0  0  0  0  0  0  0  0
   10.1013   45.4505  132.3960 C   0  0  0  0  0  0  0  0  0  0  0  0
    9.7075   44.4440  133.4423 C   0  0  0  0  0  0  0  0  0  0  0  0
    9.7958   43.0282  132.9975 C   0  0  0  0  0  0  0  0  0  0  0  0
    9.6884   42.8774  131.4901 C   0  0  0  0  0  0  0  0  0  0  0  0
    8.3436   43.1979  130.9470 C   0  0  0  0  0  0  0  0  0  0  0  0
    7.2382   43.0391  131.9312 C   0  0  0  0  0  0  0  0  0  0  0  0
    7.5279   42.1279  133.0540 C   0  0  0  0  0  0  0  0  0  0  0  0
    6.5408   41.2827  133.5776 C   0  0  0  0  0  0  0  0  0  0  0  0
    6.8104   40.4390  134.6256 C   0  0  0  0  0  0  0  0  0  0  0  0
    5.8058   39.5960  135.1395 O   0  0  0  0  0  0  0  0  0  0  0  0
    8.0799   40.4393  135.1569 C   0  0  0  0  0  0  0  0  0  0  0  0
    9.0650   41.2810  134.6362 C   0  0  0  0  0  0  0  0  0  0  0  0
    8.7980   42.1274  133.5862 C   0  0  0  0  0  0  0  0  0  0  0  0
   10.8375   43.5892  130.8749 C   0  0  0  0  0  0  0  0  0  0  0  0
   10.7096   43.8301  129.3858 C   0  0  0  0  0  0  0  0  0  0  0  0
   11.8039   44.8931  129.1995 C   0  0  0  0  0  0  0  0  0  0  0  0
   11.3858   45.8650  130.3128 C   0  0  0  0  0  0  0  0  0  0  0  0
   12.4315   46.7539  130.5462 O   0  0  0  0  0  0  0  0  0  0  0  0
    5.6837   38.6508  134.7482 H   0  0  0  0  0  0  0  0  0  0  0  0
   12.1084   47.3941  131.2324 H   0  0  0  0  0  0  0  0  0  0  0  0
   10.2030   46.6333  129.9266 C   0  0  0  0  0  0  0  0  0  0  0  0
    9.2149   47.2531  129.6177 C   0  0  0  0  0  0  0  0  0  0  0  0
    8.0243   47.9756  129.2636 C   0  0  0  0  0  0  0  0  0  0  0  0
    6.8748   47.3649  128.8163 C   0  0  0  0  0  0  0  0  0  0  0  0
    5.7357   48.0653  128.4781 C   0  0  0  0  0  0  0  0  0  0  0  0
    5.7532   49.4374  128.5948 C   0  0  0  0  0  0  0  0  0  0  0  0
    6.9061   50.0851  129.0462 C   0  0  0  0  0  0  0  0  0  0  0  0
    8.0364   49.3465  129.3783 C   0  0  0  0  0  0  0  0  0  0  0  0
    6.9008   51.5290  129.1608 C   0  0  0  0  0  0  0  0  0  0  0  0
    7.0493   52.3146  128.0303 O   0  0  0  0  0  0  0  0  0  0  0  0
    6.7600   52.0415  130.2952 O   0  0  0  0  0  0  0  0  0  0  0  0
  2  1  1  0  0  0
  2  3  1  0  0  0
  3  4  1  0  0  0
  4  5  1  0  0  0
  5  6  1  0  0  0
  6  7  1  0  0  0
  7  8  1  0  0  0
  8  9  1  0  0  0
  9 10  2  0  0  0
 10 11  1  0  0  0
 11 12  1  0  0  0
 11 13  2  0  0  0
 13 14  1  0  0  0
 14 15  2  0  0  0
  6 16  1  0  0  0
 16 17  1  0  0  0
 17 18  1  0  0  0
 18 19  1  0  0  0
 19 20  1  0  0  0
 19 23  1  0  0  0
 23 24  3  0  0  0
 24 25  1  0  0  0
 25 26  2  0  0  0
 26 27  1  0  0  0
 27 28  2  0  0  0
 28 29  1  0  0  0
 29 30  2  0  0  0
 29 31  1  0  0  0
 31 32  1  0  0  0
 31 33  2  0  0  0
 16  2  1  0  0  0
 30 25  1  0  0  0
 19  2  1  0  0  0
 15  5  1  0  0  0
 15  9  1  0  0  0
 12 21  1  0  0  0
 20 22  1  0  0  0
M  CHG 1  32  -1
M  END
> <minimizedAffinity>
14.66028

> <CNNscore>
0.4969449937

> <CNNaffinity>
7.5616149902

> <CNN_VS>
3.7577066422

> <CNNaffinity_variance>
1.0949556828

$$$$
[H]Oc1c([H])c([H])c2c(c1[H])C([H])([H])C([H])([H])C1([H])C2([H])C([H])([H])C([H])([H])[C@@]2(C([H])([H])[H])C1([H])C([H])([H])C([H])([H])[C@]2(C#Cc1c([H])c([H])c([H])c(C(=O)[O-])c1[H])O[H]


 33 37  0  0  0  0  0  0  0  0999 V2000
    9.2092   46.5156  135.6038 C   0  0  0  0  0  0  0  0  0  0  0  0
    9.4191   46.7840  134.1066 C   0  0  0  0  0  0  0  0  0  0  0  0
    8.3502   46.0094  133.3900 C   0  0  0  0  0  0  0  0  0  0  0  0
    8.5841   44.5239  133.4246 C   0  0  0  0  0  0  0  0  0  0  0  0
   10.0163   44.1278  133.4676 C   0  0  0  0  0  0  0  0  0  0  0  0
   10.9380   45.1906  132.8950 C   0  0  0  0  0  0  0  0  0  0  0  0
   10.8027   45.3782  131.4279 C   0  0  0  0  0  0  0  0  0  0  0  0
   10.2775   44.1850  130.7095 C   0  0  0  0  0  0  0  0  0  0  0  0
   10.4712   42.9004  131.4076 C   0  0  0  0  0  0  0  0  0  0  0  0
   10.7806   41.7296  130.7031 C   0  0  0  0  0  0  0  0  0  0  0  0
   10.9558   40.5340  131.3533 C   0  0  0  0  0  0  0  0  0  0  0  0
   11.2664   39.3668  130.6290 O   0  0  0  0  0  0  0  0  0  0  0  0
   10.8203   40.5073  132.7226 C   0  0  0  0  0  0  0  0  0  0  0  0
   10.5120   41.6733  133.4264 C   0  0  0  0  0  0  0  0  0  0  0  0
   10.3361   42.8726  132.7777 C   0  0  0  0  0  0  0  0  0  0  0  0
   10.8083   46.4099  133.7330 C   0  0  0  0  0  0  0  0  0  0  0  0
   11.3902   47.6652  133.1188 C   0  0  0  0  0  0  0  0  0  0  0  0
   10.7306   48.7238  134.0168 C   0  0  0  0  0  0  0  0  0  0  0  0
    9.2720   48.2552  133.9079 C   0  0  0  0  0  0  0  0  0  0  0  0
    8.5271   48.8763  134.9066 O   0  0  0  0  0  0  0  0  0  0  0  0
   12.2519   39.1207  130.4564 H   0  0  0  0  0  0  0  0  0  0  0  0
    7.5860   48.5898  134.7748 H   0  0  0  0  0  0  0  0  0  0  0  0
    8.6975   48.6135  132.6117 C   0  0  0  0  0  0  0  0  0  0  0  0
    8.2396   48.8996  131.5327 C   0  0  0  0  0  0  0  0  0  0  0  0
    7.7125   49.2272  130.2366 C   0  0  0  0  0  0  0  0  0  0  0  0
    7.2569   48.2825  129.3454 C   0  0  0  0  0  0  0  0  0  0  0  0
    6.7523   48.6048  128.1028 C   0  0  0  0  0  0  0  0  0  0  0  0
    6.7038   49.9327  127.7413 C   0  0  0  0  0  0  0  0  0  0  0  0
    7.1594   50.9141  128.6254 C   0  0  0  0  0  0  0  0  0  0  0  0
    7.6619   50.5523  129.8705 C   0  0  0  0  0  0  0  0  0  0  0  0
    7.0984   52.3042  128.2231 C   0  0  0  0  0  0  0  0  0  0  0  0
    7.3954   52.6621  126.9189 O   0  0  0  0  0  0  0  0  0  0  0  0
    6.7741   53.1630  129.0756 O   0  0  0  0  0  0  0  0  0  0  0  0
  2  1  1  0  0  0
  2  3  1  0  0  0
  3  4  1  0  0  0
  4  5  1  0  0  0
  5  6  1  0  0  0
  6  7  1  0  0  0
  7  8  1  0  0  0
  8  9  1  0  0  0
  9 10  2  0  0  0
 10 11  1  0  0  0
 11 12  1  0  0  0
 11 13  2  0  0  0
 13 14  1  0  0  0
 14 15  2  0  0  0
  6 16  1  0  0  0
 16 17  1  0  0  0
 17 18  1  0  0  0
 18 19  1  0  0  0
 19 20  1  0  0  0
 19 23  1  0  0  0
 23 24  3  0  0  0
 24 25  1  0  0  0
 25 26  2  0  0  0
 26 27  1  0  0  0
 27 28  2  0  0  0
 28 29  1  0  0  0
 29 30  2  0  0  0
 29 31  1  0  0  0
 31 32  1  0  0  0
 31 33  2  0  0  0
 16  2  1  0  0  0
 30 25  1  0  0  0
 19  2  1  0  0  0
 15  5  1  0  0  0
 15  9  1  0  0  0
 12 21  1  0  0  0
 20 22  1  0  0  0
M  CHG 1  32  -1
M  END
> <minimizedAffinity>
11.92876

> <CNNscore>
0.4888987541

> <CNNaffinity>
7.7790346146

> <CNN_VS>
3.8031604290

> <CNNaffinity_variance>
2.1736907959

$$$$
[H]Oc1c([H])c([H])c2c(c1[H])C([H])([H])C([H])([H])C1([H])C2([H])C([H])([H])C([H])([H])[C@@]2(C([H])([H])[H])C1([H])C([H])([H])C([H])([H])[C@]2(C#Cc1c([H])c([H])c([H])c(C(=O)[O-])c1[H])O[H]


 33 37  0  0  0  0  0  0  0  0999 V2000
   11.9071   42.6477  131.8241 C   0  0  0  0  0  0  0  0  0  0  0  0
   10.8845   43.7870  131.9423 C   0  0  0  0  0  0  0  0  0  0  0  0
   11.5524   45.0075  131.3761 C   0  0  0  0  0  0  0  0  0  0  0  0
   12.6423   45.5410  132.2650 C   0  0  0  0  0  0  0  0  0  0  0  0
   12.4219   45.3068  133.7164 C   0  0  0  0  0  0  0  0  0  0  0  0
   10.9551   45.1265  134.0670 C   0  0  0  0  0  0  0  0  0  0  0  0
   10.1435   46.3610  133.9149 C   0  0  0  0  0  0  0  0  0  0  0  0
   10.9288   47.6208  134.0236 C   0  0  0  0  0  0  0  0  0  0  0  0
   12.2010   47.5019  134.7600 C   0  0  0  0  0  0  0  0  0  0  0  0
   12.6543   48.5288  135.5986 C   0  0  0  0  0  0  0  0  0  0  0  0
   13.8406   48.4190  136.2794 C   0  0  0  0  0  0  0  0  0  0  0  0
   14.2809   49.4613  137.1181 O   0  0  0  0  0  0  0  0  0  0  0  0
   14.5828   47.2710  136.1209 C   0  0  0  0  0  0  0  0  0  0  0  0
   14.1326   46.2465  135.2856 C   0  0  0  0  0  0  0  0  0  0  0  0
   12.9443   46.3535  134.6023 C   0  0  0  0  0  0  0  0  0  0  0  0
   10.4599   43.9175  133.3607 C   0  0  0  0  0  0  0  0  0  0  0  0
    8.9530   43.7789  133.3230 C   0  0  0  0  0  0  0  0  0  0  0  0
    8.8170   42.7193  132.2181 C   0  0  0  0  0  0  0  0  0  0  0  0
    9.6923   43.3805  131.1431 C   0  0  0  0  0  0  0  0  0  0  0  0
    9.9809   42.4381  130.1598 O   0  0  0  0  0  0  0  0  0  0  0  0
   14.0098   49.4652  138.1121 H   0  0  0  0  0  0  0  0  0  0  0  0
   10.5031   42.9117  129.4612 H   0  0  0  0  0  0  0  0  0  0  0  0
    8.9996   44.5056  130.5165 C   0  0  0  0  0  0  0  0  0  0  0  0
    8.4425   45.4470  130.0074 C   0  0  0  0  0  0  0  0  0  0  0  0
    7.7976   46.5831  129.4088 C   0  0  0  0  0  0  0  0  0  0  0  0
    8.4295   47.4360  128.5327 C   0  0  0  0  0  0  0  0  0  0  0  0
    7.8037   48.5247  127.9622 C   0  0  0  0  0  0  0  0  0  0  0  0
    6.4872   48.7659  128.2862 C   0  0  0  0  0  0  0  0  0  0  0  0
    5.8196   47.9171  129.1730 C   0  0  0  0  0  0  0  0  0  0  0  0
    6.4824   46.8286  129.7292 C   0  0  0  0  0  0  0  0  0  0  0  0
    4.4351   48.1909  129.4988 C   0  0  0  0  0  0  0  0  0  0  0  0
    3.9510   49.4866  129.4349 O   0  0  0  0  0  0  0  0  0  0  0  0
    3.6968   47.2365  129.8357 O   0  0  0  0  0  0  0  0  0  0  0  0
  2  1  1  0  0  0
  2  3  1  0  0  0
  3  4  1  0  0  0
  4  5  1  0  0  0
  5  6  1  0  0  0
  6  7  1  0  0  0
  7  8  1  0  0  0
  8  9  1  0  0  0
  9 10  2  0  0  0
 10 11  1  0  0  0
 11 12  1  0  0  0
 11 13  2  0  0  0
 13 14  1  0  0  0
 14 15  2  0  0  0
  6 16  1  0  0  0
 16 17  1  0  0  0
 17 18  1  0  0  0
 18 19  1  0  0  0
 19 20  1  0  0  0
 19 23  1  0  0  0
 23 24  3  0  0  0
 24 25  1  0  0  0
 25 26  2  0  0  0
 26 27  1  0  0  0
 27 28  2  0  0  0
 28 29  1  0  0  0
 29 30  2  0  0  0
 29 31  1  0  0  0
 31 32  1  0  0  0
 31 33  2  0  0  0
 16  2  1  0  0  0
 30 25  1  0  0  0
 19  2  1  0  0  0
 15  5  1  0  0  0
 15  9  1  0  0  0
 12 21  1  0  0  0
 20 22  1  0  0  0
M  CHG 1  32  -1
M  END
> <minimizedAffinity>
11.86092

> <CNNscore>
0.4777055681

> <CNNaffinity>
7.6101655960

> <CNN_VS>
3.6354184151

> <CNNaffinity_variance>
1.4981032610

$$$$
[H]Oc1c([H])c([H])c2c(c1[H])C([H])([H])C([H])([H])C1([H])C2([H])C([H])([H])C([H])([H])[C@@]2(C([H])([H])[H])C1([H])C([H])([H])C([H])([H])[C@]2(C#Cc1c([H])c([H])c([H])c(C(=O)[O-])c1[H])O[H]


 33 37  0  0  0  0  0  0  0  0999 V2000
   11.8829   45.7480  128.7352 C   0  0  0  0  0  0  0  0  0  0  0  0
   11.1189   45.5589  130.0536 C   0  0  0  0  0  0  0  0  0  0  0  0
    9.6968   45.2609  129.6726 C   0  0  0  0  0  0  0  0  0  0  0  0
    8.9765   46.4616  129.1229 C   0  0  0  0  0  0  0  0  0  0  0  0
    9.4384   47.7620  129.6757 C   0  0  0  0  0  0  0  0  0  0  0  0
   10.0841   47.6237  131.0434 C   0  0  0  0  0  0  0  0  0  0  0  0
    9.1351   47.2476  132.1222 C   0  0  0  0  0  0  0  0  0  0  0  0
    7.7224   47.6274  131.8473 C   0  0  0  0  0  0  0  0  0  0  0  0
    7.5484   48.7277  130.8808 C   0  0  0  0  0  0  0  0  0  0  0  0
    6.5424   49.6887  131.0466 C   0  0  0  0  0  0  0  0  0  0  0  0
    6.3785   50.7091  130.1440 C   0  0  0  0  0  0  0  0  0  0  0  0
    5.3617   51.6665  130.3264 O   0  0  0  0  0  0  0  0  0  0  0  0
    7.2287   50.7707  129.0635 C   0  0  0  0  0  0  0  0  0  0  0  0
    8.2320   49.8138  128.8968 C   0  0  0  0  0  0  0  0  0  0  0  0
    8.3987   48.7903  129.7995 C   0  0  0  0  0  0  0  0  0  0  0  0
   11.2911   46.7709  130.8966 C   0  0  0  0  0  0  0  0  0  0  0  0
   11.8625   46.2525  132.1991 C   0  0  0  0  0  0  0  0  0  0  0  0
   12.7740   45.1394  131.6584 C   0  0  0  0  0  0  0  0  0  0  0  0
   11.7596   44.4133  130.7624 C   0  0  0  0  0  0  0  0  0  0  0  0
   12.4493   43.5531  129.9124 O   0  0  0  0  0  0  0  0  0  0  0  0
    5.5576   52.5223  130.8656 H   0  0  0  0  0  0  0  0  0  0  0  0
   11.7622   43.0673  129.3861 H   0  0  0  0  0  0  0  0  0  0  0  0
   10.8220   43.6230  131.5591 C   0  0  0  0  0  0  0  0  0  0  0  0
   10.0417   42.9885  132.2258 C   0  0  0  0  0  0  0  0  0  0  0  0
    9.1034   42.2543  133.0292 C   0  0  0  0  0  0  0  0  0  0  0  0
    7.7405   42.4276  132.9473 C   0  0  0  0  0  0  0  0  0  0  0  0
    6.8460   41.7190  133.7221 C   0  0  0  0  0  0  0  0  0  0  0  0
    7.3429   40.7973  134.6165 C   0  0  0  0  0  0  0  0  0  0  0  0
    8.7221   40.5997  134.7217 C   0  0  0  0  0  0  0  0  0  0  0  0
    9.5945   41.3323  133.9244 C   0  0  0  0  0  0  0  0  0  0  0  0
    9.2213   39.6248  135.6696 C   0  0  0  0  0  0  0  0  0  0  0  0
    9.3389   39.9570  137.0086 O   0  0  0  0  0  0  0  0  0  0  0  0
    9.5397   38.4878  135.2510 O   0  0  0  0  0  0  0  0  0  0  0  0
  2  1  1  0  0  0
  2  3  1  0  0  0
  3  4  1  0  0  0
  4  5  1  0  0  0
  5  6  1  0  0  0
  6  7  1  0  0  0
  7  8  1  0  0  0
  8  9  1  0  0  0
  9 10  2  0  0  0
 10 11  1  0  0  0
 11 12  1  0  0  0
 11 13  2  0  0  0
 13 14  1  0  0  0
 14 15  2  0  0  0
  6 16  1  0  0  0
 16 17  1  0  0  0
 17 18  1  0  0  0
 18 19  1  0  0  0
 19 20  1  0  0  0
 19 23  1  0  0  0
 23 24  3  0  0  0
 24 25  1  0  0  0
 25 26  2  0  0  0
 26 27  1  0  0  0
 27 28  2  0  0  0
 28 29  1  0  0  0
 29 30  2  0  0  0
 29 31  1  0  0  0
 31 32  1  0  0  0
 31 33  2  0  0  0
 16  2  1  0  0  0
 30 25  1  0  0  0
 19  2  1  0  0  0
 15  5  1  0  0  0
 15  9  1  0  0  0
 12 21  1  0  0  0
 20 22  1  0  0  0
M  CHG 1  32  -1
M  END
> <minimizedAffinity>
26.92635

> <CNNscore>
0.4764627218

> <CNNaffinity>
7.6315927505

> <CNN_VS>
3.6361694336

> <CNNaffinity_variance>
1.1387598515

$$$$
[H]Oc1c([H])c([H])c2c(c1[H])C([H])([H])C([H])([H])C1([H])C2([H])C([H])([H])C([H])([H])[C@@]2(C([H])([H])[H])C1([H])C([H])([H])C([H])([H])[C@]2(C#Cc1c([H])c([H])c([H])c(C(=O)[O-])c1[H])O[H]


 33 37  0  0  0  0  0  0  0  0999 V2000
    8.6044   43.9102  127.8790 C   0  0  0  0  0  0  0  0  0  0  0  0
    9.3481   44.5572  129.0563 C   0  0  0  0  0  0  0  0  0  0  0  0
    8.2937   44.9455  130.0531 C   0  0  0  0  0  0  0  0  0  0  0  0
    7.4612   46.1123  129.5966 C   0  0  0  0  0  0  0  0  0  0  0  0
    8.1805   47.0764  128.7230 C   0  0  0  0  0  0  0  0  0  0  0  0
    9.6854   47.0437  128.9250 C   0  0  0  0  0  0  0  0  0  0  0  0
   10.1275   47.5654  130.2435 C   0  0  0  0  0  0  0  0  0  0  0  0
    9.1733   48.5217  130.8686 C   0  0  0  0  0  0  0  0  0  0  0  0
    8.2601   49.1973  129.9281 C   0  0  0  0  0  0  0  0  0  0  0  0
    7.8961   50.5386  130.1051 C   0  0  0  0  0  0  0  0  0  0  0  0
    7.0424   51.1646  129.2320 C   0  0  0  0  0  0  0  0  0  0  0  0
    6.6872   52.5137  129.4254 O   0  0  0  0  0  0  0  0  0  0  0  0
    6.5465   50.4430  128.1702 C   0  0  0  0  0  0  0  0  0  0  0  0
    6.9084   49.1061  127.9922 C   0  0  0  0  0  0  0  0  0  0  0  0
    7.7636   48.4762  128.8652 C   0  0  0  0  0  0  0  0  0  0  0  0
   10.1689   45.6897  128.5531 C   0  0  0  0  0  0  0  0  0  0  0  0
   11.5774   45.3729  129.0084 C   0  0  0  0  0  0  0  0  0  0  0  0
   11.5697   43.8459  128.8342 C   0  0  0  0  0  0  0  0  0  0  0  0
   10.2773   43.5241  129.5991 C   0  0  0  0  0  0  0  0  0  0  0  0
    9.8921   42.2207  129.2973 O   0  0  0  0  0  0  0  0  0  0  0  0
    7.2563   53.2576  128.9962 H   0  0  0  0  0  0  0  0  0  0  0  0
    9.0860   42.0319  129.8448 H   0  0  0  0  0  0  0  0  0  0  0  0
   10.4798   43.6239  131.0439 C   0  0  0  0  0  0  0  0  0  0  0  0
   10.6387   43.7256  132.2356 C   0  0  0  0  0  0  0  0  0  0  0  0
   10.8161   43.8688  133.6544 C   0  0  0  0  0  0  0  0  0  0  0  0
   11.5558   42.9927  134.4157 C   0  0  0  0  0  0  0  0  0  0  0  0
   11.7214   43.1369  135.7774 C   0  0  0  0  0  0  0  0  0  0  0  0
   11.1180   44.2070  136.3996 C   0  0  0  0  0  0  0  0  0  0  0  0
   10.3608   45.1130  135.6525 C   0  0  0  0  0  0  0  0  0  0  0  0
   10.2154   44.9361  134.2810 C   0  0  0  0  0  0  0  0  0  0  0  0
    9.7356   46.2308  136.3289 C   0  0  0  0  0  0  0  0  0  0  0  0
    9.1494   47.2466  135.5929 O   0  0  0  0  0  0  0  0  0  0  0  0
    9.7393   46.2538  137.5815 O   0  0  0  0  0  0  0  0  0  0  0  0
  2  1  1  0  0  0
  2  3  1  0  0  0
  3  4  1  0  0  0
  4  5  1  0  0  0
  5  6  1  0  0  0
  6  7  1  0  0  0
  7  8  1  0  0  0
  8  9  1  0  0  0
  9 10  2  0  0  0
 10 11  1  0  0  0
 11 12  1  0  0  0
 11 13  2  0  0  0
 13 14  1  0  0  0
 14 15  2  0  0  0
  6 16  1  0  0  0
 16 17  1  0  0  0
 17 18  1  0  0  0
 18 19  1  0  0  0
 19 20  1  0  0  0
 19 23  1  0  0  0
 23 24  3  0  0  0
 24 25  1  0  0  0
 25 26  2  0  0  0
 26 27  1  0  0  0
 27 28  2  0  0  0
 28 29  1  0  0  0
 29 30  2  0  0  0
 29 31  1  0  0  0
 31 32  1  0  0  0
 31 33  2  0  0  0
 16  2  1  0  0  0
 30 25  1  0  0  0
 19  2  1  0  0  0
 15  5  1  0  0  0
 15  9  1  0  0  0
 12 21  1  0  0  0
 20 22  1  0  0  0
M  CHG 1  32  -1
M  END
> <minimizedAffinity>
3.94179

> <CNNscore>
0.4709829092

> <CNNaffinity>
7.8575525284

> <CNN_VS>
3.7007730007

> <CNNaffinity_variance>
2.1463978291

$$$$
[H]Oc1c([H])c([H])c2c(c1[H])C([H])([H])C([H])([H])C1([H])C2([H])C([H])([H])C([H])([H])[C@@]2(C([H])([H])[H])C1([H])C([H])([H])C([H])([H])[C@]2(C#Cc1c([H])c([H])c([H])c(C(=O)[O-])c1[H])O[H]


 33 37  0  0  0  0  0  0  0  0999 V2000
    8.1848   43.7419  127.8082 C   0  0  0  0  0  0  0  0  0  0  0  0
    9.1386   44.5126  128.7323 C   0  0  0  0  0  0  0  0  0  0  0  0
    8.4230   44.6550  130.0453 C   0  0  0  0  0  0  0  0  0  0  0  0
    7.2771   45.6273  129.9825 C   0  0  0  0  0  0  0  0  0  0  0  0
    7.4629   46.7345  129.0080 C   0  0  0  0  0  0  0  0  0  0  0  0
    8.9252   47.0162  128.7095 C   0  0  0  0  0  0  0  0  0  0  0  0
    9.6720   47.5988  129.8535 C   0  0  0  0  0  0  0  0  0  0  0  0
    8.8151   48.3232  130.8317 C   0  0  0  0  0  0  0  0  0  0  0  0
    7.5282   48.8059  130.2972 C   0  0  0  0  0  0  0  0  0  0  0  0
    6.9920   50.0376  130.6948 C   0  0  0  0  0  0  0  0  0  0  0  0
    5.7921   50.4834  130.2005 C   0  0  0  0  0  0  0  0  0  0  0  0
    5.2679   51.7244  130.6114 O   0  0  0  0  0  0  0  0  0  0  0  0
    5.1199   49.6900  129.2989 C   0  0  0  0  0  0  0  0  0  0  0  0
    5.6529   48.4621  128.9013 C   0  0  0  0  0  0  0  0  0  0  0  0
    6.8550   48.0129  129.3948 C   0  0  0  0  0  0  0  0  0  0  0  0
    9.5091   45.8001  128.0884 C   0  0  0  0  0  0  0  0  0  0  0  0
   11.0218   45.7798  128.0359 C   0  0  0  0  0  0  0  0  0  0  0  0
   11.2519   44.2883  127.7453 C   0  0  0  0  0  0  0  0  0  0  0  0
   10.3768   43.6899  128.8566 C   0  0  0  0  0  0  0  0  0  0  0  0
   10.1727   42.3395  128.5866 O   0  0  0  0  0  0  0  0  0  0  0  0
    5.5060   52.5779  130.0857 H   0  0  0  0  0  0  0  0  0  0  0  0
    9.6481   41.9769  129.3471 H   0  0  0  0  0  0  0  0  0  0  0  0
   11.0262   43.8078  130.1614 C   0  0  0  0  0  0  0  0  0  0  0  0
   11.5527   43.9237  131.2409 C   0  0  0  0  0  0  0  0  0  0  0  0
   12.1667   44.0828  132.5303 C   0  0  0  0  0  0  0  0  0  0  0  0
   12.6392   43.0280  133.2776 C   0  0  0  0  0  0  0  0  0  0  0  0
   13.2273   43.1888  134.5148 C   0  0  0  0  0  0  0  0  0  0  0  0
   13.3456   44.4638  135.0217 C   0  0  0  0  0  0  0  0  0  0  0  0
   12.8750   45.5542  134.2856 C   0  0  0  0  0  0  0  0  0  0  0  0
   12.2873   45.3544  133.0414 C   0  0  0  0  0  0  0  0  0  0  0  0
   13.0103   46.8858  134.8393 C   0  0  0  0  0  0  0  0  0  0  0  0
   14.2101   47.2827  135.4052 O   0  0  0  0  0  0  0  0  0  0  0  0
   12.0256   47.6589  134.7931 O   0  0  0  0  0  0  0  0  0  0  0  0
  2  1  1  0  0  0
  2  3  1  0  0  0
  3  4  1  0  0  0
  4  5  1  0  0  0
  5  6  1  0  0  0
  6  7  1  0  0  0
  7  8  1  0  0  0
  8  9  1  0  0  0
  9 10  2  0  0  0
 10 11  1  0  0  0
 11 12  1  0  0  0
 11 13  2  0  0  0
 13 14  1  0  0  0
 14 15  2  0  0  0
  6 16  1  0  0  0
 16 17  1  0  0  0
 17 18  1  0  0  0
 18 19  1  0  0  0
 19 20  1  0  0  0
 19 23  1  0  0  0
 23 24  3  0  0  0
 24 25  1  0  0  0
 25 26  2  0  0  0
 26 27  1  0  0  0
 27 28  2  0  0  0
 28 29  1  0  0  0
 29 30  2  0  0  0
 29 31  1  0  0  0
 31 32  1  0  0  0
 31 33  2  0  0  0
 16  2  1  0  0  0
 30 25  1  0  0  0
 19  2  1  0  0  0
 15  5  1  0  0  0
 15  9  1  0  0  0
 12 21  1  0  0  0
 20 22  1  0  0  0
M  CHG 1  32  -1
M  END
> <minimizedAffinity>
9.12073

> <CNNscore>
0.4664537609

> <CNNaffinity>
7.5248808861

> <CNN_VS>
3.5100090504

> <CNNaffinity_variance>
1.3785870075

$$$$
[H]Oc1c([H])c([H])c2c(c1[H])C([H])([H])C([H])([H])C([H])([H])C(c1c([H])c([H])c(OC([H])([H])[H])c([H])c1C(F)(F)F)=C2c1c([H])c([H])c(O[C@]2([H])C([H])([H])N(C([H])([H])C([H])([H])C([H])([H])F)C([H])([H])C2([H])[H])c([H])c1[H]


 41 45  0  0  0  0  0  0  0  0999 V2000
   10.8421   45.7111  133.2668 C   0  0  0  0  0  0  0  0  0  0  0  0
   10.5682   44.9954  132.1977 C   0  0  0  0  0  0  0  0  0  0  0  0
   10.7701   43.5238  132.0074 C   0  0  0  0  0  0  0  0  0  0  0  0
   10.1122   42.9952  130.9412 C   0  0  0  0  0  0  0  0  0  0  0  0
   10.1812   41.6531  130.6061 C   0  0  0  0  0  0  0  0  0  0  0  0
   10.9288   40.7855  131.3502 C   0  0  0  0  0  0  0  0  0  0  0  0
   10.9730   39.4517  130.9810 O   0  0  0  0  0  0  0  0  0  0  0  0
   11.6099   41.2997  132.4479 C   0  0  0  0  0  0  0  0  0  0  0  0
   11.5227   42.6460  132.7601 C   0  0  0  0  0  0  0  0  0  0  0  0
   12.3023   42.8865  134.0072 C   0  0  0  0  0  0  0  0  0  0  0  0
   11.4521   43.8497  134.8485 C   0  0  0  0  0  0  0  0  0  0  0  0
   11.6766   45.2562  134.4040 C   0  0  0  0  0  0  0  0  0  0  0  0
   11.4886   38.7348  131.4557 H   0  0  0  0  0  0  0  0  0  0  0  0
    9.7951   49.7805  133.0152 C   0  0  0  0  0  0  0  0  0  0  0  0
   10.7985   49.2582  132.2279 C   0  0  0  0  0  0  0  0  0  0  0  0
   11.1270   47.9342  132.3669 C   0  0  0  0  0  0  0  0  0  0  0  0
   10.4796   47.0967  133.2772 C   0  0  0  0  0  0  0  0  0  0  0  0
    9.4801   47.5870  134.0761 C   0  0  0  0  0  0  0  0  0  0  0  0
    9.1649   48.9472  133.9110 C   0  0  0  0  0  0  0  0  0  0  0  0
    8.7351   46.8812  135.1244 C   0  0  0  0  0  0  0  0  0  0  0  0
    7.7465   47.6318  135.7423 F   0  0  0  0  0  0  0  0  0  0  0  0
    8.0713   45.8045  134.5698 F   0  0  0  0  0  0  0  0  0  0  0  0
    9.5428   46.3170  136.1121 F   0  0  0  0  0  0  0  0  0  0  0  0
   10.1360   52.0963  133.6536 C   0  0  0  0  0  0  0  0  0  0  0  0
    9.4492   51.1251  132.8837 O   0  0  0  0  0  0  0  0  0  0  0  0
    9.9343   45.6102  131.0697 C   0  0  0  0  0  0  0  0  0  0  0  0
    8.5757   45.9873  131.1137 C   0  0  0  0  0  0  0  0  0  0  0  0
    7.9804   46.6051  130.0701 C   0  0  0  0  0  0  0  0  0  0  0  0
    8.6701   46.9084  128.8869 C   0  0  0  0  0  0  0  0  0  0  0  0
    9.9791   46.5492  128.8367 C   0  0  0  0  0  0  0  0  0  0  0  0
   10.5906   45.9126  129.9144 C   0  0  0  0  0  0  0  0  0  0  0  0
    7.9874   47.5494  127.8497 O   0  0  0  0  0  0  0  0  0  0  0  0
    6.6436   47.8367  127.8657 C   0  0  0  0  0  0  0  0  0  0  0  0
    6.0008   46.8850  128.8941 C   0  0  0  0  0  0  0  0  0  0  0  0
    4.7283   47.6354  129.2278 C   0  0  0  0  0  0  0  0  0  0  0  0
    4.9042   48.9833  128.7897 N   0  0  0  0  0  0  0  0  0  0  0  0
    6.3279   49.1673  128.5519 C   0  0  0  0  0  0  0  0  0  0  0  0
    4.3165   49.9848  129.6167 C   0  0  0  0  0  0  0  0  0  0  0  0
    5.2392   50.5828  130.6423 C   0  0  0  0  0  0  0  0  0  0  0  0
    4.5770   51.8831  131.1009 C   0  0  0  0  0  0  0  0  0  0  0  0
    4.0721   51.6240  132.3588 F   0  0  0  0  0  0  0  0  0  0  0  0
 24 25  1  0  0  0
 25 14  1  0  0  0
 14 15  2  0  0  0
 15 16  1  0  0  0
 16 17  2  0  0  0
 17 18  1  0  0  0
 18 19  2  0  0  0
 18 20  1  0  0  0
 20 21  1  0  0  0
 20 22  1  0  0  0
 20 23  1  0  0  0
 17  1  1  0  0  0
  1  2  2  0  0  0
  2 26  1  0  0  0
 26 27  2  0  0  0
 27 28  1  0  0  0
 28 29  2  0  0  0
 29 32  1  0  0  0
 32 33  1  0  0  0
 33 34  1  0  0  0
 34 35  1  0  0  0
 35 36  1  0  0  0
 36 38  1  0  0  0
 38 39  1  0  0  0
 39 40  1  0  0  0
 40 41  1  0  0  0
 36 37  1  0  0  0
 29 30  1  0  0  0
 30 31  2  0  0  0
  2  3  1  0  0  0
  3  4  2  0  0  0
  4  5  1  0  0  0
  5  6  2  0  0  0
  6  7  1  0  0  0
  6  8  1  0  0  0
  8  9  2  0  0  0
  9 10  1  0  0  0
 10 11  1  0  0  0
 11 12  1  0  0  0
 19 14  1  0  0  0
 12  1  1  0  0  0
 31 26  1  0  0  0
  9  3  1  0  0  0
 37 33  1  0  0  0
  7 13  1  0  0  0
M  END
> <minimizedAffinity>
15.57657

> <CNNscore>
0.4374595284

> <CNNaffinity>
8.0794782639

> <CNN_VS>
3.5344448090

> <CNNaffinity_variance>
0.6801923513

$$$$
[H]Oc1c([H])c([H])c2c(c1[H])C([H])([H])C([H])([H])C([H])([H])C(c1c([H])c([H])c(OC([H])([H])[H])c([H])c1C(F)(F)F)=C2c1c([H])c([H])c(O[C@]2([H])C([H])([H])N(C([H])([H])C([H])([H])C([H])([H])F)C([H])([H])C2([H])[H])c([H])c1[H]


 41 45  0  0  0  0  0  0  0  0999 V2000
   10.5048   44.8435  133.1049 C   0  0  0  0  0  0  0  0  0  0  0  0
   10.6025   45.0117  131.8040 C   0  0  0  0  0  0  0  0  0  0  0  0
   11.8130   44.8107  130.9455 C   0  0  0  0  0  0  0  0  0  0  0  0
   11.5563   44.7426  129.6119 C   0  0  0  0  0  0  0  0  0  0  0  0
   12.5500   44.5624  128.6640 C   0  0  0  0  0  0  0  0  0  0  0  0
   13.8579   44.4420  129.0383 C   0  0  0  0  0  0  0  0  0  0  0  0
   14.8216   44.2647  128.0599 O   0  0  0  0  0  0  0  0  0  0  0  0
   14.1478   44.5056  130.3967 C   0  0  0  0  0  0  0  0  0  0  0  0
   13.1341   44.6861  131.3228 C   0  0  0  0  0  0  0  0  0  0  0  0
   13.7369   44.6549  132.6853 C   0  0  0  0  0  0  0  0  0  0  0  0
   12.7680   43.8338  133.5487 C   0  0  0  0  0  0  0  0  0  0  0  0
   11.6516   44.6977  134.0322 C   0  0  0  0  0  0  0  0  0  0  0  0
   15.8054   44.1660  128.2253 H   0  0  0  0  0  0  0  0  0  0  0  0
    6.7244   45.5537  134.8148 C   0  0  0  0  0  0  0  0  0  0  0  0
    7.7047   46.5220  134.8387 C   0  0  0  0  0  0  0  0  0  0  0  0
    8.9317   46.2347  134.2979 C   0  0  0  0  0  0  0  0  0  0  0  0
    9.2216   44.9960  133.7228 C   0  0  0  0  0  0  0  0  0  0  0  0
    8.2689   44.0118  133.6865 C   0  0  0  0  0  0  0  0  0  0  0  0
    7.0210   44.3353  134.2478 C   0  0  0  0  0  0  0  0  0  0  0  0
    8.4074   42.6404  133.1844 C   0  0  0  0  0  0  0  0  0  0  0  0
    7.9189   41.6577  134.0320 F   0  0  0  0  0  0  0  0  0  0  0  0
    7.6777   42.5022  132.0200 F   0  0  0  0  0  0  0  0  0  0  0  0
    9.7097   42.2995  132.8180 F   0  0  0  0  0  0  0  0  0  0  0  0
    4.5682   44.7675  135.6021 C   0  0  0  0  0  0  0  0  0  0  0  0
    5.4712   45.8322  135.3598 O   0  0  0  0  0  0  0  0  0  0  0  0
    9.4412   45.3558  131.0390 C   0  0  0  0  0  0  0  0  0  0  0  0
    8.9063   46.6606  131.0740 C   0  0  0  0  0  0  0  0  0  0  0  0
    7.8366   47.0054  130.3242 C   0  0  0  0  0  0  0  0  0  0  0  0
    7.1960   46.0953  129.4704 C   0  0  0  0  0  0  0  0  0  0  0  0
    7.7054   44.8367  129.4304 C   0  0  0  0  0  0  0  0  0  0  0  0
    8.8088   44.4840  130.2042 C   0  0  0  0  0  0  0  0  0  0  0  0
    6.0948   46.5249  128.7252 O   0  0  0  0  0  0  0  0  0  0  0  0
    5.8030   47.8412  128.4593 C   0  0  0  0  0  0  0  0  0  0  0  0
    5.3008   48.4577  129.7800 C   0  0  0  0  0  0  0  0  0  0  0  0
    5.5532   49.9295  129.5275 C   0  0  0  0  0  0  0  0  0  0  0  0
    6.4683   50.0209  128.4347 N   0  0  0  0  0  0  0  0  0  0  0  0
    7.0541   48.7000  128.2635 C   0  0  0  0  0  0  0  0  0  0  0  0
    7.4227   51.0769  128.5133 C   0  0  0  0  0  0  0  0  0  0  0  0
    6.8657   52.4050  128.9451 C   0  0  0  0  0  0  0  0  0  0  0  0
    7.0720   53.3551  127.7643 C   0  0  0  0  0  0  0  0  0  0  0  0
    7.7802   52.6361  126.8231 F   0  0  0  0  0  0  0  0  0  0  0  0
 24 25  1  0  0  0
 25 14  1  0  0  0
 14 15  2  0  0  0
 15 16  1  0  0  0
 16 17  2  0  0  0
 17 18  1  0  0  0
 18 19  2  0  0  0
 18 20  1  0  0  0
 20 21  1  0  0  0
 20 22  1  0  0  0
 20 23  1  0  0  0
 17  1  1  0  0  0
  1  2  2  0  0  0
  2 26  1  0  0  0
 26 27  2  0  0  0
 27 28  1  0  0  0
 28 29  2  0  0  0
 29 32  1  0  0  0
 32 33  1  0  0  0
 33 34  1  0  0  0
 34 35  1  0  0  0
 35 36  1  0  0  0
 36 38  1  0  0  0
 38 39  1  0  0  0
 39 40  1  0  0  0
 40 41  1  0  0  0
 36 37  1  0  0  0
 29 30  1  0  0  0
 30 31  2  0  0  0
  2  3  1  0  0  0
  3  4  2  0  0  0
  4  5  1  0  0  0
  5  6  2  0  0  0
  6  7  1  0  0  0
  6  8  1  0  0  0
  8  9  2  0  0  0
  9 10  1  0  0  0
 10 11  1  0  0  0
 11 12  1  0  0  0
 19 14  1  0  0  0
 12  1  1  0  0  0
 31 26  1  0  0  0
  9  3  1  0  0  0
 37 33  1  0  0  0
  7 13  1  0  0  0
M  END
> <minimizedAffinity>
15.77108

> <CNNscore>
0.3936004341

> <CNNaffinity>
8.0953655243

> <CNN_VS>
3.1863393784

> <CNNaffinity_variance>
1.2610228062

$$$$
[H]Oc1c([H])c([H])c2c(c1[H])C([H])([H])C([H])([H])C([H])([H])C(c1c([H])c([H])c(OC([H])([H])[H])c([H])c1C(F)(F)F)=C2c1c([H])c([H])c(O[C@]2([H])C([H])([H])N(C([H])([H])C([H])([H])C([H])([H])F)C([H])([H])C2([H])[H])c([H])c1[H]


 41 45  0  0  0  0  0  0  0  0999 V2000
   11.0491   45.9532  132.5382 C   0  0  0  0  0  0  0  0  0  0  0  0
   10.3580   45.0300  131.9053 C   0  0  0  0  0  0  0  0  0  0  0  0
   10.6423   43.5612  131.8393 C   0  0  0  0  0  0  0  0  0  0  0  0
    9.6049   42.8031  131.3941 C   0  0  0  0  0  0  0  0  0  0  0  0
    9.6823   41.4264  131.2639 C   0  0  0  0  0  0  0  0  0  0  0  0
   10.8293   40.7584  131.5855 C   0  0  0  0  0  0  0  0  0  0  0  0
   10.8667   39.3819  131.4396 O   0  0  0  0  0  0  0  0  0  0  0  0
   11.9049   41.5096  132.0459 C   0  0  0  0  0  0  0  0  0  0  0  0
   11.7995   42.8851  132.1666 C   0  0  0  0  0  0  0  0  0  0  0  0
   13.0770   43.4022  132.7335 C   0  0  0  0  0  0  0  0  0  0  0  0
   12.6728   44.4686  133.7620 C   0  0  0  0  0  0  0  0  0  0  0  0
   12.4165   45.7703  133.0796 C   0  0  0  0  0  0  0  0  0  0  0  0
   11.6546   38.7975  131.6460 H   0  0  0  0  0  0  0  0  0  0  0  0
    9.7111   49.9332  132.8363 C   0  0  0  0  0  0  0  0  0  0  0  0
    9.7231   49.1065  133.9390 C   0  0  0  0  0  0  0  0  0  0  0  0
   10.1370   47.8079  133.7877 C   0  0  0  0  0  0  0  0  0  0  0  0
   10.5479   47.2948  132.5560 C   0  0  0  0  0  0  0  0  0  0  0  0
   10.5444   48.0909  131.4407 C   0  0  0  0  0  0  0  0  0  0  0  0
   10.1156   49.4170  131.6265 C   0  0  0  0  0  0  0  0  0  0  0  0
   10.8793   47.7147  130.0629 C   0  0  0  0  0  0  0  0  0  0  0  0
   11.6050   46.5396  129.9400 F   0  0  0  0  0  0  0  0  0  0  0  0
    9.7161   47.4917  129.3525 F   0  0  0  0  0  0  0  0  0  0  0  0
   11.5353   48.7153  129.3454 F   0  0  0  0  0  0  0  0  0  0  0  0
    9.9126   52.0801  133.9486 C   0  0  0  0  0  0  0  0  0  0  0  0
    9.2939   51.2567  132.9754 O   0  0  0  0  0  0  0  0  0  0  0  0
    9.1392   45.3810  131.2395 C   0  0  0  0  0  0  0  0  0  0  0  0
    8.0797   45.9979  131.9371 C   0  0  0  0  0  0  0  0  0  0  0  0
    6.9430   46.3702  131.3089 C   0  0  0  0  0  0  0  0  0  0  0  0
    6.7465   46.1688  129.9347 C   0  0  0  0  0  0  0  0  0  0  0  0
    7.7624   45.5758  129.2554 C   0  0  0  0  0  0  0  0  0  0  0  0
    8.9336   45.1934  129.9055 C   0  0  0  0  0  0  0  0  0  0  0  0
    5.5438   46.5807  129.3545 O   0  0  0  0  0  0  0  0  0  0  0  0
    5.3623   47.7831  128.7145 C   0  0  0  0  0  0  0  0  0  0  0  0
    4.4663   48.6401  129.6305 C   0  0  0  0  0  0  0  0  0  0  0  0
    4.7968   50.0337  129.1382 C   0  0  0  0  0  0  0  0  0  0  0  0
    6.0154   49.9437  128.3988 N   0  0  0  0  0  0  0  0  0  0  0  0
    6.6159   48.6604  128.7298 C   0  0  0  0  0  0  0  0  0  0  0  0
    6.9012   51.0532  128.5279 C   0  0  0  0  0  0  0  0  0  0  0  0
    7.8368   50.9849  129.7030 C   0  0  0  0  0  0  0  0  0  0  0  0
    6.9510   50.8471  130.9424 C   0  0  0  0  0  0  0  0  0  0  0  0
    7.1352   49.5561  131.3939 F   0  0  0  0  0  0  0  0  0  0  0  0
 24 25  1  0  0  0
 25 14  1  0  0  0
 14 15  2  0  0  0
 15 16  1  0  0  0
 16 17  2  0  0  0
 17 18  1  0  0  0
 18 19  2  0  0  0
 18 20  1  0  0  0
 20 21  1  0  0  0
 20 22  1  0  0  0
 20 23  1  0  0  0
 17  1  1  0  0  0
  1  2  2  0  0  0
  2 26  1  0  0  0
 26 27  2  0  0  0
 27 28  1  0  0  0
 28 29  2  0  0  0
 29 32  1  0  0  0
 32 33  1  0  0  0
 33 34  1  0  0  0
 34 35  1  0  0  0
 35 36  1  0  0  0
 36 38  1  0  0  0
 38 39  1  0  0  0
 39 40  1  0  0  0
 40 41  1  0  0  0
 36 37  1  0  0  0
 29 30  1  0  0  0
 30 31  2  0  0  0
  2  3  1  0  0  0
  3  4  2  0  0  0
  4  5  1  0  0  0
  5  6  2  0  0  0
  6  7  1  0  0  0
  6  8  1  0  0  0
  8  9  2  0  0  0
  9 10  1  0  0  0
 10 11  1  0  0  0
 11 12  1  0  0  0
 19 14  1  0  0  0
 12  1  1  0  0  0
 31 26  1  0  0  0
  9  3  1  0  0  0
 37 33  1  0  0  0
  7 13  1  0  0  0
M  END
> <minimizedAffinity>
12.02740

> <CNNscore>
0.3915762305

> <CNNaffinity>
7.8969483376

> <CNN_VS>
3.0922572613

> <CNNaffinity_variance>
0.5478476286

$$$$
[H]Oc1c([H])c([H])c2c(c1[H])C([H])([H])C([H])([H])C([H])([H])C(c1c([H])c([H])c(OC([H])([H])[H])c([H])c1C(F)(F)F)=C2c1c([H])c([H])c(O[C@]2([H])C([H])([H])N(C([H])([H])C([H])([H])C([H])([H])F)C([H])([H])C2([H])[H])c([H])c1[H]


 41 45  0  0  0  0  0  0  0  0999 V2000
    9.0169   48.8753  131.4645 C   0  0  0  0  0  0  0  0  0  0  0  0
    7.9535   48.2824  130.9667 C   0  0  0  0  0  0  0  0  0  0  0  0
    6.7943   48.9226  130.2672 C   0  0  0  0  0  0  0  0  0  0  0  0
    6.0010   48.0587  129.5792 C   0  0  0  0  0  0  0  0  0  0  0  0
    4.8816   48.4669  128.8731 C   0  0  0  0  0  0  0  0  0  0  0  0
    4.5210   49.7838  128.8371 C   0  0  0  0  0  0  0  0  0  0  0  0
    3.3940   50.1509  128.1211 O   0  0  0  0  0  0  0  0  0  0  0  0
    5.3169   50.6889  129.5303 C   0  0  0  0  0  0  0  0  0  0  0  0
    6.4309   50.2529  130.2278 C   0  0  0  0  0  0  0  0  0  0  0  0
    7.1094   51.4435  130.8134 C   0  0  0  0  0  0  0  0  0  0  0  0
    8.6127   51.2076  130.6068 C   0  0  0  0  0  0  0  0  0  0  0  0
    9.1499   50.3340  131.6904 C   0  0  0  0  0  0  0  0  0  0  0  0
    3.0430   51.0855  128.0302 H   0  0  0  0  0  0  0  0  0  0  0  0
   11.9216   46.4350  133.2885 C   0  0  0  0  0  0  0  0  0  0  0  0
   11.1692   47.3168  134.0340 C   0  0  0  0  0  0  0  0  0  0  0  0
   10.2571   48.1148  133.3924 C   0  0  0  0  0  0  0  0  0  0  0  0
   10.0632   48.0640  132.0107 C   0  0  0  0  0  0  0  0  0  0  0  0
   10.7980   47.1998  131.2419 C   0  0  0  0  0  0  0  0  0  0  0  0
   11.7246   46.3943  131.9271 C   0  0  0  0  0  0  0  0  0  0  0  0
   10.7779   47.0507  129.7826 C   0  0  0  0  0  0  0  0  0  0  0  0
   12.0004   46.7280  129.2133 F   0  0  0  0  0  0  0  0  0  0  0  0
    9.9385   46.0092  129.4394 F   0  0  0  0  0  0  0  0  0  0  0  0
   10.2540   48.1532  129.1071 F   0  0  0  0  0  0  0  0  0  0  0  0
   12.4096   44.4320  134.5677 C   0  0  0  0  0  0  0  0  0  0  0  0
   12.8521   45.6161  133.9277 O   0  0  0  0  0  0  0  0  0  0  0  0
    7.8541   46.8536  130.9933 C   0  0  0  0  0  0  0  0  0  0  0  0
    7.8745   46.1447  132.2127 C   0  0  0  0  0  0  0  0  0  0  0  0
    7.7396   44.8009  132.2504 C   0  0  0  0  0  0  0  0  0  0  0  0
    7.5717   44.0324  131.0891 C   0  0  0  0  0  0  0  0  0  0  0  0
    7.5504   44.7076  129.9106 C   0  0  0  0  0  0  0  0  0  0  0  0
    7.6891   46.0932  129.8746 C   0  0  0  0  0  0  0  0  0  0  0  0
    7.4384   42.6464  131.2069 O   0  0  0  0  0  0  0  0  0  0  0  0
    8.4822   41.7827  131.4368 C   0  0  0  0  0  0  0  0  0  0  0  0
    9.2420   41.6433  130.1026 C   0  0  0  0  0  0  0  0  0  0  0  0
   10.5982   41.1762  130.5887 C   0  0  0  0  0  0  0  0  0  0  0  0
   10.6725   41.4708  131.9843 N   0  0  0  0  0  0  0  0  0  0  0  0
    9.5987   42.4086  132.2752 C   0  0  0  0  0  0  0  0  0  0  0  0
   11.9511   41.8808  132.4632 C   0  0  0  0  0  0  0  0  0  0  0  0
   12.7126   42.7911  131.5401 C   0  0  0  0  0  0  0  0  0  0  0  0
   11.6910   43.7884  130.9908 C   0  0  0  0  0  0  0  0  0  0  0  0
   11.9568   43.8928  129.6407 F   0  0  0  0  0  0  0  0  0  0  0  0
 24 25  1  0  0  0
 25 14  1  0  0  0
 14 15  2  0  0  0
 15 16  1  0  0  0
 16 17  2  0  0  0
 17 18  1  0  0  0
 18 19  2  0  0  0
 18 20  1  0  0  0
 20 21  1  0  0  0
 20 22  1  0  0  0
 20 23  1  0  0  0
 17  1  1  0  0  0
  1  2  2  0  0  0
  2 26  1  0  0  0
 26 27  2  0  0  0
 27 28  1  0  0  0
 28 29  2  0  0  0
 29 32  1  0  0  0
 32 33  1  0  0  0
 33 34  1  0  0  0
 34 35  1  0  0  0
 35 36  1  0  0  0
 36 38  1  0  0  0
 38 39  1  0  0  0
 39 40  1  0  0  0
 40 41  1  0  0  0
 36 37  1  0  0  0
 29 30  1  0  0  0
 30 31  2  0  0  0
  2  3  1  0  0  0
  3  4  2  0  0  0
  4  5  1  0  0  0
  5  6  2  0  0  0
  6  7  1  0  0  0
  6  8  1  0  0  0
  8  9  2  0  0  0
  9 10  1  0  0  0
 10 11  1  0  0  0
 11 12  1  0  0  0
 19 14  1  0  0  0
 12  1  1  0  0  0
 31 26  1  0  0  0
  9  3  1  0  0  0
 37 33  1  0  0  0
  7 13  1  0  0  0
M  END
> <minimizedAffinity>
10.40760

> <CNNscore>
0.3797723353

> <CNNaffinity>
7.9872541428

> <CNN_VS>
3.0333380699

> <CNNaffinity_variance>
0.7341929674

$$$$
[H]Oc1c([H])c([H])c2c(c1[H])C([H])([H])C([H])([H])C([H])([H])C(c1c([H])c([H])c(OC([H])([H])[H])c([H])c1C(F)(F)F)=C2c1c([H])c([H])c(O[C@]2([H])C([H])([H])N(C([H])([H])C([H])([H])C([H])([H])F)C([H])([H])C2([H])[H])c([H])c1[H]


 41 45  0  0  0  0  0  0  0  0999 V2000
    9.5883   44.9223  132.4518 C   0  0  0  0  0  0  0  0  0  0  0  0
    9.2615   44.9442  131.1778 C   0  0  0  0  0  0  0  0  0  0  0  0
    9.6285   43.9461  130.1235 C   0  0  0  0  0  0  0  0  0  0  0  0
    8.9006   44.0383  128.9786 C   0  0  0  0  0  0  0  0  0  0  0  0
    9.0992   43.2016  127.8929 C   0  0  0  0  0  0  0  0  0  0  0  0
   10.0552   42.2268  127.9287 C   0  0  0  0  0  0  0  0  0  0  0  0
   10.2234   41.4120  126.8218 O   0  0  0  0  0  0  0  0  0  0  0  0
   10.8121   42.1091  129.0890 C   0  0  0  0  0  0  0  0  0  0  0  0
   10.5919   42.9592  130.1598 C   0  0  0  0  0  0  0  0  0  0  0  0
   11.5035   42.5581  131.2682 C   0  0  0  0  0  0  0  0  0  0  0  0
   10.6623   42.6473  132.5500 C   0  0  0  0  0  0  0  0  0  0  0  0
   10.6308   44.0535  133.0476 C   0  0  0  0  0  0  0  0  0  0  0  0
   10.8928   40.6698  126.7438 H   0  0  0  0  0  0  0  0  0  0  0  0
    7.9625   47.6784  135.1867 C   0  0  0  0  0  0  0  0  0  0  0  0
    7.3951   46.4343  135.0144 C   0  0  0  0  0  0  0  0  0  0  0  0
    7.9396   45.5813  134.0891 C   0  0  0  0  0  0  0  0  0  0  0  0
    9.0494   45.9288  133.3166 C   0  0  0  0  0  0  0  0  0  0  0  0
    9.6341   47.1595  133.4626 C   0  0  0  0  0  0  0  0  0  0  0  0
    9.0546   48.0121  134.4187 C   0  0  0  0  0  0  0  0  0  0  0  0
   10.7571   47.7204  132.7035 C   0  0  0  0  0  0  0  0  0  0  0  0
   10.4454   48.8356  131.9407 F   0  0  0  0  0  0  0  0  0  0  0  0
   11.7345   48.1493  133.5798 F   0  0  0  0  0  0  0  0  0  0  0  0
   11.4078   46.7952  131.8868 F   0  0  0  0  0  0  0  0  0  0  0  0
    7.0539   49.8638  135.7212 C   0  0  0  0  0  0  0  0  0  0  0  0
    7.4202   48.5560  136.1252 O   0  0  0  0  0  0  0  0  0  0  0  0
    8.3957   45.9712  130.6801 C   0  0  0  0  0  0  0  0  0  0  0  0
    6.9958   45.8779  130.8264 C   0  0  0  0  0  0  0  0  0  0  0  0
    6.1741   46.8608  130.3974 C   0  0  0  0  0  0  0  0  0  0  0  0
    6.6572   48.0265  129.7849 C   0  0  0  0  0  0  0  0  0  0  0  0
    8.0043   48.1245  129.6408 C   0  0  0  0  0  0  0  0  0  0  0  0
    8.8493   47.1098  130.0845 C   0  0  0  0  0  0  0  0  0  0  0  0
    5.7460   49.0002  129.3672 O   0  0  0  0  0  0  0  0  0  0  0  0
    5.8606   50.3411  129.6453 C   0  0  0  0  0  0  0  0  0  0  0  0
    7.0732   50.4951  130.5847 C   0  0  0  0  0  0  0  0  0  0  0  0
    7.4284   51.9507  130.3633 C   0  0  0  0  0  0  0  0  0  0  0  0
    6.7899   52.3633  129.1543 N   0  0  0  0  0  0  0  0  0  0  0  0
    6.3826   51.1525  128.4578 C   0  0  0  0  0  0  0  0  0  0  0  0
    7.5248   53.2811  128.3481 C   0  0  0  0  0  0  0  0  0  0  0  0
    7.1215   53.3180  126.9001 C   0  0  0  0  0  0  0  0  0  0  0  0
    7.8804   54.4918  126.2787 C   0  0  0  0  0  0  0  0  0  0  0  0
    8.2106   54.0907  125.0002 F   0  0  0  0  0  0  0  0  0  0  0  0
 24 25  1  0  0  0
 25 14  1  0  0  0
 14 15  2  0  0  0
 15 16  1  0  0  0
 16 17  2  0  0  0
 17 18  1  0  0  0
 18 19  2  0  0  0
 18 20  1  0  0  0
 20 21  1  0  0  0
 20 22  1  0  0  0
 20 23  1  0  0  0
 17  1  1  0  0  0
  1  2  2  0  0  0
  2 26  1  0  0  0
 26 27  2  0  0  0
 27 28  1  0  0  0
 28 29  2  0  0  0
 29 32  1  0  0  0
 32 33  1  0  0  0
 33 34  1  0  0  0
 34 35  1  0  0  0
 35 36  1  0  0  0
 36 38  1  0  0  0
 38 39  1  0  0  0
 39 40  1  0  0  0
 40 41  1  0  0  0
 36 37  1  0  0  0
 29 30  1  0  0  0
 30 31  2  0  0  0
  2  3  1  0  0  0
  3  4  2  0  0  0
  4  5  1  0  0  0
  5  6  2  0  0  0
  6  7  1  0  0  0
  6  8  1  0  0  0
  8  9  2  0  0  0
  9 10  1  0  0  0
 10 11  1  0  0  0
 11 12  1  0  0  0
 19 14  1  0  0  0
 12  1  1  0  0  0
 31 26  1  0  0  0
  9  3  1  0  0  0
 37 33  1  0  0  0
  7 13  1  0  0  0
M  END
> <minimizedAffinity>
11.08801

> <CNNscore>
0.3766781688

> <CNNaffinity>
8.0422658920

> <CNN_VS>
3.0293459892

> <CNNaffinity_variance>
0.8809903860

$$$$
[H]Oc1c([H])c([H])c2c(c1[H])C([H])([H])C([H])([H])C([H])([H])C(c1c([H])c([H])c(OC([H])([H])[H])c([H])c1C(F)(F)F)=C2c1c([H])c([H])c(O[C@]2([H])C([H])([H])N(C([H])([H])C([H])([H])C([H])([H])F)C([H])([H])C2([H])[H])c([H])c1[H]


 41 45  0  0  0  0  0  0  0  0999 V2000
   10.9359   45.4350  132.1105 C   0  0  0  0  0  0  0  0  0  0  0  0
   10.5551   45.5202  130.8543 C   0  0  0  0  0  0  0  0  0  0  0  0
   11.2115   44.9045  129.6573 C   0  0  0  0  0  0  0  0  0  0  0  0
   10.4403   44.8824  128.5375 C   0  0  0  0  0  0  0  0  0  0  0  0
   10.8785   44.3549  127.3342 C   0  0  0  0  0  0  0  0  0  0  0  0
   12.1310   43.8223  127.2204 C   0  0  0  0  0  0  0  0  0  0  0  0
   12.5317   43.3065  125.9994 O   0  0  0  0  0  0  0  0  0  0  0  0
   12.9395   43.8300  128.3515 C   0  0  0  0  0  0  0  0  0  0  0  0
   12.4754   44.3637  129.5421 C   0  0  0  0  0  0  0  0  0  0  0  0
   13.5306   44.1790  130.5780 C   0  0  0  0  0  0  0  0  0  0  0  0
   12.7896   43.7508  131.8532 C   0  0  0  0  0  0  0  0  0  0  0  0
   12.2596   44.9491  132.5669 C   0  0  0  0  0  0  0  0  0  0  0  0
   13.4255   42.8945  125.8085 H   0  0  0  0  0  0  0  0  0  0  0  0
    8.4838   47.3897  134.9186 C   0  0  0  0  0  0  0  0  0  0  0  0
    9.5048   48.0618  134.2820 C   0  0  0  0  0  0  0  0  0  0  0  0
   10.2983   47.3760  133.3986 C   0  0  0  0  0  0  0  0  0  0  0  0
   10.1070   46.0212  133.1208 C   0  0  0  0  0  0  0  0  0  0  0  0
    9.1023   45.3247  133.7399 C   0  0  0  0  0  0  0  0  0  0  0  0
    8.3051   46.0540  134.6396 C   0  0  0  0  0  0  0  0  0  0  0  0
    8.7903   43.8962  133.6228 C   0  0  0  0  0  0  0  0  0  0  0  0
    7.6438   43.4938  134.2909 F   0  0  0  0  0  0  0  0  0  0  0  0
    8.5590   43.5841  132.2975 F   0  0  0  0  0  0  0  0  0  0  0  0
    9.8377   43.0544  133.9977 F   0  0  0  0  0  0  0  0  0  0  0  0
    7.4811   49.4705  135.6615 C   0  0  0  0  0  0  0  0  0  0  0  0
    7.6677   48.0747  135.8185 O   0  0  0  0  0  0  0  0  0  0  0  0
    9.3409   46.2031  130.5207 C   0  0  0  0  0  0  0  0  0  0  0  0
    9.3629   47.5047  129.9774 C   0  0  0  0  0  0  0  0  0  0  0  0
    8.2252   48.1403  129.6211 C   0  0  0  0  0  0  0  0  0  0  0  0
    6.9608   47.5508  129.7675 C   0  0  0  0  0  0  0  0  0  0  0  0
    6.9309   46.2970  130.2894 C   0  0  0  0  0  0  0  0  0  0  0  0
    8.1056   45.6437  130.6555 C   0  0  0  0  0  0  0  0  0  0  0  0
    5.8283   48.2699  129.3764 O   0  0  0  0  0  0  0  0  0  0  0  0
    5.7345   49.6407  129.3946 C   0  0  0  0  0  0  0  0  0  0  0  0
    6.5635   50.1241  130.6011 C   0  0  0  0  0  0  0  0  0  0  0  0
    6.8474   51.5573  130.2023 C   0  0  0  0  0  0  0  0  0  0  0  0
    6.5990   51.6639  128.7999 N   0  0  0  0  0  0  0  0  0  0  0  0
    6.5403   50.3071  128.2776 C   0  0  0  0  0  0  0  0  0  0  0  0
    7.4742   52.5290  128.0802 C   0  0  0  0  0  0  0  0  0  0  0  0
    6.7881   53.5764  127.2477 C   0  0  0  0  0  0  0  0  0  0  0  0
    7.9011   54.3517  126.5408 C   0  0  0  0  0  0  0  0  0  0  0  0
    7.8761   53.9303  125.2269 F   0  0  0  0  0  0  0  0  0  0  0  0
 24 25  1  0  0  0
 25 14  1  0  0  0
 14 15  2  0  0  0
 15 16  1  0  0  0
 16 17  2  0  0  0
 17 18  1  0  0  0
 18 19  2  0  0  0
 18 20  1  0  0  0
 20 21  1  0  0  0
 20 22  1  0  0  0
 20 23  1  0  0  0
 17  1  1  0  0  0
  1  2  2  0  0  0
  2 26  1  0  0  0
 26 27  2  0  0  0
 27 28  1  0  0  0
 28 29  2  0  0  0
 29 32  1  0  0  0
 32 33  1  0  0  0
 33 34  1  0  0  0
 34 35  1  0  0  0
 35 36  1  0  0  0
 36 38  1  0  0  0
 38 39  1  0  0  0
 39 40  1  0  0  0
 40 41  1  0  0  0
 36 37  1  0  0  0
 29 30  1  0  0  0
 30 31  2  0  0  0
  2  3  1  0  0  0
  3  4  2  0  0  0
  4  5  1  0  0  0
  5  6  2  0  0  0
  6  7  1  0  0  0
  6  8  1  0  0  0
  8  9  2  0  0  0
  9 10  1  0  0  0
 10 11  1  0  0  0
 11 12  1  0  0  0
 19 14  1  0  0  0
 12  1  1  0  0  0
 31 26  1  0  0  0
  9  3  1  0  0  0
 37 33  1  0  0  0
  7 13  1  0  0  0
M  END
> <minimizedAffinity>
8.05489

> <CNNscore>
0.3743307889

> <CNNaffinity>
8.1514511108

> <CNN_VS>
3.0513391495

> <CNNaffinity_variance>
1.2359663248

$$$$
[H]Oc1c([H])c([H])c2c(c1[H])C([H])([H])C([H])([H])C([H])([H])C(c1c([H])c([H])c(OC([H])([H])[H])c([H])c1C(F)(F)F)=C2c1c([H])c([H])c(O[C@]2([H])C([H])([H])N(C([H])([H])C([H])([H])C([H])([H])F)C([H])([H])C2([H])[H])c([H])c1[H]


 41 45  0  0  0  0  0  0  0  0999 V2000
   10.5504   43.9489  132.0624 C   0  0  0  0  0  0  0  0  0  0  0  0
    9.7490   44.9023  132.4854 C   0  0  0  0  0  0  0  0  0  0  0  0
    9.7467   45.5645  133.8286 C   0  0  0  0  0  0  0  0  0  0  0  0
    9.0363   46.7224  133.8878 C   0  0  0  0  0  0  0  0  0  0  0  0
    8.9183   47.4728  135.0459 C   0  0  0  0  0  0  0  0  0  0  0  0
    9.5254   47.0723  136.2019 C   0  0  0  0  0  0  0  0  0  0  0  0
    9.3818   47.8498  137.3387 O   0  0  0  0  0  0  0  0  0  0  0  0
   10.2606   45.8927  136.1682 C   0  0  0  0  0  0  0  0  0  0  0  0
   10.3619   45.1622  134.9961 C   0  0  0  0  0  0  0  0  0  0  0  0
   11.2510   43.9937  135.2507 C   0  0  0  0  0  0  0  0  0  0  0  0
   12.1460   43.8750  134.0085 C   0  0  0  0  0  0  0  0  0  0  0  0
   11.4322   43.1320  132.9294 C   0  0  0  0  0  0  0  0  0  0  0  0
    9.7836   47.6478  138.2346 H   0  0  0  0  0  0  0  0  0  0  0  0
    9.9699   42.7334  128.0743 C   0  0  0  0  0  0  0  0  0  0  0  0
    9.0930   42.3493  129.0656 C   0  0  0  0  0  0  0  0  0  0  0  0
    9.3398   42.7424  130.3559 C   0  0  0  0  0  0  0  0  0  0  0  0
   10.4477   43.5193  130.6999 C   0  0  0  0  0  0  0  0  0  0  0  0
   11.3393   43.9145  129.7374 C   0  0  0  0  0  0  0  0  0  0  0  0
   11.0601   43.4970  128.4242 C   0  0  0  0  0  0  0  0  0  0  0  0
   12.5821   44.6731  129.9161 C   0  0  0  0  0  0  0  0  0  0  0  0
   13.6940   43.9049  130.2261 F   0  0  0  0  0  0  0  0  0  0  0  0
   12.9059   45.3084  128.7334 F   0  0  0  0  0  0  0  0  0  0  0  0
   12.4865   45.7069  130.8481 F   0  0  0  0  0  0  0  0  0  0  0  0
    8.8369   43.0994  125.9603 C   0  0  0  0  0  0  0  0  0  0  0  0
    9.7309   42.3421  126.7572 O   0  0  0  0  0  0  0  0  0  0  0  0
    8.7880   45.4765  131.5916 C   0  0  0  0  0  0  0  0  0  0  0  0
    9.1935   46.1425  130.4162 C   0  0  0  0  0  0  0  0  0  0  0  0
    8.2932   46.6508  129.5464 C   0  0  0  0  0  0  0  0  0  0  0  0
    6.9100   46.5488  129.7555 C   0  0  0  0  0  0  0  0  0  0  0  0
    6.5111   45.9082  130.8849 C   0  0  0  0  0  0  0  0  0  0  0  0
    7.4415   45.3846  131.7798 C   0  0  0  0  0  0  0  0  0  0  0  0
    6.0393   47.0990  128.8111 O   0  0  0  0  0  0  0  0  0  0  0  0
    5.8778   48.4467  128.5964 C   0  0  0  0  0  0  0  0  0  0  0  0
    4.9617   48.9665  129.7221 C   0  0  0  0  0  0  0  0  0  0  0  0
    5.3088   50.4407  129.7210 C   0  0  0  0  0  0  0  0  0  0  0  0
    6.5453   50.5841  129.0208 N   0  0  0  0  0  0  0  0  0  0  0  0
    7.1333   49.2565  128.9267 C   0  0  0  0  0  0  0  0  0  0  0  0
    7.4311   51.5801  129.5264 C   0  0  0  0  0  0  0  0  0  0  0  0
    7.9733   51.3079  130.9021 C   0  0  0  0  0  0  0  0  0  0  0  0
    8.8851   50.0875  130.7644 C   0  0  0  0  0  0  0  0  0  0  0  0
    8.4633   49.1932  131.7271 F   0  0  0  0  0  0  0  0  0  0  0  0
 24 25  1  0  0  0
 25 14  1  0  0  0
 14 15  2  0  0  0
 15 16  1  0  0  0
 16 17  2  0  0  0
 17 18  1  0  0  0
 18 19  2  0  0  0
 18 20  1  0  0  0
 20 21  1  0  0  0
 20 22  1  0  0  0
 20 23  1  0  0  0
 17  1  1  0  0  0
  1  2  2  0  0  0
  2 26  1  0  0  0
 26 27  2  0  0  0
 27 28  1  0  0  0
 28 29  2  0  0  0
 29 32  1  0  0  0
 32 33  1  0  0  0
 33 34  1  0  0  0
 34 35  1  0  0  0
 35 36  1  0  0  0
 36 38  1  0  0  0
 38 39  1  0  0  0
 39 40  1  0  0  0
 40 41  1  0  0  0
 36 37  1  0  0  0
 29 30  1  0  0  0
 30 31  2  0  0  0
  2  3  1  0  0  0
  3  4  2  0  0  0
  4  5  1  0  0  0
  5  6  2  0  0  0
  6  7  1  0  0  0
  6  8  1  0  0  0
  8  9  2  0  0  0
  9 10  1  0  0  0
 10 11  1  0  0  0
 11 12  1  0  0  0
 19 14  1  0  0  0
 12  1  1  0  0  0
 31 26  1  0  0  0
  9  3  1  0  0  0
 37 33  1  0  0  0
  7 13  1  0  0  0
M  END
> <minimizedAffinity>
5.53860

> <CNNscore>
0.3479098976

> <CNNaffinity>
8.1381616592

> <CNN_VS>
2.8313469887

> <CNNaffinity_variance>
0.3591502309

$$$$
[H]Oc1c([H])c([H])c2c(c1[H])C([H])([H])C([H])([H])C([H])([H])C(c1c([H])c([H])c(OC([H])([H])[H])c([H])c1C(F)(F)F)=C2c1c([H])c([H])c(O[C@]2([H])C([H])([H])N(C([H])([H])C([H])([H])C([H])([H])F)C([H])([H])C2([H])[H])c([H])c1[H]


 41 45  0  0  0  0  0  0  0  0999 V2000
   10.5496   45.5814  132.1372 C   0  0  0  0  0  0  0  0  0  0  0  0
   10.2807   45.6163  130.8500 C   0  0  0  0  0  0  0  0  0  0  0  0
   11.0140   44.9213  129.7447 C   0  0  0  0  0  0  0  0  0  0  0  0
   10.3410   44.8684  128.5643 C   0  0  0  0  0  0  0  0  0  0  0  0
   10.8608   44.2682  127.4295 C   0  0  0  0  0  0  0  0  0  0  0  0
   12.0983   43.6906  127.4501 C   0  0  0  0  0  0  0  0  0  0  0  0
   12.5827   43.1022  126.2941 O   0  0  0  0  0  0  0  0  0  0  0  0
   12.8070   43.7283  128.6457 C   0  0  0  0  0  0  0  0  0  0  0  0
   12.2627   44.3350  129.7652 C   0  0  0  0  0  0  0  0  0  0  0  0
   13.2182   44.1680  130.8966 C   0  0  0  0  0  0  0  0  0  0  0  0
   12.3559   43.8277  132.1209 C   0  0  0  0  0  0  0  0  0  0  0  0
   11.8109   45.0763  132.7292 C   0  0  0  0  0  0  0  0  0  0  0  0
   13.4740   42.6527  126.2010 H   0  0  0  0  0  0  0  0  0  0  0  0
    7.9844   47.3204  134.9859 C   0  0  0  0  0  0  0  0  0  0  0  0
    7.9878   45.9584  134.7751 C   0  0  0  0  0  0  0  0  0  0  0  0
    8.8173   45.4398  133.8142 C   0  0  0  0  0  0  0  0  0  0  0  0
    9.6593   46.2433  133.0431 C   0  0  0  0  0  0  0  0  0  0  0  0
    9.6765   47.6011  133.2269 C   0  0  0  0  0  0  0  0  0  0  0  0
    8.8163   48.1038  134.2189 C   0  0  0  0  0  0  0  0  0  0  0  0
   10.4413   48.6033  132.4767 C   0  0  0  0  0  0  0  0  0  0  0  0
    9.7018   49.3321  131.5576 F   0  0  0  0  0  0  0  0  0  0  0  0
   10.9485   49.5432  133.3521 F   0  0  0  0  0  0  0  0  0  0  0  0
   11.5665   48.0909  131.8304 F   0  0  0  0  0  0  0  0  0  0  0  0
    7.6152   48.9351  136.7588 C   0  0  0  0  0  0  0  0  0  0  0  0
    7.1470   47.8618  135.9609 O   0  0  0  0  0  0  0  0  0  0  0  0
    9.1250   46.3206  130.3806 C   0  0  0  0  0  0  0  0  0  0  0  0
    7.8273   45.9397  130.7813 C   0  0  0  0  0  0  0  0  0  0  0  0
    6.7344   46.6234  130.3770 C   0  0  0  0  0  0  0  0  0  0  0  0
    6.8206   47.7461  129.5405 C   0  0  0  0  0  0  0  0  0  0  0  0
    8.0669   48.1199  129.1505 C   0  0  0  0  0  0  0  0  0  0  0  0
    9.1921   47.4135  129.5693 C   0  0  0  0  0  0  0  0  0  0  0  0
    5.6458   48.4026  129.1641 O   0  0  0  0  0  0  0  0  0  0  0  0
    5.4763   49.7661  129.1890 C   0  0  0  0  0  0  0  0  0  0  0  0
    6.0009   50.2514  130.5550 C   0  0  0  0  0  0  0  0  0  0  0  0
    6.2856   51.7084  130.2553 C   0  0  0  0  0  0  0  0  0  0  0  0
    6.3374   51.8463  128.8347 N   0  0  0  0  0  0  0  0  0  0  0  0
    6.4651   50.5052  128.2850 C   0  0  0  0  0  0  0  0  0  0  0  0
    7.2982   52.7748  128.3375 C   0  0  0  0  0  0  0  0  0  0  0  0
    7.0732   53.2229  126.9201 C   0  0  0  0  0  0  0  0  0  0  0  0
    7.7367   54.5959  126.7995 C   0  0  0  0  0  0  0  0  0  0  0  0
    8.5738   54.5136  125.7055 F   0  0  0  0  0  0  0  0  0  0  0  0
 24 25  1  0  0  0
 25 14  1  0  0  0
 14 15  2  0  0  0
 15 16  1  0  0  0
 16 17  2  0  0  0
 17 18  1  0  0  0
 18 19  2  0  0  0
 18 20  1  0  0  0
 20 21  1  0  0  0
 20 22  1  0  0  0
 20 23  1  0  0  0
 17  1  1  0  0  0
  1  2  2  0  0  0
  2 26  1  0  0  0
 26 27  2  0  0  0
 27 28  1  0  0  0
 28 29  2  0  0  0
 29 32  1  0  0  0
 32 33  1  0  0  0
 33 34  1  0  0  0
 34 35  1  0  0  0
 35 36  1  0  0  0
 36 38  1  0  0  0
 38 39  1  0  0  0
 39 40  1  0  0  0
 40 41  1  0  0  0
 36 37  1  0  0  0
 29 30  1  0  0  0
 30 31  2  0  0  0
  2  3  1  0  0  0
  3  4  2  0  0  0
  4  5  1  0  0  0
  5  6  2  0  0  0
  6  7  1  0  0  0
  6  8  1  0  0  0
  8  9  2  0  0  0
  9 10  1  0  0  0
 10 11  1  0  0  0
 11 12  1  0  0  0
 19 14  1  0  0  0
 12  1  1  0  0  0
 31 26  1  0  0  0
  9  3  1  0  0  0
 37 33  1  0  0  0
  7 13  1  0  0  0
M  END
> <minimizedAffinity>
8.85975

> <CNNscore>
0.3466823697

> <CNNaffinity>
7.9362688065

> <CNN_VS>
2.7513644695

> <CNNaffinity_variance>
0.9140040278

$$$$
[H]Oc1c([H])c([H])c2c(c1[H])C([H])([H])C([H])([H])C([H])([H])C(c1c([H])c([H])c(OC([H])([H])[H])c([H])c1C(F)(F)F)=C2c1c([H])c([H])c(O[C@]2([H])C([H])([H])N(C([H])([H])C([H])([H])C([H])([H])F)C([H])([H])C2([H])[H])c([H])c1[H]


 41 45  0  0  0  0  0  0  0  0999 V2000
   10.0642   43.3936  132.0099 C   0  0  0  0  0  0  0  0  0  0  0  0
    9.1751   44.2673  132.4300 C   0  0  0  0  0  0  0  0  0  0  0  0
    8.0625   44.0407  133.4064 C   0  0  0  0  0  0  0  0  0  0  0  0
    7.5022   45.1771  133.9001 C   0  0  0  0  0  0  0  0  0  0  0  0
    6.4597   45.1657  134.8119 C   0  0  0  0  0  0  0  0  0  0  0  0
    5.9405   43.9860  135.2637 C   0  0  0  0  0  0  0  0  0  0  0  0
    4.8975   44.0176  136.1738 O   0  0  0  0  0  0  0  0  0  0  0  0
    6.4971   42.8087  134.7766 C   0  0  0  0  0  0  0  0  0  0  0  0
    7.5393   42.8496  133.8656 C   0  0  0  0  0  0  0  0  0  0  0  0
    7.9600   41.4497  133.5758 C   0  0  0  0  0  0  0  0  0  0  0  0
    9.4950   41.4769  133.5399 C   0  0  0  0  0  0  0  0  0  0  0  0
    9.9703   41.9267  132.1991 C   0  0  0  0  0  0  0  0  0  0  0  0
    4.4457   43.2136  136.5671 H   0  0  0  0  0  0  0  0  0  0  0  0
   13.3260   44.5729  129.6248 C   0  0  0  0  0  0  0  0  0  0  0  0
   13.4180   44.5747  130.9999 C   0  0  0  0  0  0  0  0  0  0  0  0
   12.3195   44.2135  131.7369 C   0  0  0  0  0  0  0  0  0  0  0  0
   11.1118   43.8425  131.1426 C   0  0  0  0  0  0  0  0  0  0  0  0
   10.9881   43.8335  129.7779 C   0  0  0  0  0  0  0  0  0  0  0  0
   12.1306   44.2080  129.0490 C   0  0  0  0  0  0  0  0  0  0  0  0
    9.7919   43.5356  128.9826 C   0  0  0  0  0  0  0  0  0  0  0  0
    8.8191   42.8031  129.6458 F   0  0  0  0  0  0  0  0  0  0  0  0
    9.1700   44.7169  128.6292 F   0  0  0  0  0  0  0  0  0  0  0  0
   10.0618   42.9100  127.7652 F   0  0  0  0  0  0  0  0  0  0  0  0
   15.4213   43.9633  128.5641 C   0  0  0  0  0  0  0  0  0  0  0  0
   14.4357   44.9366  128.8623 O   0  0  0  0  0  0  0  0  0  0  0  0
    9.2596   45.6329  132.0054 C   0  0  0  0  0  0  0  0  0  0  0  0
   10.1656   46.5290  132.6102 C   0  0  0  0  0  0  0  0  0  0  0  0
   10.2817   47.8074  132.1887 C   0  0  0  0  0  0  0  0  0  0  0  0
    9.5154   48.3196  131.1314 C   0  0  0  0  0  0  0  0  0  0  0  0
    8.6409   47.4628  130.5430 C   0  0  0  0  0  0  0  0  0  0  0  0
    8.5235   46.1451  130.9793 C   0  0  0  0  0  0  0  0  0  0  0  0
    9.6910   49.6527  130.7508 O   0  0  0  0  0  0  0  0  0  0  0  0
    8.6996   50.4479  130.2278 C   0  0  0  0  0  0  0  0  0  0  0  0
    8.5247   50.0247  128.7558 C   0  0  0  0  0  0  0  0  0  0  0  0
    7.1206   50.5191  128.4769 C   0  0  0  0  0  0  0  0  0  0  0  0
    6.4940   50.7493  129.7395 N   0  0  0  0  0  0  0  0  0  0  0  0
    7.3069   50.0782  130.7425 C   0  0  0  0  0  0  0  0  0  0  0  0
    5.1053   50.4346  129.8079 C   0  0  0  0  0  0  0  0  0  0  0  0
    4.7925   48.9711  129.9529 C   0  0  0  0  0  0  0  0  0  0  0  0
    5.4211   48.2814  128.7409 C   0  0  0  0  0  0  0  0  0  0  0  0
    5.5949   46.9624  129.1076 F   0  0  0  0  0  0  0  0  0  0  0  0
 24 25  1  0  0  0
 25 14  1  0  0  0
 14 15  2  0  0  0
 15 16  1  0  0  0
 16 17  2  0  0  0
 17 18  1  0  0  0
 18 19  2  0  0  0
 18 20  1  0  0  0
 20 21  1  0  0  0
 20 22  1  0  0  0
 20 23  1  0  0  0
 17  1  1  0  0  0
  1  2  2  0  0  0
  2 26  1  0  0  0
 26 27  2  0  0  0
 27 28  1  0  0  0
 28 29  2  0  0  0
 29 32  1  0  0  0
 32 33  1  0  0  0
 33 34  1  0  0  0
 34 35  1  0  0  0
 35 36  1  0  0  0
 36 38  1  0  0  0
 38 39  1  0  0  0
 39 40  1  0  0  0
 40 41  1  0  0  0
 36 37  1  0  0  0
 29 30  1  0  0  0
 30 31  2  0  0  0
  2  3  1  0  0  0
  3  4  2  0  0  0
  4  5  1  0  0  0
  5  6  2  0  0  0
  6  7  1  0  0  0
  6  8  1  0  0  0
  8  9  2  0  0  0
  9 10  1  0  0  0
 10 11  1  0  0  0
 11 12  1  0  0  0
 19 14  1  0  0  0
 12  1  1  0  0  0
 31 26  1  0  0  0
  9  3  1  0  0  0
 37 33  1  0  0  0
  7 13  1  0  0  0
M  END
> <minimizedAffinity>
17.67882

> <CNNscore>
0.3463389874

> <CNNaffinity>
8.0706100464

> <CNN_VS>
2.7951669693

> <CNNaffinity_variance>
0.4447920322

$$$$
[H]Oc1c([H])c([H])c2c(c1[H])O[C@@]([H])(c1c([H])c([H])c(OC([H])([H])C([H])([H])N3C([H])([H])C([H])([H])C([H])([H])C([H])([H])C3([H])[H])c([H])c1[H])C1=C2C([H])([H])Oc2c([H])c(O[H])c([H])c([H])c21


 37 42  0  0  0  0  0  0  0  0999 V2000
   12.5419   42.7821  126.2373 O   0  0  0  0  0  0  0  0  0  0  0  0
   11.9827   43.3524  127.3813 C   0  0  0  0  0  0  0  0  0  0  0  0
   10.6382   43.6426  127.4693 C   0  0  0  0  0  0  0  0  0  0  0  0
   10.1104   44.2060  128.6113 C   0  0  0  0  0  0  0  0  0  0  0  0
   10.8908   44.5128  129.7305 C   0  0  0  0  0  0  0  0  0  0  0  0
   10.3131   45.0928  130.9363 C   0  0  0  0  0  0  0  0  0  0  0  0
   11.1197   45.3402  131.9713 C   0  0  0  0  0  0  0  0  0  0  0  0
   12.5917   45.0537  131.9346 C   0  0  0  0  0  0  0  0  0  0  0  0
   13.0244   44.5104  130.7195 O   0  0  0  0  0  0  0  0  0  0  0  0
   12.2311   44.2185  129.6306 C   0  0  0  0  0  0  0  0  0  0  0  0
   12.7685   43.6470  128.4733 C   0  0  0  0  0  0  0  0  0  0  0  0
   10.5717   45.8235  133.2316 C   0  0  0  0  0  0  0  0  0  0  0  0
   11.4107   46.1362  134.3055 C   0  0  0  0  0  0  0  0  0  0  0  0
   10.8537   46.6311  135.4598 C   0  0  0  0  0  0  0  0  0  0  0  0
    9.4971   46.8321  135.6017 C   0  0  0  0  0  0  0  0  0  0  0  0
    8.9482   47.3410  136.7932 O   0  0  0  0  0  0  0  0  0  0  0  0
    8.6690   46.5238  134.5447 C   0  0  0  0  0  0  0  0  0  0  0  0
    9.2231   46.0150  133.3550 C   0  0  0  0  0  0  0  0  0  0  0  0
    8.3997   45.6954  132.2898 O   0  0  0  0  0  0  0  0  0  0  0  0
    8.8814   45.4479  130.9717 C   0  0  0  0  0  0  0  0  0  0  0  0
   12.6053   41.7704  126.1224 H   0  0  0  0  0  0  0  0  0  0  0  0
    8.6636   46.6945  137.5275 H   0  0  0  0  0  0  0  0  0  0  0  0
    8.5774   46.6985  130.2188 C   0  0  0  0  0  0  0  0  0  0  0  0
    8.9985   47.8882  130.7594 C   0  0  0  0  0  0  0  0  0  0  0  0
    8.7639   49.0562  130.1042 C   0  0  0  0  0  0  0  0  0  0  0  0
    8.0945   49.1334  128.8645 C   0  0  0  0  0  0  0  0  0  0  0  0
    7.6867   47.9287  128.3520 C   0  0  0  0  0  0  0  0  0  0  0  0
    7.9246   46.7157  129.0208 C   0  0  0  0  0  0  0  0  0  0  0  0
    7.9138   50.3569  128.3027 O   0  0  0  0  0  0  0  0  0  0  0  0
    7.1979   51.4653  128.6613 C   0  0  0  0  0  0  0  0  0  0  0  0
    6.7319   51.5562  130.0697 C   0  0  0  0  0  0  0  0  0  0  0  0
    5.4129   50.9260  130.1617 N   0  0  0  0  0  0  0  0  0  0  0  0
    5.3809   49.9170  131.1804 C   0  0  0  0  0  0  0  0  0  0  0  0
    5.6682   48.5303  130.6351 C   0  0  0  0  0  0  0  0  0  0  0  0
    4.6811   48.1035  129.5880 C   0  0  0  0  0  0  0  0  0  0  0  0
    3.9601   49.3086  129.0508 C   0  0  0  0  0  0  0  0  0  0  0  0
    4.9522   50.4522  128.8929 C   0  0  0  0  0  0  0  0  0  0  0  0
  1  2  1  0  0  0
  2  3  2  0  0  0
  3  4  1  0  0  0
  4  5  2  0  0  0
  5  6  1  0  0  0
  6  7  2  0  0  0
  7  8  1  0  0  0
  8  9  1  0  0  0
  9 10  1  0  0  0
 10 11  2  0  0  0
  7 12  1  0  0  0
 12 13  2  0  0  0
 13 14  1  0  0  0
 14 15  2  0  0  0
 15 16  1  0  0  0
 15 17  1  0  0  0
 17 18  2  0  0  0
 18 19  1  0  0  0
 19 20  1  0  0  0
 20 23  1  0  0  0
 23 24  2  0  0  0
 24 25  1  0  0  0
 25 26  2  0  0  0
 26 29  1  0  0  0
 29 30  1  0  0  0
 30 31  1  0  0  0
 31 32  1  0  0  0
 32 33  1  0  0  0
 33 34  1  0  0  0
 34 35  1  0  0  0
 35 36  1  0  0  0
 36 37  1  0  0  0
 26 27  1  0  0  0
 27 28  2  0  0  0
 11  2  1  0  0  0
 18 12  1  0  0  0
 28 23  1  0  0  0
 10  5  1  0  0  0
 37 32  1  0  0  0
 20  6  1  0  0  0
  1 21  1  0  0  0
 16 22  1  0  0  0
M  END
> <minimizedAffinity>
17.11510

> <CNNscore>
0.4045693576

> <CNNaffinity>
7.5960693359

> <CNN_VS>
3.0731368065

> <CNNaffinity_variance>
1.5621510744

$$$$
[H]Oc1c([H])c([H])c2c(c1[H])O[C@@]([H])(c1c([H])c([H])c(OC([H])([H])C([H])([H])N3C([H])([H])C([H])([H])C([H])([H])C([H])([H])C3([H])[H])c([H])c1[H])C1=C2C([H])([H])Oc2c([H])c(O[H])c([H])c([H])c21


 37 42  0  0  0  0  0  0  0  0999 V2000
    6.6800   51.8480  128.5797 O   0  0  0  0  0  0  0  0  0  0  0  0
    7.3780   50.8986  129.3267 C   0  0  0  0  0  0  0  0  0  0  0  0
    8.5355   50.3119  128.8623 C   0  0  0  0  0  0  0  0  0  0  0  0
    9.2065   49.3764  129.6203 C   0  0  0  0  0  0  0  0  0  0  0  0
    8.7636   48.9715  130.8835 C   0  0  0  0  0  0  0  0  0  0  0  0
    9.4950   47.9932  131.6786 C   0  0  0  0  0  0  0  0  0  0  0  0
    9.0193   47.6713  132.8840 C   0  0  0  0  0  0  0  0  0  0  0  0
    7.7617   48.2690  133.4421 C   0  0  0  0  0  0  0  0  0  0  0  0
    7.1476   49.1837  132.5787 O   0  0  0  0  0  0  0  0  0  0  0  0
    7.6074   49.5641  131.3361 C   0  0  0  0  0  0  0  0  0  0  0  0
    6.9252   50.5133  130.5690 C   0  0  0  0  0  0  0  0  0  0  0  0
    9.7691   46.7768  133.7558 C   0  0  0  0  0  0  0  0  0  0  0  0
    9.2573   46.3905  134.9982 C   0  0  0  0  0  0  0  0  0  0  0  0
    9.9786   45.5100  135.7677 C   0  0  0  0  0  0  0  0  0  0  0  0
   11.1900   44.9911  135.3625 C   0  0  0  0  0  0  0  0  0  0  0  0
   11.9116   44.0897  136.1668 O   0  0  0  0  0  0  0  0  0  0  0  0
   11.6960   45.3714  134.1389 C   0  0  0  0  0  0  0  0  0  0  0  0
   10.9703   46.2733  133.3381 C   0  0  0  0  0  0  0  0  0  0  0  0
   11.4727   46.6672  132.1106 O   0  0  0  0  0  0  0  0  0  0  0  0
   10.6958   47.3399  131.1233 C   0  0  0  0  0  0  0  0  0  0  0  0
    6.8820   52.8447  128.6617 H   0  0  0  0  0  0  0  0  0  0  0  0
   12.5881   44.4510  136.8376 H   0  0  0  0  0  0  0  0  0  0  0  0
   10.3687   46.2866  130.1198 C   0  0  0  0  0  0  0  0  0  0  0  0
   11.3933   45.4893  129.6733 C   0  0  0  0  0  0  0  0  0  0  0  0
   11.1459   44.5013  128.7725 C   0  0  0  0  0  0  0  0  0  0  0  0
    9.8652   44.2291  128.2465 C   0  0  0  0  0  0  0  0  0  0  0  0
    8.8645   45.0429  128.7119 C   0  0  0  0  0  0  0  0  0  0  0  0
    9.1093   46.0665  129.6433 C   0  0  0  0  0  0  0  0  0  0  0  0
    9.7367   43.2173  127.3492 O   0  0  0  0  0  0  0  0  0  0  0  0
    9.6449   41.8579  127.4641 C   0  0  0  0  0  0  0  0  0  0  0  0
    9.6589   41.2818  128.8341 C   0  0  0  0  0  0  0  0  0  0  0  0
    9.5738   42.3809  129.7986 N   0  0  0  0  0  0  0  0  0  0  0  0
   10.7936   42.5286  130.5382 C   0  0  0  0  0  0  0  0  0  0  0  0
   10.7702   41.7756  131.8555 C   0  0  0  0  0  0  0  0  0  0  0  0
    9.6676   42.2336  132.7652 C   0  0  0  0  0  0  0  0  0  0  0  0
    8.6327   42.9803  131.9701 C   0  0  0  0  0  0  0  0  0  0  0  0
    8.4216   42.2721  130.6394 C   0  0  0  0  0  0  0  0  0  0  0  0
  1  2  1  0  0  0
  2  3  2  0  0  0
  3  4  1  0  0  0
  4  5  2  0  0  0
  5  6  1  0  0  0
  6  7  2  0  0  0
  7  8  1  0  0  0
  8  9  1  0  0  0
  9 10  1  0  0  0
 10 11  2  0  0  0
  7 12  1  0  0  0
 12 13  2  0  0  0
 13 14  1  0  0  0
 14 15  2  0  0  0
 15 16  1  0  0  0
 15 17  1  0  0  0
 17 18  2  0  0  0
 18 19  1  0  0  0
 19 20  1  0  0  0
 20 23  1  0  0  0
 23 24  2  0  0  0
 24 25  1  0  0  0
 25 26  2  0  0  0
 26 29  1  0  0  0
 29 30  1  0  0  0
 30 31  1  0  0  0
 31 32  1  0  0  0
 32 33  1  0  0  0
 33 34  1  0  0  0
 34 35  1  0  0  0
 35 36  1  0  0  0
 36 37  1  0  0  0
 26 27  1  0  0  0
 27 28  2  0  0  0
 11  2  1  0  0  0
 18 12  1  0  0  0
 28 23  1  0  0  0
 10  5  1  0  0  0
 37 32  1  0  0  0
 20  6  1  0  0  0
  1 21  1  0  0  0
 16 22  1  0  0  0
M  END
> <minimizedAffinity>
8.19832

> <CNNscore>
0.3957922459

> <CNNaffinity>
7.6592779160

> <CNN_VS>
3.0314826965

> <CNNaffinity_variance>
0.6116831899

$$$$
[H]Oc1c([H])c([H])c2c(c1[H])O[C@@]([H])(c1c([H])c([H])c(OC([H])([H])C([H])([H])N3C([H])([H])C([H])([H])C([H])([H])C([H])([H])C3([H])[H])c([H])c1[H])C1=C2C([H])([H])Oc2c([H])c(O[H])c([H])c([H])c21


 37 42  0  0  0  0  0  0  0  0999 V2000
    9.3858   42.5889  127.9253 O   0  0  0  0  0  0  0  0  0  0  0  0
    9.7371   43.4066  128.9998 C   0  0  0  0  0  0  0  0  0  0  0  0
    8.8053   44.1663  129.6739 C   0  0  0  0  0  0  0  0  0  0  0  0
    9.1785   44.9661  130.7327 C   0  0  0  0  0  0  0  0  0  0  0  0
   10.5003   45.0554  131.1808 C   0  0  0  0  0  0  0  0  0  0  0  0
   10.8744   45.8934  132.3130 C   0  0  0  0  0  0  0  0  0  0  0  0
   12.1540   45.9117  132.6940 C   0  0  0  0  0  0  0  0  0  0  0  0
   13.2158   45.1136  131.9970 C   0  0  0  0  0  0  0  0  0  0  0  0
   12.7320   44.3611  130.9205 O   0  0  0  0  0  0  0  0  0  0  0  0
   11.4210   44.2926  130.5001 C   0  0  0  0  0  0  0  0  0  0  0  0
   11.0447   43.4805  129.4259 C   0  0  0  0  0  0  0  0  0  0  0  0
   12.5572   46.6532  133.8814 C   0  0  0  0  0  0  0  0  0  0  0  0
   13.9010   46.7236  134.2610 C   0  0  0  0  0  0  0  0  0  0  0  0
   14.2405   47.4712  135.3626 C   0  0  0  0  0  0  0  0  0  0  0  0
   13.3065   48.1562  136.1104 C   0  0  0  0  0  0  0  0  0  0  0  0
   13.6769   48.9167  137.2349 O   0  0  0  0  0  0  0  0  0  0  0  0
   11.9819   48.0873  135.7381 C   0  0  0  0  0  0  0  0  0  0  0  0
   11.6166   47.3252  134.6124 C   0  0  0  0  0  0  0  0  0  0  0  0
   10.2883   47.2435  134.2339 O   0  0  0  0  0  0  0  0  0  0  0  0
    9.8612   46.7408  132.9707 C   0  0  0  0  0  0  0  0  0  0  0  0
    9.1101   41.6163  128.0632 H   0  0  0  0  0  0  0  0  0  0  0  0
   13.6998   48.4730  138.1519 H   0  0  0  0  0  0  0  0  0  0  0  0
    9.5213   47.9565  132.1771 C   0  0  0  0  0  0  0  0  0  0  0  0
    8.4999   48.7525  132.6334 C   0  0  0  0  0  0  0  0  0  0  0  0
    8.1622   49.8829  131.9577 C   0  0  0  0  0  0  0  0  0  0  0  0
    8.8107   50.3098  130.7795 C   0  0  0  0  0  0  0  0  0  0  0  0
    9.8252   49.4933  130.3502 C   0  0  0  0  0  0  0  0  0  0  0  0
   10.1827   48.3230  131.0414 C   0  0  0  0  0  0  0  0  0  0  0  0
    8.3862   51.4562  130.1871 O   0  0  0  0  0  0  0  0  0  0  0  0
    7.1851   51.8701  129.6814 C   0  0  0  0  0  0  0  0  0  0  0  0
    6.4354   50.9160  128.8232 C   0  0  0  0  0  0  0  0  0  0  0  0
    6.1902   49.6951  129.5945 N   0  0  0  0  0  0  0  0  0  0  0  0
    7.1538   48.6774  129.2905 C   0  0  0  0  0  0  0  0  0  0  0  0
    6.6744   47.7264  128.2095 C   0  0  0  0  0  0  0  0  0  0  0  0
    5.4100   47.0106  128.5866 C   0  0  0  0  0  0  0  0  0  0  0  0
    4.7309   47.7413  129.7115 C   0  0  0  0  0  0  0  0  0  0  0  0
    4.8398   49.2400  129.4684 C   0  0  0  0  0  0  0  0  0  0  0  0
  1  2  1  0  0  0
  2  3  2  0  0  0
  3  4  1  0  0  0
  4  5  2  0  0  0
  5  6  1  0  0  0
  6  7  2  0  0  0
  7  8  1  0  0  0
  8  9  1  0  0  0
  9 10  1  0  0  0
 10 11  2  0  0  0
  7 12  1  0  0  0
 12 13  2  0  0  0
 13 14  1  0  0  0
 14 15  2  0  0  0
 15 16  1  0  0  0
 15 17  1  0  0  0
 17 18  2  0  0  0
 18 19  1  0  0  0
 19 20  1  0  0  0
 20 23  1  0  0  0
 23 24  2  0  0  0
 24 25  1  0  0  0
 25 26  2  0  0  0
 26 29  1  0  0  0
 29 30  1  0  0  0
 30 31  1  0  0  0
 31 32  1  0  0  0
 32 33  1  0  0  0
 33 34  1  0  0  0
 34 35  1  0  0  0
 35 36  1  0  0  0
 36 37  1  0  0  0
 26 27  1  0  0  0
 27 28  2  0  0  0
 11  2  1  0  0  0
 18 12  1  0  0  0
 28 23  1  0  0  0
 10  5  1  0  0  0
 37 32  1  0  0  0
 20  6  1  0  0  0
  1 21  1  0  0  0
 16 22  1  0  0  0
M  END
> <minimizedAffinity>
12.65916

> <CNNscore>
0.3832252324

> <CNNaffinity>
7.5553636551

> <CNN_VS>
2.8954060078

> <CNNaffinity_variance>
0.6362894177

$$$$
[H]Oc1c([H])c([H])c2c(c1[H])O[C@@]([H])(c1c([H])c([H])c(OC([H])([H])C([H])([H])N3C([H])([H])C([H])([H])C([H])([H])C([H])([H])C3([H])[H])c([H])c1[H])C1=C2C([H])([H])Oc2c([H])c(O[H])c([H])c([H])c21


 37 42  0  0  0  0  0  0  0  0999 V2000
    7.7002   50.7497  135.9736 O   0  0  0  0  0  0  0  0  0  0  0  0
    8.2458   49.6295  135.3460 C   0  0  0  0  0  0  0  0  0  0  0  0
    9.2196   49.7380  134.3766 C   0  0  0  0  0  0  0  0  0  0  0  0
    9.7424   48.6152  133.7718 C   0  0  0  0  0  0  0  0  0  0  0  0
    9.3258   47.3204  134.0971 C   0  0  0  0  0  0  0  0  0  0  0  0
    9.9018   46.1433  133.4594 C   0  0  0  0  0  0  0  0  0  0  0  0
    9.4655   44.9391  133.8370 C   0  0  0  0  0  0  0  0  0  0  0  0
    8.4035   44.7554  134.8804 C   0  0  0  0  0  0  0  0  0  0  0  0
    7.9238   45.9604  135.4066 O   0  0  0  0  0  0  0  0  0  0  0  0
    8.3535   47.2251  135.0659 C   0  0  0  0  0  0  0  0  0  0  0  0
    7.8218   48.3626  135.6808 C   0  0  0  0  0  0  0  0  0  0  0  0
   10.0826   43.7325  133.3026 C   0  0  0  0  0  0  0  0  0  0  0  0
    9.6008   42.4666  133.6494 C   0  0  0  0  0  0  0  0  0  0  0  0
   10.1849   41.3578  133.0863 C   0  0  0  0  0  0  0  0  0  0  0  0
   11.2297   41.4440  132.1909 C   0  0  0  0  0  0  0  0  0  0  0  0
   11.8125   40.2946  131.6257 O   0  0  0  0  0  0  0  0  0  0  0  0
   11.7060   42.6905  131.8488 C   0  0  0  0  0  0  0  0  0  0  0  0
   11.1195   43.8371  132.4169 C   0  0  0  0  0  0  0  0  0  0  0  0
   11.5949   45.0936  132.0855 O   0  0  0  0  0  0  0  0  0  0  0  0
   10.8972   46.3003  132.3816 C   0  0  0  0  0  0  0  0  0  0  0  0
    8.1070   51.1339  136.8267 H   0  0  0  0  0  0  0  0  0  0  0  0
   12.5986   39.8502  132.0978 H   0  0  0  0  0  0  0  0  0  0  0  0
   10.2851   46.7092  131.0848 C   0  0  0  0  0  0  0  0  0  0  0  0
    9.0057   46.2868  130.8208 C   0  0  0  0  0  0  0  0  0  0  0  0
    8.3941   46.6475  129.6613 C   0  0  0  0  0  0  0  0  0  0  0  0
    9.0036   47.4534  128.6765 C   0  0  0  0  0  0  0  0  0  0  0  0
   10.2805   47.8581  128.9702 C   0  0  0  0  0  0  0  0  0  0  0  0
   10.9217   47.4915  130.1658 C   0  0  0  0  0  0  0  0  0  0  0  0
    8.2970   47.7484  127.5545 O   0  0  0  0  0  0  0  0  0  0  0  0
    7.2458   48.5823  127.2914 C   0  0  0  0  0  0  0  0  0  0  0  0
    7.1611   49.8470  128.0676 C   0  0  0  0  0  0  0  0  0  0  0  0
    6.1813   49.6656  129.1412 N   0  0  0  0  0  0  0  0  0  0  0  0
    6.5588   48.6010  130.0248 C   0  0  0  0  0  0  0  0  0  0  0  0
    5.9292   47.2748  129.6405 C   0  0  0  0  0  0  0  0  0  0  0  0
    4.4289   47.3207  129.6526 C   0  0  0  0  0  0  0  0  0  0  0  0
    3.9657   48.7503  129.6037 C   0  0  0  0  0  0  0  0  0  0  0  0
    4.8495   49.5265  128.6376 C   0  0  0  0  0  0  0  0  0  0  0  0
  1  2  1  0  0  0
  2  3  2  0  0  0
  3  4  1  0  0  0
  4  5  2  0  0  0
  5  6  1  0  0  0
  6  7  2  0  0  0
  7  8  1  0  0  0
  8  9  1  0  0  0
  9 10  1  0  0  0
 10 11  2  0  0  0
  7 12  1  0  0  0
 12 13  2  0  0  0
 13 14  1  0  0  0
 14 15  2  0  0  0
 15 16  1  0  0  0
 15 17  1  0  0  0
 17 18  2  0  0  0
 18 19  1  0  0  0
 19 20  1  0  0  0
 20 23  1  0  0  0
 23 24  2  0  0  0
 24 25  1  0  0  0
 25 26  2  0  0  0
 26 29  1  0  0  0
 29 30  1  0  0  0
 30 31  1  0  0  0
 31 32  1  0  0  0
 32 33  1  0  0  0
 33 34  1  0  0  0
 34 35  1  0  0  0
 35 36  1  0  0  0
 36 37  1  0  0  0
 26 27  1  0  0  0
 27 28  2  0  0  0
 11  2  1  0  0  0
 18 12  1  0  0  0
 28 23  1  0  0  0
 10  5  1  0  0  0
 37 32  1  0  0  0
 20  6  1  0  0  0
  1 21  1  0  0  0
 16 22  1  0  0  0
M  END
> <minimizedAffinity>
22.70160

> <CNNscore>
0.3824546039

> <CNNaffinity>
7.3504142761

> <CNN_VS>
2.8111996651

> <CNNaffinity_variance>
0.9980705976

$$$$
[H]Oc1c([H])c([H])c2c(c1[H])O[C@@]([H])(c1c([H])c([H])c(OC([H])([H])C([H])([H])N3C([H])([H])C([H])([H])C([H])([H])C([H])([H])C3([H])[H])c([H])c1[H])C1=C2C([H])([H])Oc2c([H])c(O[H])c([H])c([H])c21


 37 42  0  0  0  0  0  0  0  0999 V2000
   15.1194   43.3227  129.0921 O   0  0  0  0  0  0  0  0  0  0  0  0
   13.9780   44.0548  129.4204 C   0  0  0  0  0  0  0  0  0  0  0  0
   13.5755   44.2322  130.7266 C   0  0  0  0  0  0  0  0  0  0  0  0
   12.4435   44.9603  131.0242 C   0  0  0  0  0  0  0  0  0  0  0  0
   11.6477   45.5531  130.0387 C   0  0  0  0  0  0  0  0  0  0  0  0
   10.4632   46.3339  130.3725 C   0  0  0  0  0  0  0  0  0  0  0  0
    9.7647   46.8851  129.3768 C   0  0  0  0  0  0  0  0  0  0  0  0
   10.1470   46.7225  127.9354 C   0  0  0  0  0  0  0  0  0  0  0  0
   11.2937   45.9425  127.7467 O   0  0  0  0  0  0  0  0  0  0  0  0
   12.0596   45.3689  128.7390 C   0  0  0  0  0  0  0  0  0  0  0  0
   13.2075   44.6309  128.4348 C   0  0  0  0  0  0  0  0  0  0  0  0
    8.6344   47.7574  129.6663 C   0  0  0  0  0  0  0  0  0  0  0  0
    7.8629   48.2983  128.6334 C   0  0  0  0  0  0  0  0  0  0  0  0
    6.7792   49.0795  128.9544 C   0  0  0  0  0  0  0  0  0  0  0  0
    6.4214   49.3518  130.2578 C   0  0  0  0  0  0  0  0  0  0  0  0
    5.3066   50.1541  130.5636 O   0  0  0  0  0  0  0  0  0  0  0  0
    7.1810   48.8201  131.2767 C   0  0  0  0  0  0  0  0  0  0  0  0
    8.2952   48.0182  130.9655 C   0  0  0  0  0  0  0  0  0  0  0  0
    9.0690   47.4849  131.9811 O   0  0  0  0  0  0  0  0  0  0  0  0
   10.0275   46.4503  131.7774 C   0  0  0  0  0  0  0  0  0  0  0  0
   16.0344   43.7674  129.0158 H   0  0  0  0  0  0  0  0  0  0  0  0
    5.4286   51.1608  130.6632 H   0  0  0  0  0  0  0  0  0  0  0  0
    9.3603   45.2149  132.2797 C   0  0  0  0  0  0  0  0  0  0  0  0
    8.6163   44.4828  131.3878 C   0  0  0  0  0  0  0  0  0  0  0  0
    8.0030   43.3378  131.7894 C   0  0  0  0  0  0  0  0  0  0  0  0
    8.0804   42.8321  133.1044 C   0  0  0  0  0  0  0  0  0  0  0  0
    8.8301   43.5863  133.9702 C   0  0  0  0  0  0  0  0  0  0  0  0
    9.4687   44.7709  133.5653 C   0  0  0  0  0  0  0  0  0  0  0  0
    7.4237   41.6785  133.3930 O   0  0  0  0  0  0  0  0  0  0  0  0
    6.7961   41.2024  134.5106 C   0  0  0  0  0  0  0  0  0  0  0  0
    5.4383   41.7263  134.8119 C   0  0  0  0  0  0  0  0  0  0  0  0
    5.5797   42.9341  135.6284 N   0  0  0  0  0  0  0  0  0  0  0  0
    4.4779   43.0905  136.5330 C   0  0  0  0  0  0  0  0  0  0  0  0
    3.3797   43.9709  135.9658 C   0  0  0  0  0  0  0  0  0  0  0  0
    3.8578   45.3560  135.6402 C   0  0  0  0  0  0  0  0  0  0  0  0
    5.3581   45.3639  135.5427 C   0  0  0  0  0  0  0  0  0  0  0  0
    5.8168   44.0985  134.8319 C   0  0  0  0  0  0  0  0  0  0  0  0
  1  2  1  0  0  0
  2  3  2  0  0  0
  3  4  1  0  0  0
  4  5  2  0  0  0
  5  6  1  0  0  0
  6  7  2  0  0  0
  7  8  1  0  0  0
  8  9  1  0  0  0
  9 10  1  0  0  0
 10 11  2  0  0  0
  7 12  1  0  0  0
 12 13  2  0  0  0
 13 14  1  0  0  0
 14 15  2  0  0  0
 15 16  1  0  0  0
 15 17  1  0  0  0
 17 18  2  0  0  0
 18 19  1  0  0  0
 19 20  1  0  0  0
 20 23  1  0  0  0
 23 24  2  0  0  0
 24 25  1  0  0  0
 25 26  2  0  0  0
 26 29  1  0  0  0
 29 30  1  0  0  0
 30 31  1  0  0  0
 31 32  1  0  0  0
 32 33  1  0  0  0
 33 34  1  0  0  0
 34 35  1  0  0  0
 35 36  1  0  0  0
 36 37  1  0  0  0
 26 27  1  0  0  0
 27 28  2  0  0  0
 11  2  1  0  0  0
 18 12  1  0  0  0
 28 23  1  0  0  0
 10  5  1  0  0  0
 37 32  1  0  0  0
 20  6  1  0  0  0
  1 21  1  0  0  0
 16 22  1  0  0  0
M  END
> <minimizedAffinity>
32.56364

> <CNNscore>
0.3777335286

> <CNNaffinity>
7.2635931969

> <CNN_VS>
2.7437026501

> <CNNaffinity_variance>
0.5740908384

$$$$
[H]Oc1c([H])c([H])c2c(c1[H])O[C@@]([H])(c1c([H])c([H])c(OC([H])([H])C([H])([H])N3C([H])([H])C([H])([H])C([H])([H])C([H])([H])C3([H])[H])c([H])c1[H])C1=C2C([H])([H])Oc2c([H])c(O[H])c([H])c([H])c21


 37 42  0  0  0  0  0  0  0  0999 V2000
    7.1448   51.0040  128.8209 O   0  0  0  0  0  0  0  0  0  0  0  0
    7.8391   50.0172  129.5213 C   0  0  0  0  0  0  0  0  0  0  0  0
    8.9547   49.3994  128.9984 C   0  0  0  0  0  0  0  0  0  0  0  0
    9.6230   48.4271  129.7111 C   0  0  0  0  0  0  0  0  0  0  0  0
    9.2189   48.0142  130.9847 C   0  0  0  0  0  0  0  0  0  0  0  0
    9.9475   46.9963  131.7313 C   0  0  0  0  0  0  0  0  0  0  0  0
    9.5111   46.6687  132.9499 C   0  0  0  0  0  0  0  0  0  0  0  0
    8.2998   47.2991  133.5707 C   0  0  0  0  0  0  0  0  0  0  0  0
    7.6832   48.2506  132.7499 O   0  0  0  0  0  0  0  0  0  0  0  0
    8.1042   48.6380  131.4958 C   0  0  0  0  0  0  0  0  0  0  0  0
    7.4249   49.6246  130.7747 C   0  0  0  0  0  0  0  0  0  0  0  0
   10.2643   45.7325  133.7737 C   0  0  0  0  0  0  0  0  0  0  0  0
    9.7911   45.3409  135.0297 C   0  0  0  0  0  0  0  0  0  0  0  0
   10.5121   44.4216  135.7528 C   0  0  0  0  0  0  0  0  0  0  0  0
   11.6864   43.8686  135.2879 C   0  0  0  0  0  0  0  0  0  0  0  0
   12.4083   42.9278  136.0454 O   0  0  0  0  0  0  0  0  0  0  0  0
   12.1543   44.2540  134.0508 C   0  0  0  0  0  0  0  0  0  0  0  0
   11.4284   45.1954  133.2971 C   0  0  0  0  0  0  0  0  0  0  0  0
   11.8931   45.5946  132.0565 O   0  0  0  0  0  0  0  0  0  0  0  0
   11.1002   46.3122  131.1146 C   0  0  0  0  0  0  0  0  0  0  0  0
    7.3852   51.9914  128.9115 H   0  0  0  0  0  0  0  0  0  0  0  0
   13.1246   43.2527  136.6932 H   0  0  0  0  0  0  0  0  0  0  0  0
   10.6946   45.2900  130.1077 C   0  0  0  0  0  0  0  0  0  0  0  0
   11.2621   45.3621  128.8596 C   0  0  0  0  0  0  0  0  0  0  0  0
   10.9412   44.4432  127.9103 C   0  0  0  0  0  0  0  0  0  0  0  0
   10.0342   43.3840  128.1260 C   0  0  0  0  0  0  0  0  0  0  0  0
    9.4850   43.3403  129.3817 C   0  0  0  0  0  0  0  0  0  0  0  0
    9.8102   44.2847  130.3703 C   0  0  0  0  0  0  0  0  0  0  0  0
    9.7874   42.5259  127.1023 O   0  0  0  0  0  0  0  0  0  0  0  0
    9.5795   41.1764  127.0293 C   0  0  0  0  0  0  0  0  0  0  0  0
   10.7381   40.2869  127.3041 C   0  0  0  0  0  0  0  0  0  0  0  0
   11.2295   39.7607  126.0285 N   0  0  0  0  0  0  0  0  0  0  0  0
   11.3441   38.3314  126.0572 C   0  0  0  0  0  0  0  0  0  0  0  0
   12.7379   37.8669  126.4370 C   0  0  0  0  0  0  0  0  0  0  0  0
   13.7907   38.3552  125.4851 C   0  0  0  0  0  0  0  0  0  0  0  0
   13.2562   39.5138  124.6899 C   0  0  0  0  0  0  0  0  0  0  0  0
   12.4331   40.4082  125.6062 C   0  0  0  0  0  0  0  0  0  0  0  0
  1  2  1  0  0  0
  2  3  2  0  0  0
  3  4  1  0  0  0
  4  5  2  0  0  0
  5  6  1  0  0  0
  6  7  2  0  0  0
  7  8  1  0  0  0
  8  9  1  0  0  0
  9 10  1  0  0  0
 10 11  2  0  0  0
  7 12  1  0  0  0
 12 13  2  0  0  0
 13 14  1  0  0  0
 14 15  2  0  0  0
 15 16  1  0  0  0
 15 17  1  0  0  0
 17 18  2  0  0  0
 18 19  1  0  0  0
 19 20  1  0  0  0
 20 23  1  0  0  0
 23 24  2  0  0  0
 24 25  1  0  0  0
 25 26  2  0  0  0
 26 29  1  0  0  0
 29 30  1  0  0  0
 30 31  1  0  0  0
 31 32  1  0  0  0
 32 33  1  0  0  0
 33 34  1  0  0  0
 34 35  1  0  0  0
 35 36  1  0  0  0
 36 37  1  0  0  0
 26 27  1  0  0  0
 27 28  2  0  0  0
 11  2  1  0  0  0
 18 12  1  0  0  0
 28 23  1  0  0  0
 10  5  1  0  0  0
 37 32  1  0  0  0
 20  6  1  0  0  0
  1 21  1  0  0  0
 16 22  1  0  0  0
M  END
> <minimizedAffinity>
15.21573

> <CNNscore>
0.3707567751

> <CNNaffinity>
7.6889410019

> <CNN_VS>
2.8507270813

> <CNNaffinity_variance>
1.6922867298

$$$$
[H]Oc1c([H])c([H])c2c(c1[H])O[C@@]([H])(c1c([H])c([H])c(OC([H])([H])C([H])([H])N3C([H])([H])C([H])([H])C([H])([H])C([H])([H])C3([H])[H])c([H])c1[H])C1=C2C([H])([H])Oc2c([H])c(O[H])c([H])c([H])c21


 37 42  0  0  0  0  0  0  0  0999 V2000
   10.0673   42.3373  126.4474 O   0  0  0  0  0  0  0  0  0  0  0  0
    9.8431   43.0363  127.6339 C   0  0  0  0  0  0  0  0  0  0  0  0
    8.6753   43.7320  127.8614 C   0  0  0  0  0  0  0  0  0  0  0  0
    8.4784   44.4146  129.0426 C   0  0  0  0  0  0  0  0  0  0  0  0
    9.4327   44.4437  130.0646 C   0  0  0  0  0  0  0  0  0  0  0  0
    9.2008   45.1568  131.3143 C   0  0  0  0  0  0  0  0  0  0  0  0
   10.1520   45.1226  132.2508 C   0  0  0  0  0  0  0  0  0  0  0  0
   11.4469   44.3896  132.0605 C   0  0  0  0  0  0  0  0  0  0  0  0
   11.5525   43.7570  130.8164 O   0  0  0  0  0  0  0  0  0  0  0  0
   10.5939   43.7456  129.8257 C   0  0  0  0  0  0  0  0  0  0  0  0
   10.7958   43.0525  128.6284 C   0  0  0  0  0  0  0  0  0  0  0  0
    9.9239   45.7336  133.5535 C   0  0  0  0  0  0  0  0  0  0  0  0
   10.9303   45.7507  134.5238 C   0  0  0  0  0  0  0  0  0  0  0  0
   10.6857   46.3773  135.7218 C   0  0  0  0  0  0  0  0  0  0  0  0
    9.4844   46.9912  136.0059 C   0  0  0  0  0  0  0  0  0  0  0  0
    9.2559   47.6280  137.2397 O   0  0  0  0  0  0  0  0  0  0  0  0
    8.4914   46.9746  135.0511 C   0  0  0  0  0  0  0  0  0  0  0  0
    8.7250   46.3364  133.8185 C   0  0  0  0  0  0  0  0  0  0  0  0
    7.7321   46.3078  132.8552 O   0  0  0  0  0  0  0  0  0  0  0  0
    7.9653   45.9422  131.4978 C   0  0  0  0  0  0  0  0  0  0  0  0
    9.7977   41.3586  126.3460 H   0  0  0  0  0  0  0  0  0  0  0  0
    8.8648   47.0919  138.0130 H   0  0  0  0  0  0  0  0  0  0  0  0
    7.9883   47.2367  130.7580 C   0  0  0  0  0  0  0  0  0  0  0  0
    7.0056   47.4570  129.8249 C   0  0  0  0  0  0  0  0  0  0  0  0
    6.9694   48.6286  129.1360 C   0  0  0  0  0  0  0  0  0  0  0  0
    7.9039   49.6697  129.3195 C   0  0  0  0  0  0  0  0  0  0  0  0
    8.8721   49.4184  130.2574 C   0  0  0  0  0  0  0  0  0  0  0  0
    8.9183   48.2112  130.9755 C   0  0  0  0  0  0  0  0  0  0  0  0
    7.7711   50.7965  128.5725 O   0  0  0  0  0  0  0  0  0  0  0  0
    7.0763   51.9627  128.7363 C   0  0  0  0  0  0  0  0  0  0  0  0
    6.3856   52.5239  127.5459 C   0  0  0  0  0  0  0  0  0  0  0  0
    7.1234   53.7078  127.0989 N   0  0  0  0  0  0  0  0  0  0  0  0
    6.2573   54.6615  126.4688 C   0  0  0  0  0  0  0  0  0  0  0  0
    6.2102   54.4974  124.9609 C   0  0  0  0  0  0  0  0  0  0  0  0
    7.5565   54.6613  124.3179 C   0  0  0  0  0  0  0  0  0  0  0  0
    8.6349   54.5001  125.3531 C   0  0  0  0  0  0  0  0  0  0  0  0
    8.2553   53.3654  126.2941 C   0  0  0  0  0  0  0  0  0  0  0  0
  1  2  1  0  0  0
  2  3  2  0  0  0
  3  4  1  0  0  0
  4  5  2  0  0  0
  5  6  1  0  0  0
  6  7  2  0  0  0
  7  8  1  0  0  0
  8  9  1  0  0  0
  9 10  1  0  0  0
 10 11  2  0  0  0
  7 12  1  0  0  0
 12 13  2  0  0  0
 13 14  1  0  0  0
 14 15  2  0  0  0
 15 16  1  0  0  0
 15 17  1  0  0  0
 17 18  2  0  0  0
 18 19  1  0  0  0
 19 20  1  0  0  0
 20 23  1  0  0  0
 23 24  2  0  0  0
 24 25  1  0  0  0
 25 26  2  0  0  0
 26 29  1  0  0  0
 29 30  1  0  0  0
 30 31  1  0  0  0
 31 32  1  0  0  0
 32 33  1  0  0  0
 33 34  1  0  0  0
 34 35  1  0  0  0
 35 36  1  0  0  0
 36 37  1  0  0  0
 26 27  1  0  0  0
 27 28  2  0  0  0
 11  2  1  0  0  0
 18 12  1  0  0  0
 28 23  1  0  0  0
 10  5  1  0  0  0
 37 32  1  0  0  0
 20  6  1  0  0  0
  1 21  1  0  0  0
 16 22  1  0  0  0
M  END
> <minimizedAffinity>
6.30691

> <CNNscore>
0.3505255282

> <CNNaffinity>
7.4348678589

> <CNN_VS>
2.6061110497

> <CNNaffinity_variance>
1.3581269979

$$$$
[H]Oc1c([H])c([H])c2c(c1[H])O[C@@]([H])(c1c([H])c([H])c(OC([H])([H])C([H])([H])N3C([H])([H])C([H])([H])C([H])([H])C([H])([H])C3([H])[H])c([H])c1[H])C1=C2C([H])([H])Oc2c([H])c(O[H])c([H])c([H])c21


 37 42  0  0  0  0  0  0  0  0999 V2000
    6.5968   52.6667  129.0627 O   0  0  0  0  0  0  0  0  0  0  0  0
    6.8753   51.3351  129.3721 C   0  0  0  0  0  0  0  0  0  0  0  0
    6.6923   50.8270  130.6402 C   0  0  0  0  0  0  0  0  0  0  0  0
    6.9749   49.5072  130.9200 C   0  0  0  0  0  0  0  0  0  0  0  0
    7.4559   48.6180  129.9536 C   0  0  0  0  0  0  0  0  0  0  0  0
    7.7335   47.2211  130.2630 C   0  0  0  0  0  0  0  0  0  0  0  0
    8.1727   46.4287  129.2821 C   0  0  0  0  0  0  0  0  0  0  0  0
    8.3988   46.9234  127.8841 C   0  0  0  0  0  0  0  0  0  0  0  0
    8.1077   48.2825  127.7192 O   0  0  0  0  0  0  0  0  0  0  0  0
    7.6345   49.1368  128.6919 C   0  0  0  0  0  0  0  0  0  0  0  0
    7.3484   50.4752  128.4059 C   0  0  0  0  0  0  0  0  0  0  0  0
    8.3659   45.0042  129.5183 C   0  0  0  0  0  0  0  0  0  0  0  0
    8.8750   44.1735  128.5155 C   0  0  0  0  0  0  0  0  0  0  0  0
    9.0827   42.8449  128.7971 C   0  0  0  0  0  0  0  0  0  0  0  0
    8.8084   42.2969  130.0322 C   0  0  0  0  0  0  0  0  0  0  0  0
    9.0297   40.9331  130.2989 O   0  0  0  0  0  0  0  0  0  0  0  0
    8.3061   43.1140  131.0211 C   0  0  0  0  0  0  0  0  0  0  0  0
    8.0865   44.4775  130.7493 C   0  0  0  0  0  0  0  0  0  0  0  0
    7.5757   45.3055  131.7332 O   0  0  0  0  0  0  0  0  0  0  0  0
    7.5854   46.7278  131.6457 C   0  0  0  0  0  0  0  0  0  0  0  0
    5.6739   52.9572  128.7390 H   0  0  0  0  0  0  0  0  0  0  0  0
    8.2813   40.2633  130.1272 H   0  0  0  0  0  0  0  0  0  0  0  0
    8.7057   47.1519  132.5336 C   0  0  0  0  0  0  0  0  0  0  0  0
    8.8476   46.5054  133.7365 C   0  0  0  0  0  0  0  0  0  0  0  0
    9.8639   46.8404  134.5751 C   0  0  0  0  0  0  0  0  0  0  0  0
   10.8158   47.8409  134.2854 C   0  0  0  0  0  0  0  0  0  0  0  0
   10.6462   48.4674  133.0775 C   0  0  0  0  0  0  0  0  0  0  0  0
    9.5995   48.1284  132.2030 C   0  0  0  0  0  0  0  0  0  0  0  0
   11.7876   48.0928  135.2005 O   0  0  0  0  0  0  0  0  0  0  0  0
   13.0096   47.5365  135.4591 C   0  0  0  0  0  0  0  0  0  0  0  0
   13.4853   46.4670  134.5431 C   0  0  0  0  0  0  0  0  0  0  0  0
   12.3229   45.8882  133.8654 N   0  0  0  0  0  0  0  0  0  0  0  0
   11.9585   44.6225  134.4328 C   0  0  0  0  0  0  0  0  0  0  0  0
   12.5867   43.4528  133.6979 C   0  0  0  0  0  0  0  0  0  0  0  0
   12.1894   43.3965  132.2515 C   0  0  0  0  0  0  0  0  0  0  0  0
   11.6520   44.7333  131.8217 C   0  0  0  0  0  0  0  0  0  0  0  0
   12.4981   45.8336  132.4467 C   0  0  0  0  0  0  0  0  0  0  0  0
  1  2  1  0  0  0
  2  3  2  0  0  0
  3  4  1  0  0  0
  4  5  2  0  0  0
  5  6  1  0  0  0
  6  7  2  0  0  0
  7  8  1  0  0  0
  8  9  1  0  0  0
  9 10  1  0  0  0
 10 11  2  0  0  0
  7 12  1  0  0  0
 12 13  2  0  0  0
 13 14  1  0  0  0
 14 15  2  0  0  0
 15 16  1  0  0  0
 15 17  1  0  0  0
 17 18  2  0  0  0
 18 19  1  0  0  0
 19 20  1  0  0  0
 20 23  1  0  0  0
 23 24  2  0  0  0
 24 25  1  0  0  0
 25 26  2  0  0  0
 26 29  1  0  0  0
 29 30  1  0  0  0
 30 31  1  0  0  0
 31 32  1  0  0  0
 32 33  1  0  0  0
 33 34  1  0  0  0
 34 35  1  0  0  0
 35 36  1  0  0  0
 36 37  1  0  0  0
 26 27  1  0  0  0
 27 28  2  0  0  0
 11  2  1  0  0  0
 18 12  1  0  0  0
 28 23  1  0  0  0
 10  5  1  0  0  0
 37 32  1  0  0  0
 20  6  1  0  0  0
  1 21  1  0  0  0
 16 22  1  0  0  0
M  END
> <minimizedAffinity>
4.97552

> <CNNscore>
0.3325475454

> <CNNaffinity>
7.4603815079

> <CNN_VS>
2.4809315205

> <CNNaffinity_variance>
0.4943697453

$$$$
[H]Oc1c([H])c([H])c2c(c1[H])O[C@@]([H])(c1c([H])c([H])c(OC([H])([H])C([H])([H])N3C([H])([H])C([H])([H])C([H])([H])C([H])([H])C3([H])[H])c([H])c1[H])C1=C2C([H])([H])Oc2c([H])c(O[H])c([H])c([H])c21


 37 42  0  0  0  0  0  0  0  0999 V2000
    6.6385   51.8316  130.4112 O   0  0  0  0  0  0  0  0  0  0  0  0
    7.0231   50.5064  130.2048 C   0  0  0  0  0  0  0  0  0  0  0  0
    6.3368   49.4515  130.7666 C   0  0  0  0  0  0  0  0  0  0  0  0
    6.7374   48.1510  130.5470 C   0  0  0  0  0  0  0  0  0  0  0  0
    7.8441   47.8265  129.7558 C   0  0  0  0  0  0  0  0  0  0  0  0
    8.2436   46.4448  129.5204 C   0  0  0  0  0  0  0  0  0  0  0  0
    9.3004   46.2140  128.7376 C   0  0  0  0  0  0  0  0  0  0  0  0
   10.0926   47.3188  128.1036 C   0  0  0  0  0  0  0  0  0  0  0  0
    9.6162   48.5973  128.4158 O   0  0  0  0  0  0  0  0  0  0  0  0
    8.5209   48.8880  129.2007 C   0  0  0  0  0  0  0  0  0  0  0  0
    8.1162   50.2078  129.4220 C   0  0  0  0  0  0  0  0  0  0  0  0
    9.6750   44.8494  128.3912 C   0  0  0  0  0  0  0  0  0  0  0  0
   10.8097   44.5920  127.6160 C   0  0  0  0  0  0  0  0  0  0  0  0
   11.1499   43.2874  127.3514 C   0  0  0  0  0  0  0  0  0  0  0  0
   10.4151   42.2195  127.8210 C   0  0  0  0  0  0  0  0  0  0  0  0
   10.7825   40.8910  127.5383 O   0  0  0  0  0  0  0  0  0  0  0  0
    9.2963   42.4716  128.5844 C   0  0  0  0  0  0  0  0  0  0  0  0
    8.9330   43.8023  128.8644 C   0  0  0  0  0  0  0  0  0  0  0  0
    7.8073   44.0668  129.6243 O   0  0  0  0  0  0  0  0  0  0  0  0
    7.5231   45.3441  130.1886 C   0  0  0  0  0  0  0  0  0  0  0  0
    5.9785   52.2983  129.7888 H   0  0  0  0  0  0  0  0  0  0  0  0
   10.4151   40.4388  126.7023 H   0  0  0  0  0  0  0  0  0  0  0  0
    7.8837   45.2079  131.6290 C   0  0  0  0  0  0  0  0  0  0  0  0
    9.0935   44.6345  131.9334 C   0  0  0  0  0  0  0  0  0  0  0  0
    9.4792   44.5038  133.2306 C   0  0  0  0  0  0  0  0  0  0  0  0
    8.6957   44.9312  134.3235 C   0  0  0  0  0  0  0  0  0  0  0  0
    7.4940   45.4988  133.9859 C   0  0  0  0  0  0  0  0  0  0  0  0
    7.0859   45.6391  132.6484 C   0  0  0  0  0  0  0  0  0  0  0  0
    9.1819   44.7471  135.5785 O   0  0  0  0  0  0  0  0  0  0  0  0
    9.9484   45.5087  136.4164 C   0  0  0  0  0  0  0  0  0  0  0  0
   10.3449   46.8614  135.9453 C   0  0  0  0  0  0  0  0  0  0  0  0
    9.8372   47.0437  134.5835 N   0  0  0  0  0  0  0  0  0  0  0  0
   10.9055   47.1964  133.6389 C   0  0  0  0  0  0  0  0  0  0  0  0
   11.2490   48.6514  133.3790 C   0  0  0  0  0  0  0  0  0  0  0  0
   10.0890   49.4320  132.8331 C   0  0  0  0  0  0  0  0  0  0  0  0
    8.8082   48.6938  133.1075 C   0  0  0  0  0  0  0  0  0  0  0  0
    8.8694   48.0942  134.5052 C   0  0  0  0  0  0  0  0  0  0  0  0
  1  2  1  0  0  0
  2  3  2  0  0  0
  3  4  1  0  0  0
  4  5  2  0  0  0
  5  6  1  0  0  0
  6  7  2  0  0  0
  7  8  1  0  0  0
  8  9  1  0  0  0
  9 10  1  0  0  0
 10 11  2  0  0  0
  7 12  1  0  0  0
 12 13  2  0  0  0
 13 14  1  0  0  0
 14 15  2  0  0  0
 15 16  1  0  0  0
 15 17  1  0  0  0
 17 18  2  0  0  0
 18 19  1  0  0  0
 19 20  1  0  0  0
 20 23  1  0  0  0
 23 24  2  0  0  0
 24 25  1  0  0  0
 25 26  2  0  0  0
 26 29  1  0  0  0
 29 30  1  0  0  0
 30 31  1  0  0  0
 31 32  1  0  0  0
 32 33  1  0  0  0
 33 34  1  0  0  0
 34 35  1  0  0  0
 35 36  1  0  0  0
 36 37  1  0  0  0
 26 27  1  0  0  0
 27 28  2  0  0  0
 11  2  1  0  0  0
 18 12  1  0  0  0
 28 23  1  0  0  0
 10  5  1  0  0  0
 37 32  1  0  0  0
 20  6  1  0  0  0
  1 21  1  0  0  0
 16 22  1  0  0  0
M  END
> <minimizedAffinity>
13.50212

> <CNNscore>
0.3325150907

> <CNNaffinity>
7.2780179977

> <CNN_VS>
2.4200508595

> <CNNaffinity_variance>
0.6675464511

$$$$
[H]Oc1c([H])c([H])c([H])c(C2=C(C([H])([H])[H])c3c([H])c(O[H])c([H])c([H])c3OC2([H])c2c([H])c([H])c(OC([H])([H])C([H])([H])N3C([H])([H])C([H])(C([H])([H])[H])C3([H])[H])c([H])c2[H])c1[H]


 35 39  0  0  0  0  0  0  0  0999 V2000
    9.0795   47.2390  131.2240 C   0  0  0  0  0  0  0  0  0  0  0  0
    8.3695   48.3822  131.5435 O   0  0  0  0  0  0  0  0  0  0  0  0
    7.8968   49.2997  130.6649 C   0  0  0  0  0  0  0  0  0  0  0  0
    7.1686   50.4042  131.1442 C   0  0  0  0  0  0  0  0  0  0  0  0
    6.6888   51.3299  130.2524 C   0  0  0  0  0  0  0  0  0  0  0  0
    6.9396   51.1436  128.9011 C   0  0  0  0  0  0  0  0  0  0  0  0
    6.4256   52.1138  128.0493 O   0  0  0  0  0  0  0  0  0  0  0  0
    7.6544   50.0606  128.4304 C   0  0  0  0  0  0  0  0  0  0  0  0
    8.1309   49.1431  129.3204 C   0  0  0  0  0  0  0  0  0  0  0  0
    8.9035   47.9381  128.9587 C   0  0  0  0  0  0  0  0  0  0  0  0
    9.2474   47.8262  127.4818 C   0  0  0  0  0  0  0  0  0  0  0  0
    9.3387   47.0599  129.8488 C   0  0  0  0  0  0  0  0  0  0  0  0
    5.4952   51.9632  127.6903 H   0  0  0  0  0  0  0  0  0  0  0  0
   10.0760   45.9175  129.2482 C   0  0  0  0  0  0  0  0  0  0  0  0
   11.4758   45.9000  129.3116 C   0  0  0  0  0  0  0  0  0  0  0  0
   12.2225   44.8616  128.7991 C   0  0  0  0  0  0  0  0  0  0  0  0
   11.5965   43.7863  128.1964 C   0  0  0  0  0  0  0  0  0  0  0  0
   10.2277   43.7867  128.1259 C   0  0  0  0  0  0  0  0  0  0  0  0
    9.5826   42.7172  127.5242 O   0  0  0  0  0  0  0  0  0  0  0  0
    9.5006   44.8322  128.6432 C   0  0  0  0  0  0  0  0  0  0  0  0
    9.3192   41.9308  128.1171 H   0  0  0  0  0  0  0  0  0  0  0  0
    7.8678   43.8253  133.5060 C   0  0  0  0  0  0  0  0  0  0  0  0
    8.0964   45.0491  134.1825 C   0  0  0  0  0  0  0  0  0  0  0  0
    8.4823   46.1526  133.4580 C   0  0  0  0  0  0  0  0  0  0  0  0
    8.6673   46.1788  132.1293 C   0  0  0  0  0  0  0  0  0  0  0  0
    8.4354   44.9526  131.4669 C   0  0  0  0  0  0  0  0  0  0  0  0
    8.0448   43.8192  132.1701 C   0  0  0  0  0  0  0  0  0  0  0  0
    7.4817   42.7358  134.2296 O   0  0  0  0  0  0  0  0  0  0  0  0
    8.1093   41.5169  134.2836 C   0  0  0  0  0  0  0  0  0  0  0  0
    9.5828   41.5085  133.9601 C   0  0  0  0  0  0  0  0  0  0  0  0
   13.1927   43.2032  132.8495 C   0  0  0  0  0  0  0  0  0  0  0  0
   11.7525   43.5293  132.4836 C   0  0  0  0  0  0  0  0  0  0  0  0
   10.9196   42.3455  132.0879 C   0  0  0  0  0  0  0  0  0  0  0  0
    9.8891   42.6466  133.0714 N   0  0  0  0  0  0  0  0  0  0  0  0
   10.8666   43.5555  133.6992 C   0  0  0  0  0  0  0  0  0  0  0  0
 31 32  1  0  0  0
 32 33  1  0  0  0
 33 34  1  0  0  0
 34 30  1  0  0  0
 30 29  1  0  0  0
 29 28  1  0  0  0
 28 22  1  0  0  0
 22 23  2  0  0  0
 23 24  1  0  0  0
 24 25  2  0  0  0
 25 26  1  0  0  0
 26 27  2  0  0  0
 25  1  1  0  0  0
  1  2  1  0  0  0
  2  3  1  0  0  0
  3  4  2  0  0  0
  4  5  1  0  0  0
  5  6  2  0  0  0
  6  7  1  0  0  0
  6  8  1  0  0  0
  8  9  2  0  0  0
  9 10  1  0  0  0
 10 11  1  0  0  0
 10 12  2  0  0  0
 12 14  1  0  0  0
 14 15  2  0  0  0
 15 16  1  0  0  0
 16 17  2  0  0  0
 17 18  1  0  0  0
 18 19  1  0  0  0
 18 20  2  0  0  0
 34 35  1  0  0  0
 35 32  1  0  0  0
 27 22  1  0  0  0
 12  1  1  0  0  0
 20 14  1  0  0  0
  9  3  1  0  0  0
  7 13  1  0  0  0
 19 21  1  0  0  0
M  END
> <minimizedAffinity>
5.57537

> <CNNscore>
0.4676598907

> <CNNaffinity>
7.6664795876

> <CNN_VS>
3.5853049755

> <CNNaffinity_variance>
1.2893599272

$$$$
[H]Oc1c([H])c([H])c([H])c(C2=C(C([H])([H])[H])c3c([H])c(O[H])c([H])c([H])c3OC2([H])c2c([H])c([H])c(OC([H])([H])C([H])([H])N3C([H])([H])C([H])(C([H])([H])[H])C3([H])[H])c([H])c2[H])c1[H]


 35 39  0  0  0  0  0  0  0  0999 V2000
    9.2272   45.4482  130.9135 C   0  0  0  0  0  0  0  0  0  0  0  0
   10.3345   44.6412  131.1023 O   0  0  0  0  0  0  0  0  0  0  0  0
   11.3985   44.5384  130.2689 C   0  0  0  0  0  0  0  0  0  0  0  0
   12.4647   43.6865  130.6114 C   0  0  0  0  0  0  0  0  0  0  0  0
   13.5417   43.5866  129.7674 C   0  0  0  0  0  0  0  0  0  0  0  0
   13.5423   44.3334  128.5988 C   0  0  0  0  0  0  0  0  0  0  0  0
   14.6616   44.1904  127.7878 O   0  0  0  0  0  0  0  0  0  0  0  0
   12.4963   45.1689  128.2619 C   0  0  0  0  0  0  0  0  0  0  0  0
   11.4266   45.2645  129.1031 C   0  0  0  0  0  0  0  0  0  0  0  0
   10.2451   46.1193  128.8728 C   0  0  0  0  0  0  0  0  0  0  0  0
   10.2358   46.8390  127.5334 C   0  0  0  0  0  0  0  0  0  0  0  0
    9.2298   46.1987  129.7189 C   0  0  0  0  0  0  0  0  0  0  0  0
   15.4311   44.8214  127.9520 H   0  0  0  0  0  0  0  0  0  0  0  0
    8.1638   47.1390  129.2845 C   0  0  0  0  0  0  0  0  0  0  0  0
    6.8926   46.6347  128.9784 C   0  0  0  0  0  0  0  0  0  0  0  0
    5.8505   47.4503  128.5944 C   0  0  0  0  0  0  0  0  0  0  0  0
    6.0358   48.8171  128.4995 C   0  0  0  0  0  0  0  0  0  0  0  0
    7.2729   49.3277  128.7956 C   0  0  0  0  0  0  0  0  0  0  0  0
    7.4776   50.6958  128.7050 O   0  0  0  0  0  0  0  0  0  0  0  0
    8.2997   48.4973  129.1770 C   0  0  0  0  0  0  0  0  0  0  0  0
    7.3044   51.2551  129.5396 H   0  0  0  0  0  0  0  0  0  0  0  0
    8.2989   47.3368  134.6419 C   0  0  0  0  0  0  0  0  0  0  0  0
    7.6273   46.1364  134.3020 C   0  0  0  0  0  0  0  0  0  0  0  0
    7.9211   45.5198  133.1082 C   0  0  0  0  0  0  0  0  0  0  0  0
    8.8125   45.9628  132.2085 C   0  0  0  0  0  0  0  0  0  0  0  0
    9.4755   47.1599  132.5598 C   0  0  0  0  0  0  0  0  0  0  0  0
    9.2011   47.8075  133.7586 C   0  0  0  0  0  0  0  0  0  0  0  0
    8.0058   47.9412  135.8288 O   0  0  0  0  0  0  0  0  0  0  0  0
    8.7092   47.8389  137.0023 C   0  0  0  0  0  0  0  0  0  0  0  0
    9.8226   46.8212  137.0281 C   0  0  0  0  0  0  0  0  0  0  0  0
   12.3715   43.9188  135.5398 C   0  0  0  0  0  0  0  0  0  0  0  0
   11.0423   44.4670  135.0428 C   0  0  0  0  0  0  0  0  0  0  0  0
    9.9709   44.5654  136.0889 C   0  0  0  0  0  0  0  0  0  0  0  0
    9.7336   45.9767  135.8207 N   0  0  0  0  0  0  0  0  0  0  0  0
   11.0138   45.9704  135.0881 C   0  0  0  0  0  0  0  0  0  0  0  0
 31 32  1  0  0  0
 32 33  1  0  0  0
 33 34  1  0  0  0
 34 30  1  0  0  0
 30 29  1  0  0  0
 29 28  1  0  0  0
 28 22  1  0  0  0
 22 23  2  0  0  0
 23 24  1  0  0  0
 24 25  2  0  0  0
 25 26  1  0  0  0
 26 27  2  0  0  0
 25  1  1  0  0  0
  1  2  1  0  0  0
  2  3  1  0  0  0
  3  4  2  0  0  0
  4  5  1  0  0  0
  5  6  2  0  0  0
  6  7  1  0  0  0
  6  8  1  0  0  0
  8  9  2  0  0  0
  9 10  1  0  0  0
 10 11  1  0  0  0
 10 12  2  0  0  0
 12 14  1  0  0  0
 14 15  2  0  0  0
 15 16  1  0  0  0
 16 17  2  0  0  0
 17 18  1  0  0  0
 18 19  1  0  0  0
 18 20  2  0  0  0
 34 35  1  0  0  0
 35 32  1  0  0  0
 27 22  1  0  0  0
 12  1  1  0  0  0
 20 14  1  0  0  0
  9  3  1  0  0  0
  7 13  1  0  0  0
 19 21  1  0  0  0
M  END
> <minimizedAffinity>
11.79853

> <CNNscore>
0.4537584782

> <CNNaffinity>
7.6581978798

> <CNN_VS>
3.4749722481

> <CNNaffinity_variance>
1.7127546072

$$$$
[H]Oc1c([H])c([H])c([H])c(C2=C(C([H])([H])[H])c3c([H])c(O[H])c([H])c([H])c3OC2([H])c2c([H])c([H])c(OC([H])([H])C([H])([H])N3C([H])([H])C([H])(C([H])([H])[H])C3([H])[H])c([H])c2[H])c1[H]


 35 39  0  0  0  0  0  0  0  0999 V2000
    9.9367   44.7576  131.2335 C   0  0  0  0  0  0  0  0  0  0  0  0
   11.1406   44.1077  131.4364 O   0  0  0  0  0  0  0  0  0  0  0  0
   12.1934   44.0931  130.5830 C   0  0  0  0  0  0  0  0  0  0  0  0
   13.3652   43.4021  130.9429 C   0  0  0  0  0  0  0  0  0  0  0  0
   14.4304   43.3914  130.0782 C   0  0  0  0  0  0  0  0  0  0  0  0
   14.3147   44.0663  128.8722 C   0  0  0  0  0  0  0  0  0  0  0  0
   15.4279   44.0199  128.0418 O   0  0  0  0  0  0  0  0  0  0  0  0
   13.1652   44.7438  128.5182 C   0  0  0  0  0  0  0  0  0  0  0  0
   12.1078   44.7510  129.3801 C   0  0  0  0  0  0  0  0  0  0  0  0
   10.8235   45.4366  129.1350 C   0  0  0  0  0  0  0  0  0  0  0  0
   10.6983   46.0739  127.7601 C   0  0  0  0  0  0  0  0  0  0  0  0
    9.8221   45.4349  130.0011 C   0  0  0  0  0  0  0  0  0  0  0  0
   16.1142   44.7507  128.1528 H   0  0  0  0  0  0  0  0  0  0  0  0
    8.6377   46.2083  129.5449 C   0  0  0  0  0  0  0  0  0  0  0  0
    7.3795   45.5912  129.5427 C   0  0  0  0  0  0  0  0  0  0  0  0
    6.2352   46.2550  129.1574 C   0  0  0  0  0  0  0  0  0  0  0  0
    6.2998   47.5760  128.7546 C   0  0  0  0  0  0  0  0  0  0  0  0
    7.5225   48.1955  128.7509 C   0  0  0  0  0  0  0  0  0  0  0  0
    7.6068   49.5197  128.3492 O   0  0  0  0  0  0  0  0  0  0  0  0
    8.6525   47.5160  129.1390 C   0  0  0  0  0  0  0  0  0  0  0  0
    7.5057   50.2376  129.0660 H   0  0  0  0  0  0  0  0  0  0  0  0
    9.0406   46.5173  135.0321 C   0  0  0  0  0  0  0  0  0  0  0  0
    8.0205   45.8032  134.3560 C   0  0  0  0  0  0  0  0  0  0  0  0
    8.2993   45.2309  133.1368 C   0  0  0  0  0  0  0  0  0  0  0  0
    9.4841   45.2873  132.5095 C   0  0  0  0  0  0  0  0  0  0  0  0
   10.4925   46.0014  133.1945 C   0  0  0  0  0  0  0  0  0  0  0  0
   10.2428   46.5916  134.4279 C   0  0  0  0  0  0  0  0  0  0  0  0
    8.7588   47.0792  136.2424 O   0  0  0  0  0  0  0  0  0  0  0  0
    8.2855   48.3461  136.4733 C   0  0  0  0  0  0  0  0  0  0  0  0
    8.1402   49.2365  135.2642 C   0  0  0  0  0  0  0  0  0  0  0  0
    8.8256   50.6447  131.4323 C   0  0  0  0  0  0  0  0  0  0  0  0
    9.3611   49.4403  132.1919 C   0  0  0  0  0  0  0  0  0  0  0  0
    9.8459   49.7362  133.5808 C   0  0  0  0  0  0  0  0  0  0  0  0
    8.9928   48.7177  134.1766 N   0  0  0  0  0  0  0  0  0  0  0  0
    8.2589   48.6981  132.8972 C   0  0  0  0  0  0  0  0  0  0  0  0
 31 32  1  0  0  0
 32 33  1  0  0  0
 33 34  1  0  0  0
 34 30  1  0  0  0
 30 29  1  0  0  0
 29 28  1  0  0  0
 28 22  1  0  0  0
 22 23  2  0  0  0
 23 24  1  0  0  0
 24 25  2  0  0  0
 25 26  1  0  0  0
 26 27  2  0  0  0
 25  1  1  0  0  0
  1  2  1  0  0  0
  2  3  1  0  0  0
  3  4  2  0  0  0
  4  5  1  0  0  0
  5  6  2  0  0  0
  6  7  1  0  0  0
  6  8  1  0  0  0
  8  9  2  0  0  0
  9 10  1  0  0  0
 10 11  1  0  0  0
 10 12  2  0  0  0
 12 14  1  0  0  0
 14 15  2  0  0  0
 15 16  1  0  0  0
 16 17  2  0  0  0
 17 18  1  0  0  0
 18 19  1  0  0  0
 18 20  2  0  0  0
 34 35  1  0  0  0
 35 32  1  0  0  0
 27 22  1  0  0  0
 12  1  1  0  0  0
 20 14  1  0  0  0
  9  3  1  0  0  0
  7 13  1  0  0  0
 19 21  1  0  0  0
M  END
> <minimizedAffinity>
9.29548

> <CNNscore>
0.4448047876

> <CNNaffinity>
7.6096358299

> <CNN_VS>
3.3848023415

> <CNNaffinity_variance>
0.8619098663

$$$$
[H]Oc1c([H])c([H])c([H])c(C2=C(C([H])([H])[H])c3c([H])c(O[H])c([H])c([H])c3OC2([H])c2c([H])c([H])c(OC([H])([H])C([H])([H])N3C([H])([H])C([H])(C([H])([H])[H])C3([H])[H])c([H])c2[H])c1[H]


 35 39  0  0  0  0  0  0  0  0999 V2000
    8.1650   45.6890  130.8862 C   0  0  0  0  0  0  0  0  0  0  0  0
    8.7825   44.4896  130.5812 O   0  0  0  0  0  0  0  0  0  0  0  0
    9.5089   44.2265  129.4675 C   0  0  0  0  0  0  0  0  0  0  0  0
   10.0973   42.9581  129.3099 C   0  0  0  0  0  0  0  0  0  0  0  0
   10.8344   42.6955  128.1830 C   0  0  0  0  0  0  0  0  0  0  0  0
   10.9750   43.6955  127.2323 C   0  0  0  0  0  0  0  0  0  0  0  0
   11.7345   43.3686  126.1155 O   0  0  0  0  0  0  0  0  0  0  0  0
   10.3974   44.9398  127.3860 C   0  0  0  0  0  0  0  0  0  0  0  0
    9.6641   45.1966  128.5074 C   0  0  0  0  0  0  0  0  0  0  0  0
    8.9971   46.4798  128.8045 C   0  0  0  0  0  0  0  0  0  0  0  0
    9.0861   47.5122  127.6917 C   0  0  0  0  0  0  0  0  0  0  0  0
    8.3044   46.6992  129.9113 C   0  0  0  0  0  0  0  0  0  0  0  0
   12.7246   43.5546  126.1633 H   0  0  0  0  0  0  0  0  0  0  0  0
    7.7409   48.0718  129.9997 C   0  0  0  0  0  0  0  0  0  0  0  0
    8.5416   49.1069  130.5009 C   0  0  0  0  0  0  0  0  0  0  0  0
    8.0941   50.4072  130.5874 C   0  0  0  0  0  0  0  0  0  0  0  0
    6.8158   50.7316  130.1726 C   0  0  0  0  0  0  0  0  0  0  0  0
    6.0188   49.7315  129.6793 C   0  0  0  0  0  0  0  0  0  0  0  0
    4.7336   50.0379  129.2594 O   0  0  0  0  0  0  0  0  0  0  0  0
    6.4839   48.4404  129.6010 C   0  0  0  0  0  0  0  0  0  0  0  0
    4.6066   50.3023  128.2830 H   0  0  0  0  0  0  0  0  0  0  0  0
    8.8253   46.6605  135.0031 C   0  0  0  0  0  0  0  0  0  0  0  0
    7.8205   45.7151  134.6804 C   0  0  0  0  0  0  0  0  0  0  0  0
    7.6030   45.3934  133.3610 C   0  0  0  0  0  0  0  0  0  0  0  0
    8.2752   45.9068  132.3194 C   0  0  0  0  0  0  0  0  0  0  0  0
    9.2747   46.8474  132.6549 C   0  0  0  0  0  0  0  0  0  0  0  0
    9.5189   47.1943  133.9785 C   0  0  0  0  0  0  0  0  0  0  0  0
    9.0385   46.9724  136.3135 O   0  0  0  0  0  0  0  0  0  0  0  0
    9.8494   46.3075  137.1982 C   0  0  0  0  0  0  0  0  0  0  0  0
   10.0871   44.8443  136.9178 C   0  0  0  0  0  0  0  0  0  0  0  0
   10.7225   43.2152  133.1656 C   0  0  0  0  0  0  0  0  0  0  0  0
   11.6601   43.8644  134.1725 C   0  0  0  0  0  0  0  0  0  0  0  0
   11.1692   45.1617  134.7449 C   0  0  0  0  0  0  0  0  0  0  0  0
   11.3190   44.6995  136.1175 N   0  0  0  0  0  0  0  0  0  0  0  0
   11.4280   43.3373  135.5623 C   0  0  0  0  0  0  0  0  0  0  0  0
 31 32  1  0  0  0
 32 33  1  0  0  0
 33 34  1  0  0  0
 34 30  1  0  0  0
 30 29  1  0  0  0
 29 28  1  0  0  0
 28 22  1  0  0  0
 22 23  2  0  0  0
 23 24  1  0  0  0
 24 25  2  0  0  0
 25 26  1  0  0  0
 26 27  2  0  0  0
 25  1  1  0  0  0
  1  2  1  0  0  0
  2  3  1  0  0  0
  3  4  2  0  0  0
  4  5  1  0  0  0
  5  6  2  0  0  0
  6  7  1  0  0  0
  6  8  1  0  0  0
  8  9  2  0  0  0
  9 10  1  0  0  0
 10 11  1  0  0  0
 10 12  2  0  0  0
 12 14  1  0  0  0
 14 15  2  0  0  0
 15 16  1  0  0  0
 16 17  2  0  0  0
 17 18  1  0  0  0
 18 19  1  0  0  0
 18 20  2  0  0  0
 34 35  1  0  0  0
 35 32  1  0  0  0
 27 22  1  0  0  0
 12  1  1  0  0  0
 20 14  1  0  0  0
  9  3  1  0  0  0
  7 13  1  0  0  0
 19 21  1  0  0  0
M  END
> <minimizedAffinity>
9.52662

> <CNNscore>
0.4382583201

> <CNNaffinity>
7.8161492348

> <CNN_VS>
3.4254925251

> <CNNaffinity_variance>
1.3292722702

$$$$
[H]Oc1c([H])c([H])c([H])c(C2=C(C([H])([H])[H])c3c([H])c(O[H])c([H])c([H])c3OC2([H])c2c([H])c([H])c(OC([H])([H])C([H])([H])N3C([H])([H])C([H])(C([H])([H])[H])C3([H])[H])c([H])c2[H])c1[H]


 35 39  0  0  0  0  0  0  0  0999 V2000
   10.5595   46.9322  130.7485 C   0  0  0  0  0  0  0  0  0  0  0  0
   10.3269   48.2376  131.1421 O   0  0  0  0  0  0  0  0  0  0  0  0
    9.3307   49.0404  130.6947 C   0  0  0  0  0  0  0  0  0  0  0  0
    9.2099   50.3442  131.2100 C   0  0  0  0  0  0  0  0  0  0  0  0
    8.1988   51.1538  130.7575 C   0  0  0  0  0  0  0  0  0  0  0  0
    7.3254   50.6559  129.8022 C   0  0  0  0  0  0  0  0  0  0  0  0
    6.3223   51.5230  129.3866 O   0  0  0  0  0  0  0  0  0  0  0  0
    7.4438   49.3771  129.2957 C   0  0  0  0  0  0  0  0  0  0  0  0
    8.4512   48.5757  129.7473 C   0  0  0  0  0  0  0  0  0  0  0  0
    8.6928   47.1899  129.2994 C   0  0  0  0  0  0  0  0  0  0  0  0
    7.7810   46.7191  128.1773 C   0  0  0  0  0  0  0  0  0  0  0  0
    9.6731   46.4346  129.7702 C   0  0  0  0  0  0  0  0  0  0  0  0
    5.4541   51.5000  129.8994 H   0  0  0  0  0  0  0  0  0  0  0  0
    9.7072   45.0687  129.1851 C   0  0  0  0  0  0  0  0  0  0  0  0
   10.4526   44.8443  128.0198 C   0  0  0  0  0  0  0  0  0  0  0  0
   10.5500   43.5994  127.4372 C   0  0  0  0  0  0  0  0  0  0  0  0
    9.9012   42.5158  127.9996 C   0  0  0  0  0  0  0  0  0  0  0  0
    9.1677   42.7172  129.1398 C   0  0  0  0  0  0  0  0  0  0  0  0
    8.5094   41.6425  129.7174 O   0  0  0  0  0  0  0  0  0  0  0  0
    9.0830   43.9669  129.7059 C   0  0  0  0  0  0  0  0  0  0  0  0
    9.0148   41.1004  130.4174 H   0  0  0  0  0  0  0  0  0  0  0  0
   11.5422   44.4057  134.0621 C   0  0  0  0  0  0  0  0  0  0  0  0
   12.3505   45.5419  133.8104 C   0  0  0  0  0  0  0  0  0  0  0  0
   12.0410   46.3620  132.7506 C   0  0  0  0  0  0  0  0  0  0  0  0
   11.0128   46.1808  131.9077 C   0  0  0  0  0  0  0  0  0  0  0  0
   10.2146   45.0450  132.1702 C   0  0  0  0  0  0  0  0  0  0  0  0
   10.5008   44.1963  133.2330 C   0  0  0  0  0  0  0  0  0  0  0  0
   11.8522   43.5986  135.1168 O   0  0  0  0  0  0  0  0  0  0  0  0
   11.3026   43.6359  136.3734 C   0  0  0  0  0  0  0  0  0  0  0  0
   10.1799   44.6215  136.5833 C   0  0  0  0  0  0  0  0  0  0  0  0
    7.7775   47.9014  135.8044 C   0  0  0  0  0  0  0  0  0  0  0  0
    8.8000   47.1570  134.9590 C   0  0  0  0  0  0  0  0  0  0  0  0
   10.1052   46.8819  135.6464 C   0  0  0  0  0  0  0  0  0  0  0  0
   10.0346   45.4536  135.3727 N   0  0  0  0  0  0  0  0  0  0  0  0
    8.6113   45.6673  135.0495 C   0  0  0  0  0  0  0  0  0  0  0  0
 31 32  1  0  0  0
 32 33  1  0  0  0
 33 34  1  0  0  0
 34 30  1  0  0  0
 30 29  1  0  0  0
 29 28  1  0  0  0
 28 22  1  0  0  0
 22 23  2  0  0  0
 23 24  1  0  0  0
 24 25  2  0  0  0
 25 26  1  0  0  0
 26 27  2  0  0  0
 25  1  1  0  0  0
  1  2  1  0  0  0
  2  3  1  0  0  0
  3  4  2  0  0  0
  4  5  1  0  0  0
  5  6  2  0  0  0
  6  7  1  0  0  0
  6  8  1  0  0  0
  8  9  2  0  0  0
  9 10  1  0  0  0
 10 11  1  0  0  0
 10 12  2  0  0  0
 12 14  1  0  0  0
 14 15  2  0  0  0
 15 16  1  0  0  0
 16 17  2  0  0  0
 17 18  1  0  0  0
 18 19  1  0  0  0
 18 20  2  0  0  0
 34 35  1  0  0  0
 35 32  1  0  0  0
 27 22  1  0  0  0
 12  1  1  0  0  0
 20 14  1  0  0  0
  9  3  1  0  0  0
  7 13  1  0  0  0
 19 21  1  0  0  0
M  END
> <minimizedAffinity>
2.51588

> <CNNscore>
0.4359799922

> <CNNaffinity>
7.8993806839

> <CNN_VS>
3.4439718723

> <CNNaffinity_variance>
0.7914116383

$$$$
[H]Oc1c([H])c([H])c([H])c(C2=C(C([H])([H])[H])c3c([H])c(O[H])c([H])c([H])c3OC2([H])c2c([H])c([H])c(OC([H])([H])C([H])([H])N3C([H])([H])C([H])(C([H])([H])[H])C3([H])[H])c([H])c2[H])c1[H]


 35 39  0  0  0  0  0  0  0  0999 V2000
   10.4593   45.6800  130.5028 C   0  0  0  0  0  0  0  0  0  0  0  0
   10.5288   45.0403  129.2785 O   0  0  0  0  0  0  0  0  0  0  0  0
   10.3326   43.7176  129.0569 C   0  0  0  0  0  0  0  0  0  0  0  0
   10.4150   43.2172  127.7443 C   0  0  0  0  0  0  0  0  0  0  0  0
   10.2132   41.8784  127.5226 C   0  0  0  0  0  0  0  0  0  0  0  0
    9.9330   41.0597  128.6064 C   0  0  0  0  0  0  0  0  0  0  0  0
    9.7366   39.7150  128.3162 O   0  0  0  0  0  0  0  0  0  0  0  0
    9.8527   41.5499  129.8944 C   0  0  0  0  0  0  0  0  0  0  0  0
   10.0553   42.8814  130.1109 C   0  0  0  0  0  0  0  0  0  0  0  0
    9.9946   43.5411  131.4303 C   0  0  0  0  0  0  0  0  0  0  0  0
    9.7907   42.5944  132.6027 C   0  0  0  0  0  0  0  0  0  0  0  0
   10.1826   44.8403  131.6023 C   0  0  0  0  0  0  0  0  0  0  0  0
    8.7935   39.4229  128.1100 H   0  0  0  0  0  0  0  0  0  0  0  0
   10.0537   45.2795  133.0164 C   0  0  0  0  0  0  0  0  0  0  0  0
   10.9790   44.8164  133.9616 C   0  0  0  0  0  0  0  0  0  0  0  0
   10.9356   45.2019  135.2837 C   0  0  0  0  0  0  0  0  0  0  0  0
    9.9572   46.0751  135.7216 C   0  0  0  0  0  0  0  0  0  0  0  0
    9.0440   46.5384  134.8105 C   0  0  0  0  0  0  0  0  0  0  0  0
    8.0551   47.4139  135.2317 O   0  0  0  0  0  0  0  0  0  0  0  0
    9.1042   46.1418  133.4958 C   0  0  0  0  0  0  0  0  0  0  0  0
    8.2580   48.4120  135.1864 H   0  0  0  0  0  0  0  0  0  0  0  0
    9.0070   49.6995  130.2502 C   0  0  0  0  0  0  0  0  0  0  0  0
    8.5014   48.7356  129.3429 C   0  0  0  0  0  0  0  0  0  0  0  0
    8.9588   47.4407  129.4183 C   0  0  0  0  0  0  0  0  0  0  0  0
    9.8664   46.9917  130.2986 C   0  0  0  0  0  0  0  0  0  0  0  0
   10.3618   47.9624  131.1977 C   0  0  0  0  0  0  0  0  0  0  0  0
    9.9202   49.2793  131.1475 C   0  0  0  0  0  0  0  0  0  0  0  0
    8.5466   50.9808  130.1727 O   0  0  0  0  0  0  0  0  0  0  0  0
    7.5234   51.4433  129.3843 C   0  0  0  0  0  0  0  0  0  0  0  0
    6.2278   51.7616  130.0886 C   0  0  0  0  0  0  0  0  0  0  0  0
    5.6986   48.1207  128.1914 C   0  0  0  0  0  0  0  0  0  0  0  0
    5.3347   48.6122  129.5843 C   0  0  0  0  0  0  0  0  0  0  0  0
    6.4358   49.3322  130.3059 C   0  0  0  0  0  0  0  0  0  0  0  0
    5.6090   50.5048  130.5537 N   0  0  0  0  0  0  0  0  0  0  0  0
    4.6835   49.9675  129.5386 C   0  0  0  0  0  0  0  0  0  0  0  0
 31 32  1  0  0  0
 32 33  1  0  0  0
 33 34  1  0  0  0
 34 30  1  0  0  0
 30 29  1  0  0  0
 29 28  1  0  0  0
 28 22  1  0  0  0
 22 23  2  0  0  0
 23 24  1  0  0  0
 24 25  2  0  0  0
 25 26  1  0  0  0
 26 27  2  0  0  0
 25  1  1  0  0  0
  1  2  1  0  0  0
  2  3  1  0  0  0
  3  4  2  0  0  0
  4  5  1  0  0  0
  5  6  2  0  0  0
  6  7  1  0  0  0
  6  8  1  0  0  0
  8  9  2  0  0  0
  9 10  1  0  0  0
 10 11  1  0  0  0
 10 12  2  0  0  0
 12 14  1  0  0  0
 14 15  2  0  0  0
 15 16  1  0  0  0
 16 17  2  0  0  0
 17 18  1  0  0  0
 18 19  1  0  0  0
 18 20  2  0  0  0
 34 35  1  0  0  0
 35 32  1  0  0  0
 27 22  1  0  0  0
 12  1  1  0  0  0
 20 14  1  0  0  0
  9  3  1  0  0  0
  7 13  1  0  0  0
 19 21  1  0  0  0
M  END
> <minimizedAffinity>
7.83749

> <CNNscore>
0.4102681875

> <CNNaffinity>
7.7714357376

> <CNN_VS>
3.1883728504

> <CNNaffinity_variance>
0.8485963941

$$$$
[H]Oc1c([H])c([H])c([H])c(C2=C(C([H])([H])[H])c3c([H])c(O[H])c([H])c([H])c3OC2([H])c2c([H])c([H])c(OC([H])([H])C([H])([H])N3C([H])([H])C([H])(C([H])([H])[H])C3([H])[H])c([H])c2[H])c1[H]


 35 39  0  0  0  0  0  0  0  0999 V2000
    9.9240   47.2615  130.8751 C   0  0  0  0  0  0  0  0  0  0  0  0
   10.6638   46.7865  131.9428 O   0  0  0  0  0  0  0  0  0  0  0  0
   10.3914   46.9884  133.2551 C   0  0  0  0  0  0  0  0  0  0  0  0
   11.2299   46.4180  134.2306 C   0  0  0  0  0  0  0  0  0  0  0  0
   10.9502   46.6216  135.5582 C   0  0  0  0  0  0  0  0  0  0  0  0
    9.8437   47.3871  135.8949 C   0  0  0  0  0  0  0  0  0  0  0  0
    9.6128   47.5544  137.2549 O   0  0  0  0  0  0  0  0  0  0  0  0
    9.0211   47.9474  134.9384 C   0  0  0  0  0  0  0  0  0  0  0  0
    9.3034   47.7438  133.6193 C   0  0  0  0  0  0  0  0  0  0  0  0
    8.5098   48.2763  132.4941 C   0  0  0  0  0  0  0  0  0  0  0  0
    7.3697   49.1958  132.9026 C   0  0  0  0  0  0  0  0  0  0  0  0
    8.8049   48.0466  131.2240 C   0  0  0  0  0  0  0  0  0  0  0  0
    9.0252   46.8713  137.7082 H   0  0  0  0  0  0  0  0  0  0  0  0
    7.8518   48.6690  130.2683 C   0  0  0  0  0  0  0  0  0  0  0  0
    6.7906   47.9032  129.7670 C   0  0  0  0  0  0  0  0  0  0  0  0
    5.8552   48.4218  128.8983 C   0  0  0  0  0  0  0  0  0  0  0  0
    5.9408   49.7399  128.4902 C   0  0  0  0  0  0  0  0  0  0  0  0
    6.9723   50.5038  128.9710 C   0  0  0  0  0  0  0  0  0  0  0  0
    7.0748   51.8275  128.5720 O   0  0  0  0  0  0  0  0  0  0  0  0
    7.8954   49.9678  129.8370 C   0  0  0  0  0  0  0  0  0  0  0  0
    6.5996   52.5293  129.1387 H   0  0  0  0  0  0  0  0  0  0  0  0
    9.4908   44.1561  127.9599 C   0  0  0  0  0  0  0  0  0  0  0  0
   10.6617   44.9536  127.9349 C   0  0  0  0  0  0  0  0  0  0  0  0
   10.8122   45.9514  128.8694 C   0  0  0  0  0  0  0  0  0  0  0  0
    9.9263   46.2482  129.8325 C   0  0  0  0  0  0  0  0  0  0  0  0
    8.7639   45.4453  129.8468 C   0  0  0  0  0  0  0  0  0  0  0  0
    8.5815   44.4292  128.9162 C   0  0  0  0  0  0  0  0  0  0  0  0
    9.3493   43.1660  127.0329 O   0  0  0  0  0  0  0  0  0  0  0  0
    9.7633   41.8630  127.1481 C   0  0  0  0  0  0  0  0  0  0  0  0
    9.8857   41.3217  128.5509 C   0  0  0  0  0  0  0  0  0  0  0  0
   11.1324   41.6576  132.4840 C   0  0  0  0  0  0  0  0  0  0  0  0
   10.4293   42.6273  131.5461 C   0  0  0  0  0  0  0  0  0  0  0  0
   11.0406   42.7376  130.1802 C   0  0  0  0  0  0  0  0  0  0  0  0
    9.7827   42.4386  129.5107 N   0  0  0  0  0  0  0  0  0  0  0  0
    9.2918   41.9644  130.8183 C   0  0  0  0  0  0  0  0  0  0  0  0
 31 32  1  0  0  0
 32 33  1  0  0  0
 33 34  1  0  0  0
 34 30  1  0  0  0
 30 29  1  0  0  0
 29 28  1  0  0  0
 28 22  1  0  0  0
 22 23  2  0  0  0
 23 24  1  0  0  0
 24 25  2  0  0  0
 25 26  1  0  0  0
 26 27  2  0  0  0
 25  1  1  0  0  0
  1  2  1  0  0  0
  2  3  1  0  0  0
  3  4  2  0  0  0
  4  5  1  0  0  0
  5  6  2  0  0  0
  6  7  1  0  0  0
  6  8  1  0  0  0
  8  9  2  0  0  0
  9 10  1  0  0  0
 10 11  1  0  0  0
 10 12  2  0  0  0
 12 14  1  0  0  0
 14 15  2  0  0  0
 15 16  1  0  0  0
 16 17  2  0  0  0
 17 18  1  0  0  0
 18 19  1  0  0  0
 18 20  2  0  0  0
 34 35  1  0  0  0
 35 32  1  0  0  0
 27 22  1  0  0  0
 12  1  1  0  0  0
 20 14  1  0  0  0
  9  3  1  0  0  0
  7 13  1  0  0  0
 19 21  1  0  0  0
M  END
> <minimizedAffinity>
9.05661

> <CNNscore>
0.3998848498

> <CNNaffinity>
7.7312316895

> <CNN_VS>
3.0916023254

> <CNNaffinity_variance>
1.8157085180

$$$$
[H]Oc1c([H])c([H])c([H])c(C2=C(C([H])([H])[H])c3c([H])c(O[H])c([H])c([H])c3OC2([H])c2c([H])c([H])c(OC([H])([H])C([H])([H])N3C([H])([H])C([H])(C([H])([H])[H])C3([H])[H])c([H])c2[H])c1[H]


 35 39  0  0  0  0  0  0  0  0999 V2000
    8.4826   46.3330  131.4887 C   0  0  0  0  0  0  0  0  0  0  0  0
    8.2538   46.5975  132.8269 O   0  0  0  0  0  0  0  0  0  0  0  0
    8.9273   46.0597  133.8731 C   0  0  0  0  0  0  0  0  0  0  0  0
    8.5918   46.4474  135.1835 C   0  0  0  0  0  0  0  0  0  0  0  0
    9.2770   45.9036  136.2405 C   0  0  0  0  0  0  0  0  0  0  0  0
   10.2829   44.9853  135.9791 C   0  0  0  0  0  0  0  0  0  0  0  0
   10.9406   44.4729  137.0908 O   0  0  0  0  0  0  0  0  0  0  0  0
   10.6120   44.6041  134.6938 C   0  0  0  0  0  0  0  0  0  0  0  0
    9.9275   45.1460  133.6456 C   0  0  0  0  0  0  0  0  0  0  0  0
   10.1759   44.8352  132.2238 C   0  0  0  0  0  0  0  0  0  0  0  0
   11.2115   43.7477  131.9851 C   0  0  0  0  0  0  0  0  0  0  0  0
    9.5010   45.3916  131.2299 C   0  0  0  0  0  0  0  0  0  0  0  0
   11.7569   44.9712  137.4112 H   0  0  0  0  0  0  0  0  0  0  0  0
    9.9401   44.9389  129.8840 C   0  0  0  0  0  0  0  0  0  0  0  0
   10.9060   45.6846  129.1949 C   0  0  0  0  0  0  0  0  0  0  0  0
   11.3783   45.3104  127.9558 C   0  0  0  0  0  0  0  0  0  0  0  0
   10.9014   44.1643  127.3470 C   0  0  0  0  0  0  0  0  0  0  0  0
    9.9565   43.4226  128.0069 C   0  0  0  0  0  0  0  0  0  0  0  0
    9.4660   42.2707  127.4114 O   0  0  0  0  0  0  0  0  0  0  0  0
    9.4982   43.8127  129.2426 C   0  0  0  0  0  0  0  0  0  0  0  0
    9.9515   41.3956  127.6056 H   0  0  0  0  0  0  0  0  0  0  0  0
    7.6447   49.7043  128.9865 C   0  0  0  0  0  0  0  0  0  0  0  0
    8.4183   49.9020  130.1570 C   0  0  0  0  0  0  0  0  0  0  0  0
    8.6962   48.8247  130.9656 C   0  0  0  0  0  0  0  0  0  0  0  0
    8.2910   47.5654  130.7415 C   0  0  0  0  0  0  0  0  0  0  0  0
    7.5212   47.3819  129.5711 C   0  0  0  0  0  0  0  0  0  0  0  0
    7.2227   48.4499  128.7332 C   0  0  0  0  0  0  0  0  0  0  0  0
    7.3757   50.7759  128.1870 O   0  0  0  0  0  0  0  0  0  0  0  0
    7.2243   52.0814  128.5809 C   0  0  0  0  0  0  0  0  0  0  0  0
    6.3784   52.9555  127.6885 C   0  0  0  0  0  0  0  0  0  0  0  0
    7.7695   53.7206  123.8654 C   0  0  0  0  0  0  0  0  0  0  0  0
    7.9314   54.4649  125.1823 C   0  0  0  0  0  0  0  0  0  0  0  0
    6.6604   54.6612  125.9553 C   0  0  0  0  0  0  0  0  0  0  0  0
    7.2102   54.0541  127.1591 N   0  0  0  0  0  0  0  0  0  0  0  0
    8.2917   53.5296  126.3041 C   0  0  0  0  0  0  0  0  0  0  0  0
 31 32  1  0  0  0
 32 33  1  0  0  0
 33 34  1  0  0  0
 34 30  1  0  0  0
 30 29  1  0  0  0
 29 28  1  0  0  0
 28 22  1  0  0  0
 22 23  2  0  0  0
 23 24  1  0  0  0
 24 25  2  0  0  0
 25 26  1  0  0  0
 26 27  2  0  0  0
 25  1  1  0  0  0
  1  2  1  0  0  0
  2  3  1  0  0  0
  3  4  2  0  0  0
  4  5  1  0  0  0
  5  6  2  0  0  0
  6  7  1  0  0  0
  6  8  1  0  0  0
  8  9  2  0  0  0
  9 10  1  0  0  0
 10 11  1  0  0  0
 10 12  2  0  0  0
 12 14  1  0  0  0
 14 15  2  0  0  0
 15 16  1  0  0  0
 16 17  2  0  0  0
 17 18  1  0  0  0
 18 19  1  0  0  0
 18 20  2  0  0  0
 34 35  1  0  0  0
 35 32  1  0  0  0
 27 22  1  0  0  0
 12  1  1  0  0  0
 20 14  1  0  0  0
  9  3  1  0  0  0
  7 13  1  0  0  0
 19 21  1  0  0  0
M  END
> <minimizedAffinity>
0.85818

> <CNNscore>
0.3986858130

> <CNNaffinity>
7.4971504211

> <CNN_VS>
2.9890074730

> <CNNaffinity_variance>
0.8268340230

$$$$
[H]Oc1c([H])c([H])c([H])c(C2=C(C([H])([H])[H])c3c([H])c(O[H])c([H])c([H])c3OC2([H])c2c([H])c([H])c(OC([H])([H])C([H])([H])N3C([H])([H])C([H])(C([H])([H])[H])C3([H])[H])c([H])c2[H])c1[H]


 35 39  0  0  0  0  0  0  0  0999 V2000
    8.7367   44.8837  130.8450 C   0  0  0  0  0  0  0  0  0  0  0  0
    7.8537   44.3999  131.7933 O   0  0  0  0  0  0  0  0  0  0  0  0
    8.0783   43.3636  132.6376 C   0  0  0  0  0  0  0  0  0  0  0  0
    7.0859   43.0023  133.5674 C   0  0  0  0  0  0  0  0  0  0  0  0
    7.3171   41.9548  134.4228 C   0  0  0  0  0  0  0  0  0  0  0  0
    8.5284   41.2843  134.3409 C   0  0  0  0  0  0  0  0  0  0  0  0
    8.7027   40.2350  135.2351 O   0  0  0  0  0  0  0  0  0  0  0  0
    9.5021   41.6378  133.4285 C   0  0  0  0  0  0  0  0  0  0  0  0
    9.2679   42.6791  132.5788 C   0  0  0  0  0  0  0  0  0  0  0  0
   10.2183   43.1678  131.5602 C   0  0  0  0  0  0  0  0  0  0  0  0
   11.4880   42.3413  131.4308 C   0  0  0  0  0  0  0  0  0  0  0  0
    9.9634   44.1919  130.7607 C   0  0  0  0  0  0  0  0  0  0  0  0
    9.1167   40.4566  136.1277 H   0  0  0  0  0  0  0  0  0  0  0  0
   11.0769   44.5137  129.8302 C   0  0  0  0  0  0  0  0  0  0  0  0
   10.7801   45.0595  128.5741 C   0  0  0  0  0  0  0  0  0  0  0  0
   11.7622   45.4055  127.6717 C   0  0  0  0  0  0  0  0  0  0  0  0
   13.0949   45.2197  127.9891 C   0  0  0  0  0  0  0  0  0  0  0  0
   13.4035   44.6871  129.2138 C   0  0  0  0  0  0  0  0  0  0  0  0
   14.7345   44.4927  129.5492 O   0  0  0  0  0  0  0  0  0  0  0  0
   12.4091   44.3484  130.1003 C   0  0  0  0  0  0  0  0  0  0  0  0
   15.2192   45.2565  130.0193 H   0  0  0  0  0  0  0  0  0  0  0  0
    8.1582   49.0836  130.2487 C   0  0  0  0  0  0  0  0  0  0  0  0
    8.6487   48.6358  131.5003 C   0  0  0  0  0  0  0  0  0  0  0  0
    8.8416   47.2888  131.7007 C   0  0  0  0  0  0  0  0  0  0  0  0
    8.6017   46.3303  130.7929 C   0  0  0  0  0  0  0  0  0  0  0  0
    8.1138   46.7902  129.5492 C   0  0  0  0  0  0  0  0  0  0  0  0
    7.9078   48.1447  129.3152 C   0  0  0  0  0  0  0  0  0  0  0  0
    7.9727   50.4207  130.0552 O   0  0  0  0  0  0  0  0  0  0  0  0
    6.8461   51.0353  129.5699 C   0  0  0  0  0  0  0  0  0  0  0  0
    6.8544   51.3846  128.1023 C   0  0  0  0  0  0  0  0  0  0  0  0
    6.1826   54.6278  125.6191 C   0  0  0  0  0  0  0  0  0  0  0  0
    7.2773   54.3213  126.6300 C   0  0  0  0  0  0  0  0  0  0  0  0
    6.7869   53.8275  127.9593 C   0  0  0  0  0  0  0  0  0  0  0  0
    7.6176   52.6329  127.9068 N   0  0  0  0  0  0  0  0  0  0  0  0
    7.7983   52.9191  126.4711 C   0  0  0  0  0  0  0  0  0  0  0  0
 31 32  1  0  0  0
 32 33  1  0  0  0
 33 34  1  0  0  0
 34 30  1  0  0  0
 30 29  1  0  0  0
 29 28  1  0  0  0
 28 22  1  0  0  0
 22 23  2  0  0  0
 23 24  1  0  0  0
 24 25  2  0  0  0
 25 26  1  0  0  0
 26 27  2  0  0  0
 25  1  1  0  0  0
  1  2  1  0  0  0
  2  3  1  0  0  0
  3  4  2  0  0  0
  4  5  1  0  0  0
  5  6  2  0  0  0
  6  7  1  0  0  0
  6  8  1  0  0  0
  8  9  2  0  0  0
  9 10  1  0  0  0
 10 11  1  0  0  0
 10 12  2  0  0  0
 12 14  1  0  0  0
 14 15  2  0  0  0
 15 16  1  0  0  0
 16 17  2  0  0  0
 17 18  1  0  0  0
 18 19  1  0  0  0
 18 20  2  0  0  0
 34 35  1  0  0  0
 35 32  1  0  0  0
 27 22  1  0  0  0
 12  1  1  0  0  0
 20 14  1  0  0  0
  9  3  1  0  0  0
  7 13  1  0  0  0
 19 21  1  0  0  0
M  END
> <minimizedAffinity>
15.87223

> <CNNscore>
0.3905627131

> <CNNaffinity>
7.2654533386

> <CNN_VS>
2.8376152515

> <CNNaffinity_variance>
1.7321994305

$$$$
[H]Oc1c([H])c([H])c2c(Oc3c([H])c([H])c(/C([H])=C(\[H])c4nnc(C([H])([H])C([H])([H])C([H])([H])[H])o4)c([H])c3[H])c(-c3c([H])c([H])c([H])c([H])c3C([H])(C([H])([H])[H])C([H])([H])[H])sc2c1[H]


 37 41  0  0  0  0  0  0  0  0999 V2000
    8.3233   46.9655  131.4668 C   0  0  0  0  0  0  0  0  0  0  0  0
    9.4041   47.1222  132.3011 C   0  0  0  0  0  0  0  0  0  0  0  0
    9.7610   48.7826  132.0912 S   0  0  0  0  0  0  0  0  0  0  0  0
    8.5675   49.2217  130.9815 C   0  0  0  0  0  0  0  0  0  0  0  0
    8.2403   50.4292  130.3492 C   0  0  0  0  0  0  0  0  0  0  0  0
    7.1792   50.4821  129.4677 C   0  0  0  0  0  0  0  0  0  0  0  0
    6.7801   51.6207  128.7976 O   0  0  0  0  0  0  0  0  0  0  0  0
    6.4932   49.3124  129.2610 C   0  0  0  0  0  0  0  0  0  0  0  0
    6.8193   48.1369  129.8828 C   0  0  0  0  0  0  0  0  0  0  0  0
    7.8963   48.0612  130.7844 C   0  0  0  0  0  0  0  0  0  0  0  0
    7.2191   51.7833  127.8799 H   0  0  0  0  0  0  0  0  0  0  0  0
   10.0186   46.1190  133.1880 C   0  0  0  0  0  0  0  0  0  0  0  0
    9.4059   45.7782  134.3762 C   0  0  0  0  0  0  0  0  0  0  0  0
    9.9926   44.9317  135.2980 C   0  0  0  0  0  0  0  0  0  0  0  0
   11.2212   44.3933  135.0557 C   0  0  0  0  0  0  0  0  0  0  0  0
   11.8510   44.7121  133.8808 C   0  0  0  0  0  0  0  0  0  0  0  0
   11.2452   45.5738  132.9532 C   0  0  0  0  0  0  0  0  0  0  0  0
   12.0279   45.7847  131.7069 C   0  0  0  0  0  0  0  0  0  0  0  0
   12.7267   44.4649  131.3036 C   0  0  0  0  0  0  0  0  0  0  0  0
   11.0775   46.0612  130.5319 C   0  0  0  0  0  0  0  0  0  0  0  0
    7.6914   45.6887  131.3515 O   0  0  0  0  0  0  0  0  0  0  0  0
    9.4830   42.9056  128.7383 C   0  0  0  0  0  0  0  0  0  0  0  0
    9.0580   44.1493  128.3281 C   0  0  0  0  0  0  0  0  0  0  0  0
    8.4678   45.0428  129.2285 C   0  0  0  0  0  0  0  0  0  0  0  0
    8.2921   44.7112  130.5536 C   0  0  0  0  0  0  0  0  0  0  0  0
    8.7046   43.4906  130.9770 C   0  0  0  0  0  0  0  0  0  0  0  0
    9.2890   42.6047  130.0859 C   0  0  0  0  0  0  0  0  0  0  0  0
    9.6192   40.7234  127.6533 C   0  0  0  0  0  0  0  0  0  0  0  0
   10.1016   41.9283  127.8503 C   0  0  0  0  0  0  0  0  0  0  0  0
   11.8928   38.6218  125.8628 C   0  0  0  0  0  0  0  0  0  0  0  0
   10.7978   38.5106  125.1089 N   0  0  0  0  0  0  0  0  0  0  0  0
    9.8306   39.2396  125.6327 N   0  0  0  0  0  0  0  0  0  0  0  0
   10.3219   39.8227  126.7379 C   0  0  0  0  0  0  0  0  0  0  0  0
   11.5816   39.4181  126.8389 O   0  0  0  0  0  0  0  0  0  0  0  0
   13.1818   37.9357  125.5751 C   0  0  0  0  0  0  0  0  0  0  0  0
   13.3738   40.2884  124.9141 C   0  0  0  0  0  0  0  0  0  0  0  0
   13.9436   38.8905  124.6515 C   0  0  0  0  0  0  0  0  0  0  0  0
 36 37  1  0  0  0
 37 35  1  0  0  0
 35 30  1  0  0  0
 30 31  2  0  0  0
 31 32  1  0  0  0
 32 33  2  0  0  0
 33 28  1  0  0  0
 28 29  2  0  0  0
 29 22  1  0  0  0
 22 23  2  0  0  0
 23 24  1  0  0  0
 24 25  2  0  0  0
 25 21  1  0  0  0
 21  1  1  0  0  0
  1  2  2  0  0  0
  2  3  1  0  0  0
  3  4  1  0  0  0
  4  5  2  0  0  0
  5  6  1  0  0  0
  6  7  1  0  0  0
  6  8  2  0  0  0
  8  9  1  0  0  0
  9 10  2  0  0  0
  2 12  1  0  0  0
 12 13  2  0  0  0
 13 14  1  0  0  0
 14 15  2  0  0  0
 15 16  1  0  0  0
 16 17  2  0  0  0
 17 18  1  0  0  0
 18 19  1  0  0  0
 18 20  1  0  0  0
 25 26  1  0  0  0
 26 27  2  0  0  0
 33 34  1  0  0  0
 34 30  1  0  0  0
 27 22  1  0  0  0
 10  1  1  0  0  0
 17 12  1  0  0  0
 10  4  1  0  0  0
  7 11  1  0  0  0
M  END
> <minimizedAffinity>
9.65629

> <CNNscore>
0.5887477398

> <CNNaffinity>
8.5883026123

> <CNN_VS>
5.0563435555

> <CNNaffinity_variance>
0.8814697266

$$$$
[H]Oc1c([H])c([H])c2c(Oc3c([H])c([H])c(/C([H])=C(\[H])c4nnc(C([H])([H])C([H])([H])C([H])([H])[H])o4)c([H])c3[H])c(-c3c([H])c([H])c([H])c([H])c3C([H])(C([H])([H])[H])C([H])([H])[H])sc2c1[H]


 37 41  0  0  0  0  0  0  0  0999 V2000
    8.5946   47.2243  131.0168 C   0  0  0  0  0  0  0  0  0  0  0  0
    9.8279   47.3386  131.6125 C   0  0  0  0  0  0  0  0  0  0  0  0
   10.1665   49.0003  131.3832 S   0  0  0  0  0  0  0  0  0  0  0  0
    8.7777   49.4923  130.5598 C   0  0  0  0  0  0  0  0  0  0  0  0
    8.3506   50.7245  130.0460 C   0  0  0  0  0  0  0  0  0  0  0  0
    7.1310   50.8211  129.4065 C   0  0  0  0  0  0  0  0  0  0  0  0
    6.6243   51.9868  128.8688 O   0  0  0  0  0  0  0  0  0  0  0  0
    6.3940   49.6682  129.3118 C   0  0  0  0  0  0  0  0  0  0  0  0
    6.8184   48.4682  129.8164 C   0  0  0  0  0  0  0  0  0  0  0  0
    8.0573   48.3480  130.4716 C   0  0  0  0  0  0  0  0  0  0  0  0
    6.8665   52.1744  127.8852 H   0  0  0  0  0  0  0  0  0  0  0  0
   10.5929   46.2981  132.3215 C   0  0  0  0  0  0  0  0  0  0  0  0
   11.6113   45.6277  131.6761 C   0  0  0  0  0  0  0  0  0  0  0  0
   12.2839   44.5666  132.2526 C   0  0  0  0  0  0  0  0  0  0  0  0
   11.9563   44.1413  133.5055 C   0  0  0  0  0  0  0  0  0  0  0  0
   10.9505   44.7922  134.1713 C   0  0  0  0  0  0  0  0  0  0  0  0
   10.2743   45.8677  133.5746 C   0  0  0  0  0  0  0  0  0  0  0  0
    9.2439   46.5022  134.4384 C   0  0  0  0  0  0  0  0  0  0  0  0
    7.8973   45.7598  134.2702 C   0  0  0  0  0  0  0  0  0  0  0  0
    9.5929   46.2819  135.9183 C   0  0  0  0  0  0  0  0  0  0  0  0
    7.9273   45.9607  130.9969 O   0  0  0  0  0  0  0  0  0  0  0  0
    9.6668   42.9909  128.5599 C   0  0  0  0  0  0  0  0  0  0  0  0
    9.5924   44.3142  128.1870 C   0  0  0  0  0  0  0  0  0  0  0  0
    9.0061   45.2679  129.0263 C   0  0  0  0  0  0  0  0  0  0  0  0
    8.4848   44.9179  130.2521 C   0  0  0  0  0  0  0  0  0  0  0  0
    8.5491   43.6191  130.6374 C   0  0  0  0  0  0  0  0  0  0  0  0
    9.1292   42.6737  129.8067 C   0  0  0  0  0  0  0  0  0  0  0  0
    9.6522   40.8238  127.4370 C   0  0  0  0  0  0  0  0  0  0  0  0
   10.2612   41.9490  127.7309 C   0  0  0  0  0  0  0  0  0  0  0  0
   11.8883   38.5392  125.8330 C   0  0  0  0  0  0  0  0  0  0  0  0
   10.8101   38.4265  125.0555 N   0  0  0  0  0  0  0  0  0  0  0  0
    9.8587   39.2201  125.5097 N   0  0  0  0  0  0  0  0  0  0  0  0
   10.3431   39.8464  126.5941 C   0  0  0  0  0  0  0  0  0  0  0  0
   11.5828   39.4012  126.7537 O   0  0  0  0  0  0  0  0  0  0  0  0
   13.1566   37.7899  125.6213 C   0  0  0  0  0  0  0  0  0  0  0  0
   13.4534   40.0925  124.8350 C   0  0  0  0  0  0  0  0  0  0  0  0
   13.9815   38.6635  124.6720 C   0  0  0  0  0  0  0  0  0  0  0  0
 36 37  1  0  0  0
 37 35  1  0  0  0
 35 30  1  0  0  0
 30 31  2  0  0  0
 31 32  1  0  0  0
 32 33  2  0  0  0
 33 28  1  0  0  0
 28 29  2  0  0  0
 29 22  1  0  0  0
 22 23  2  0  0  0
 23 24  1  0  0  0
 24 25  2  0  0  0
 25 21  1  0  0  0
 21  1  1  0  0  0
  1  2  2  0  0  0
  2  3  1  0  0  0
  3  4  1  0  0  0
  4  5  2  0  0  0
  5  6  1  0  0  0
  6  7  1  0  0  0
  6  8  2  0  0  0
  8  9  1  0  0  0
  9 10  2  0  0  0
  2 12  1  0  0  0
 12 13  2  0  0  0
 13 14  1  0  0  0
 14 15  2  0  0  0
 15 16  1  0  0  0
 16 17  2  0  0  0
 17 18  1  0  0  0
 18 19  1  0  0  0
 18 20  1  0  0  0
 25 26  1  0  0  0
 26 27  2  0  0  0
 33 34  1  0  0  0
 34 30  1  0  0  0
 27 22  1  0  0  0
 10  1  1  0  0  0
 17 12  1  0  0  0
 10  4  1  0  0  0
  7 11  1  0  0  0
M  END
> <minimizedAffinity>
10.18380

> <CNNscore>
0.5796176195

> <CNNaffinity>
8.4683771133

> <CNN_VS>
4.9084205627

> <CNNaffinity_variance>
0.9676789045

$$$$
[H]Oc1c([H])c([H])c2c(Oc3c([H])c([H])c(/C([H])=C(\[H])c4nnc(C([H])([H])C([H])([H])C([H])([H])[H])o4)c([H])c3[H])c(-c3c([H])c([H])c([H])c([H])c3C([H])(C([H])([H])[H])C([H])([H])[H])sc2c1[H]


 37 41  0  0  0  0  0  0  0  0999 V2000
    8.6158   47.7506  130.9824 C   0  0  0  0  0  0  0  0  0  0  0  0
    9.6935   47.9528  131.8110 C   0  0  0  0  0  0  0  0  0  0  0  0
    9.7454   49.6613  131.8948 S   0  0  0  0  0  0  0  0  0  0  0  0
    8.4394   50.0633  130.9040 C   0  0  0  0  0  0  0  0  0  0  0  0
    7.8760   51.2828  130.5040 C   0  0  0  0  0  0  0  0  0  0  0  0
    6.7789   51.2953  129.6661 C   0  0  0  0  0  0  0  0  0  0  0  0
    6.1548   52.4418  129.2180 O   0  0  0  0  0  0  0  0  0  0  0  0
    6.2972   50.0747  129.2665 C   0  0  0  0  0  0  0  0  0  0  0  0
    6.8534   48.8877  129.6618 C   0  0  0  0  0  0  0  0  0  0  0  0
    7.9711   48.8526  130.5151 C   0  0  0  0  0  0  0  0  0  0  0  0
    6.5122   52.8366  128.3361 H   0  0  0  0  0  0  0  0  0  0  0  0
   10.5168   46.9388  132.4926 C   0  0  0  0  0  0  0  0  0  0  0  0
   11.6745   46.4766  131.9017 C   0  0  0  0  0  0  0  0  0  0  0  0
   12.4225   45.4463  132.4398 C   0  0  0  0  0  0  0  0  0  0  0  0
   12.0323   44.8427  133.5981 C   0  0  0  0  0  0  0  0  0  0  0  0
   10.8877   45.2850  134.2086 C   0  0  0  0  0  0  0  0  0  0  0  0
   10.1362   46.3314  133.6516 C   0  0  0  0  0  0  0  0  0  0  0  0
    8.9499   46.7316  134.4534 C   0  0  0  0  0  0  0  0  0  0  0  0
    7.8540   45.6463  134.3355 C   0  0  0  0  0  0  0  0  0  0  0  0
    9.3019   46.7253  135.9489 C   0  0  0  0  0  0  0  0  0  0  0  0
    8.2106   46.4204  130.6525 O   0  0  0  0  0  0  0  0  0  0  0  0
   10.7581   43.8279  128.5139 C   0  0  0  0  0  0  0  0  0  0  0  0
   10.1001   43.4492  129.6625 C   0  0  0  0  0  0  0  0  0  0  0  0
    9.2637   44.3416  130.3420 C   0  0  0  0  0  0  0  0  0  0  0  0
    9.0688   45.6267  129.8867 C   0  0  0  0  0  0  0  0  0  0  0  0
    9.7080   46.0185  128.7565 C   0  0  0  0  0  0  0  0  0  0  0  0
   10.5370   45.1354  128.0830 C   0  0  0  0  0  0  0  0  0  0  0  0
   11.5523   42.7648  126.4653 C   0  0  0  0  0  0  0  0  0  0  0  0
   11.6450   42.9480  127.7619 C   0  0  0  0  0  0  0  0  0  0  0  0
   13.3523   40.0532  124.9823 C   0  0  0  0  0  0  0  0  0  0  0  0
   14.2212   41.0525  124.8208 N   0  0  0  0  0  0  0  0  0  0  0  0
   13.7110   42.1610  125.3230 N   0  0  0  0  0  0  0  0  0  0  0  0
   12.4974   41.8581  125.8113 C   0  0  0  0  0  0  0  0  0  0  0  0
   12.3208   40.5631  125.5820 O   0  0  0  0  0  0  0  0  0  0  0  0
   13.5917   38.6539  124.5356 C   0  0  0  0  0  0  0  0  0  0  0  0
   13.0213   38.2675  126.8881 C   0  0  0  0  0  0  0  0  0  0  0  0
   12.7331   37.7879  125.4617 C   0  0  0  0  0  0  0  0  0  0  0  0
 36 37  1  0  0  0
 37 35  1  0  0  0
 35 30  1  0  0  0
 30 31  2  0  0  0
 31 32  1  0  0  0
 32 33  2  0  0  0
 33 28  1  0  0  0
 28 29  2  0  0  0
 29 22  1  0  0  0
 22 23  2  0  0  0
 23 24  1  0  0  0
 24 25  2  0  0  0
 25 21  1  0  0  0
 21  1  1  0  0  0
  1  2  2  0  0  0
  2  3  1  0  0  0
  3  4  1  0  0  0
  4  5  2  0  0  0
  5  6  1  0  0  0
  6  7  1  0  0  0
  6  8  2  0  0  0
  8  9  1  0  0  0
  9 10  2  0  0  0
  2 12  1  0  0  0
 12 13  2  0  0  0
 13 14  1  0  0  0
 14 15  2  0  0  0
 15 16  1  0  0  0
 16 17  2  0  0  0
 17 18  1  0  0  0
 18 19  1  0  0  0
 18 20  1  0  0  0
 25 26  1  0  0  0
 26 27  2  0  0  0
 33 34  1  0  0  0
 34 30  1  0  0  0
 27 22  1  0  0  0
 10  1  1  0  0  0
 17 12  1  0  0  0
 10  4  1  0  0  0
  7 11  1  0  0  0
M  END
> <minimizedAffinity>
16.11663

> <CNNscore>
0.5343286991

> <CNNaffinity>
8.0843038559

> <CNN_VS>
4.3196754456

> <CNNaffinity_variance>
0.6733498573

$$$$
[H]Oc1c([H])c([H])c2c(Oc3c([H])c([H])c(/C([H])=C(\[H])c4nnc(C([H])([H])C([H])([H])C([H])([H])[H])o4)c([H])c3[H])c(-c3c([H])c([H])c([H])c([H])c3C([H])(C([H])([H])[H])C([H])([H])[H])sc2c1[H]


 37 41  0  0  0  0  0  0  0  0999 V2000
    9.0226   47.3197  130.8482 C   0  0  0  0  0  0  0  0  0  0  0  0
    8.3038   46.5363  131.7191 C   0  0  0  0  0  0  0  0  0  0  0  0
    6.8628   47.4441  131.8870 S   0  0  0  0  0  0  0  0  0  0  0  0
    7.2002   48.7562  130.8805 C   0  0  0  0  0  0  0  0  0  0  0  0
    6.4794   49.9043  130.5237 C   0  0  0  0  0  0  0  0  0  0  0  0
    7.0305   50.8233  129.6533 C   0  0  0  0  0  0  0  0  0  0  0  0
    6.4011   51.9810  129.2429 O   0  0  0  0  0  0  0  0  0  0  0  0
    8.2874   50.5445  129.1802 C   0  0  0  0  0  0  0  0  0  0  0  0
    8.9849   49.4206  129.5336 C   0  0  0  0  0  0  0  0  0  0  0  0
    8.4420   48.4716  130.4187 C   0  0  0  0  0  0  0  0  0  0  0  0
    6.5650   52.8158  129.8239 H   0  0  0  0  0  0  0  0  0  0  0  0
    8.6765   45.2258  132.2796 C   0  0  0  0  0  0  0  0  0  0  0  0
    8.0901   44.0745  131.7958 C   0  0  0  0  0  0  0  0  0  0  0  0
    8.3153   42.8330  132.3603 C   0  0  0  0  0  0  0  0  0  0  0  0
    9.1439   42.7040  133.4350 C   0  0  0  0  0  0  0  0  0  0  0  0
    9.7428   43.8314  133.9336 C   0  0  0  0  0  0  0  0  0  0  0  0
    9.5053   45.0866  133.3523 C   0  0  0  0  0  0  0  0  0  0  0  0
   10.2636   46.2053  133.9721 C   0  0  0  0  0  0  0  0  0  0  0  0
    9.9317   46.2837  135.4809 C   0  0  0  0  0  0  0  0  0  0  0  0
   11.7678   45.8935  133.9512 C   0  0  0  0  0  0  0  0  0  0  0  0
   10.3230   46.9052  130.4244 O   0  0  0  0  0  0  0  0  0  0  0  0
   10.9215   43.5721  127.9111 C   0  0  0  0  0  0  0  0  0  0  0  0
   11.9496   44.3874  128.3284 C   0  0  0  0  0  0  0  0  0  0  0  0
   11.7069   45.4842  129.1625 C   0  0  0  0  0  0  0  0  0  0  0  0
   10.4347   45.7858  129.5953 C   0  0  0  0  0  0  0  0  0  0  0  0
    9.4087   44.9942  129.1953 C   0  0  0  0  0  0  0  0  0  0  0  0
    9.6480   43.9079  128.3688 C   0  0  0  0  0  0  0  0  0  0  0  0
   12.2859   41.9617  126.6854 C   0  0  0  0  0  0  0  0  0  0  0  0
   11.1070   42.4174  127.0403 C   0  0  0  0  0  0  0  0  0  0  0  0
   11.7873   38.9802  124.7737 C   0  0  0  0  0  0  0  0  0  0  0  0
   13.0262   39.3122  124.4068 N   0  0  0  0  0  0  0  0  0  0  0  0
   13.3854   40.4181  125.0308 N   0  0  0  0  0  0  0  0  0  0  0  0
   12.3556   40.7929  125.8066 C   0  0  0  0  0  0  0  0  0  0  0  0
   11.4039   39.8876  125.6184 O   0  0  0  0  0  0  0  0  0  0  0  0
   11.0552   37.7867  124.2693 C   0  0  0  0  0  0  0  0  0  0  0  0
    8.8046   38.7487  124.4041 C   0  0  0  0  0  0  0  0  0  0  0  0
    9.9110   38.3502  123.4219 C   0  0  0  0  0  0  0  0  0  0  0  0
 36 37  1  0  0  0
 37 35  1  0  0  0
 35 30  1  0  0  0
 30 31  2  0  0  0
 31 32  1  0  0  0
 32 33  2  0  0  0
 33 28  1  0  0  0
 28 29  2  0  0  0
 29 22  1  0  0  0
 22 23  2  0  0  0
 23 24  1  0  0  0
 24 25  2  0  0  0
 25 21  1  0  0  0
 21  1  1  0  0  0
  1  2  2  0  0  0
  2  3  1  0  0  0
  3  4  1  0  0  0
  4  5  2  0  0  0
  5  6  1  0  0  0
  6  7  1  0  0  0
  6  8  2  0  0  0
  8  9  1  0  0  0
  9 10  2  0  0  0
  2 12  1  0  0  0
 12 13  2  0  0  0
 13 14  1  0  0  0
 14 15  2  0  0  0
 15 16  1  0  0  0
 16 17  2  0  0  0
 17 18  1  0  0  0
 18 19  1  0  0  0
 18 20  1  0  0  0
 25 26  1  0  0  0
 26 27  2  0  0  0
 33 34  1  0  0  0
 34 30  1  0  0  0
 27 22  1  0  0  0
 10  1  1  0  0  0
 17 12  1  0  0  0
 10  4  1  0  0  0
  7 11  1  0  0  0
M  END
> <minimizedAffinity>
19.47307

> <CNNscore>
0.4630137682

> <CNNaffinity>
8.0075817108

> <CNN_VS>
3.7076206207

> <CNNaffinity_variance>
1.3398996592

$$$$
[H]Oc1c([H])c([H])c2c(Oc3c([H])c([H])c(/C([H])=C(\[H])c4nnc(C([H])([H])C([H])([H])C([H])([H])[H])o4)c([H])c3[H])c(-c3c([H])c([H])c([H])c([H])c3C([H])(C([H])([H])[H])C([H])([H])[H])sc2c1[H]


 37 41  0  0  0  0  0  0  0  0999 V2000
   10.3096   44.3040  130.9323 C   0  0  0  0  0  0  0  0  0  0  0  0
   10.3098   44.2721  132.3063 C   0  0  0  0  0  0  0  0  0  0  0  0
   11.9742   44.0616  132.6440 S   0  0  0  0  0  0  0  0  0  0  0  0
   12.6079   44.0179  131.0802 C   0  0  0  0  0  0  0  0  0  0  0  0
   13.9064   43.8707  130.5731 C   0  0  0  0  0  0  0  0  0  0  0  0
   14.1201   43.8763  129.2092 C   0  0  0  0  0  0  0  0  0  0  0  0
   15.3581   43.7387  128.6149 O   0  0  0  0  0  0  0  0  0  0  0  0
   13.0128   44.0296  128.4144 C   0  0  0  0  0  0  0  0  0  0  0  0
   11.7476   44.1728  128.9178 C   0  0  0  0  0  0  0  0  0  0  0  0
   11.5078   44.1701  130.3038 C   0  0  0  0  0  0  0  0  0  0  0  0
   15.6521   42.7751  128.3991 H   0  0  0  0  0  0  0  0  0  0  0  0
    9.1669   44.4532  133.2182 C   0  0  0  0  0  0  0  0  0  0  0  0
    8.3012   43.4063  133.4586 C   0  0  0  0  0  0  0  0  0  0  0  0
    7.1513   43.5518  134.2117 C   0  0  0  0  0  0  0  0  0  0  0  0
    6.8306   44.7605  134.7543 C   0  0  0  0  0  0  0  0  0  0  0  0
    7.6753   45.8171  134.5343 C   0  0  0  0  0  0  0  0  0  0  0  0
    8.8395   45.6568  133.7669 C   0  0  0  0  0  0  0  0  0  0  0  0
    9.6784   46.8795  133.6588 C   0  0  0  0  0  0  0  0  0  0  0  0
    8.8618   48.0117  132.9924 C   0  0  0  0  0  0  0  0  0  0  0  0
    9.9816   47.4325  135.0598 C   0  0  0  0  0  0  0  0  0  0  0  0
    9.0811   44.4814  130.2239 O   0  0  0  0  0  0  0  0  0  0  0  0
    7.9006   48.2912  128.8545 C   0  0  0  0  0  0  0  0  0  0  0  0
    7.0979   47.4996  129.6449 C   0  0  0  0  0  0  0  0  0  0  0  0
    7.5286   46.2406  130.0774 C   0  0  0  0  0  0  0  0  0  0  0  0
    8.7677   45.7502  129.7293 C   0  0  0  0  0  0  0  0  0  0  0  0
    9.5730   46.5155  128.9515 C   0  0  0  0  0  0  0  0  0  0  0  0
    9.1472   47.7625  128.5223 C   0  0  0  0  0  0  0  0  0  0  0  0
    7.7879   50.7250  129.0019 C   0  0  0  0  0  0  0  0  0  0  0  0
    7.5099   49.6093  128.3684 C   0  0  0  0  0  0  0  0  0  0  0  0
    7.1987   53.6795  127.0743 C   0  0  0  0  0  0  0  0  0  0  0  0
    6.3279   53.8492  128.0707 N   0  0  0  0  0  0  0  0  0  0  0  0
    6.4088   52.8267  128.9009 N   0  0  0  0  0  0  0  0  0  0  0  0
    7.3475   51.9948  128.4216 C   0  0  0  0  0  0  0  0  0  0  0  0
    7.8020   52.5547  127.3078 O   0  0  0  0  0  0  0  0  0  0  0  0
    7.3841   54.6378  125.9509 C   0  0  0  0  0  0  0  0  0  0  0  0
    7.2063   53.3230  123.8898 C   0  0  0  0  0  0  0  0  0  0  0  0
    8.2079   53.8756  124.9092 C   0  0  0  0  0  0  0  0  0  0  0  0
 36 37  1  0  0  0
 37 35  1  0  0  0
 35 30  1  0  0  0
 30 31  2  0  0  0
 31 32  1  0  0  0
 32 33  2  0  0  0
 33 28  1  0  0  0
 28 29  2  0  0  0
 29 22  1  0  0  0
 22 23  2  0  0  0
 23 24  1  0  0  0
 24 25  2  0  0  0
 25 21  1  0  0  0
 21  1  1  0  0  0
  1  2  2  0  0  0
  2  3  1  0  0  0
  3  4  1  0  0  0
  4  5  2  0  0  0
  5  6  1  0  0  0
  6  7  1  0  0  0
  6  8  2  0  0  0
  8  9  1  0  0  0
  9 10  2  0  0  0
  2 12  1  0  0  0
 12 13  2  0  0  0
 13 14  1  0  0  0
 14 15  2  0  0  0
 15 16  1  0  0  0
 16 17  2  0  0  0
 17 18  1  0  0  0
 18 19  1  0  0  0
 18 20  1  0  0  0
 25 26  1  0  0  0
 26 27  2  0  0  0
 33 34  1  0  0  0
 34 30  1  0  0  0
 27 22  1  0  0  0
 10  1  1  0  0  0
 17 12  1  0  0  0
 10  4  1  0  0  0
  7 11  1  0  0  0
M  END
> <minimizedAffinity>
8.54370

> <CNNscore>
0.4602108896

> <CNNaffinity>
7.9504418373

> <CNN_VS>
3.6588799953

> <CNNaffinity_variance>
0.9243770838

$$$$
[H]Oc1c([H])c([H])c2c(Oc3c([H])c([H])c(/C([H])=C(\[H])c4nnc(C([H])([H])C([H])([H])C([H])([H])[H])o4)c([H])c3[H])c(-c3c([H])c([H])c([H])c([H])c3C([H])(C([H])([H])[H])C([H])([H])[H])sc2c1[H]


 37 41  0  0  0  0  0  0  0  0999 V2000
    9.7140   47.7030  131.4052 C   0  0  0  0  0  0  0  0  0  0  0  0
    9.2293   47.1017  132.5420 C   0  0  0  0  0  0  0  0  0  0  0  0
    7.7350   47.9102  132.7468 S   0  0  0  0  0  0  0  0  0  0  0  0
    7.7638   48.9609  131.4262 C   0  0  0  0  0  0  0  0  0  0  0  0
    6.8701   49.9296  130.9490 C   0  0  0  0  0  0  0  0  0  0  0  0
    7.1745   50.6494  129.8109 C   0  0  0  0  0  0  0  0  0  0  0  0
    6.3614   51.6214  129.2642 O   0  0  0  0  0  0  0  0  0  0  0  0
    8.3697   50.3611  129.2029 C   0  0  0  0  0  0  0  0  0  0  0  0
    9.2373   49.4131  129.6756 C   0  0  0  0  0  0  0  0  0  0  0  0
    8.9465   48.6686  130.8330 C   0  0  0  0  0  0  0  0  0  0  0  0
    6.5134   52.5822  129.6035 H   0  0  0  0  0  0  0  0  0  0  0  0
    9.8305   45.9987  133.3117 C   0  0  0  0  0  0  0  0  0  0  0  0
   10.6302   46.2717  134.4022 C   0  0  0  0  0  0  0  0  0  0  0  0
   11.3110   45.2843  135.0893 C   0  0  0  0  0  0  0  0  0  0  0  0
   11.2096   43.9807  134.7039 C   0  0  0  0  0  0  0  0  0  0  0  0
   10.4184   43.6807  133.6257 C   0  0  0  0  0  0  0  0  0  0  0  0
    9.7330   44.6926  132.9356 C   0  0  0  0  0  0  0  0  0  0  0  0
    8.8776   44.2064  131.8210 C   0  0  0  0  0  0  0  0  0  0  0  0
    8.8513   42.6597  131.8239 C   0  0  0  0  0  0  0  0  0  0  0  0
    7.4126   44.5907  132.0788 C   0  0  0  0  0  0  0  0  0  0  0  0
   10.9750   47.2988  130.8676 O   0  0  0  0  0  0  0  0  0  0  0  0
   10.9720   43.7509  128.5881 C   0  0  0  0  0  0  0  0  0  0  0  0
   10.0001   44.7184  128.4656 C   0  0  0  0  0  0  0  0  0  0  0  0
   10.0387   45.8815  129.2423 C   0  0  0  0  0  0  0  0  0  0  0  0
   11.0480   46.0996  130.1538 C   0  0  0  0  0  0  0  0  0  0  0  0
   12.0148   45.1582  130.2886 C   0  0  0  0  0  0  0  0  0  0  0  0
   11.9773   44.0056  129.5201 C   0  0  0  0  0  0  0  0  0  0  0  0
    9.9047   41.9537  127.3276 C   0  0  0  0  0  0  0  0  0  0  0  0
   10.9873   42.5166  127.8119 C   0  0  0  0  0  0  0  0  0  0  0  0
   10.8919   38.9104  125.7290 C   0  0  0  0  0  0  0  0  0  0  0  0
    9.6419   39.0383  125.2805 N   0  0  0  0  0  0  0  0  0  0  0  0
    9.1081   40.1363  125.7812 N   0  0  0  0  0  0  0  0  0  0  0  0
   10.0365   40.7139  126.5605 C   0  0  0  0  0  0  0  0  0  0  0  0
   11.1072   39.9326  126.4987 O   0  0  0  0  0  0  0  0  0  0  0  0
   11.8000   37.7870  125.3710 C   0  0  0  0  0  0  0  0  0  0  0  0
   13.1888   39.7144  124.7669 C   0  0  0  0  0  0  0  0  0  0  0  0
   13.2134   38.3640  125.4904 C   0  0  0  0  0  0  0  0  0  0  0  0
 36 37  1  0  0  0
 37 35  1  0  0  0
 35 30  1  0  0  0
 30 31  2  0  0  0
 31 32  1  0  0  0
 32 33  2  0  0  0
 33 28  1  0  0  0
 28 29  2  0  0  0
 29 22  1  0  0  0
 22 23  2  0  0  0
 23 24  1  0  0  0
 24 25  2  0  0  0
 25 21  1  0  0  0
 21  1  1  0  0  0
  1  2  2  0  0  0
  2  3  1  0  0  0
  3  4  1  0  0  0
  4  5  2  0  0  0
  5  6  1  0  0  0
  6  7  1  0  0  0
  6  8  2  0  0  0
  8  9  1  0  0  0
  9 10  2  0  0  0
  2 12  1  0  0  0
 12 13  2  0  0  0
 13 14  1  0  0  0
 14 15  2  0  0  0
 15 16  1  0  0  0
 16 17  2  0  0  0
 17 18  1  0  0  0
 18 19  1  0  0  0
 18 20  1  0  0  0
 25 26  1  0  0  0
 26 27  2  0  0  0
 33 34  1  0  0  0
 34 30  1  0  0  0
 27 22  1  0  0  0
 10  1  1  0  0  0
 17 12  1  0  0  0
 10  4  1  0  0  0
  7 11  1  0  0  0
M  END
> <minimizedAffinity>
16.49632

> <CNNscore>
0.4517220855

> <CNNaffinity>
8.0299453735

> <CNN_VS>
3.6273036003

> <CNNaffinity_variance>
0.8448582888

$$$$
[H]Oc1c([H])c([H])c2c(Oc3c([H])c([H])c(/C([H])=C(\[H])c4nnc(C([H])([H])C([H])([H])C([H])([H])[H])o4)c([H])c3[H])c(-c3c([H])c([H])c([H])c([H])c3C([H])(C([H])([H])[H])C([H])([H])[H])sc2c1[H]


 37 41  0  0  0  0  0  0  0  0999 V2000
    8.9288   46.1746  132.1101 C   0  0  0  0  0  0  0  0  0  0  0  0
    8.4707   47.3885  131.6569 C   0  0  0  0  0  0  0  0  0  0  0  0
    9.6263   48.4610  132.3225 S   0  0  0  0  0  0  0  0  0  0  0  0
   10.6294   47.3748  133.1366 C   0  0  0  0  0  0  0  0  0  0  0  0
   11.7874   47.5308  133.9108 C   0  0  0  0  0  0  0  0  0  0  0  0
   12.4052   46.4253  134.4604 C   0  0  0  0  0  0  0  0  0  0  0  0
   13.5464   46.4762  135.2349 O   0  0  0  0  0  0  0  0  0  0  0  0
   11.8265   45.2081  134.2056 C   0  0  0  0  0  0  0  0  0  0  0  0
   10.6950   45.0642  133.4483 C   0  0  0  0  0  0  0  0  0  0  0  0
   10.0502   46.1771  132.8790 C   0  0  0  0  0  0  0  0  0  0  0  0
   13.4007   46.5810  136.2494 H   0  0  0  0  0  0  0  0  0  0  0  0
    7.3256   47.6518  130.7681 C   0  0  0  0  0  0  0  0  0  0  0  0
    6.5237   46.6114  130.3465 C   0  0  0  0  0  0  0  0  0  0  0  0
    5.5089   46.7830  129.4238 C   0  0  0  0  0  0  0  0  0  0  0  0
    5.2617   48.0132  128.8914 C   0  0  0  0  0  0  0  0  0  0  0  0
    6.0410   49.0657  129.2957 C   0  0  0  0  0  0  0  0  0  0  0  0
    7.0692   48.8783  130.2325 C   0  0  0  0  0  0  0  0  0  0  0  0
    7.7936   50.1212  130.6079 C   0  0  0  0  0  0  0  0  0  0  0  0
    9.3005   49.9566  130.2995 C   0  0  0  0  0  0  0  0  0  0  0  0
    7.3635   51.2759  129.6902 C   0  0  0  0  0  0  0  0  0  0  0  0
    8.2344   44.9754  131.7605 O   0  0  0  0  0  0  0  0  0  0  0  0
    9.8031   42.2958  128.9069 C   0  0  0  0  0  0  0  0  0  0  0  0
    9.3267   41.8876  130.1325 C   0  0  0  0  0  0  0  0  0  0  0  0
    8.8147   42.8106  131.0509 C   0  0  0  0  0  0  0  0  0  0  0  0
    8.7683   44.1564  130.7620 C   0  0  0  0  0  0  0  0  0  0  0  0
    9.2325   44.5780  129.5595 C   0  0  0  0  0  0  0  0  0  0  0  0
    9.7403   43.6647  128.6493 C   0  0  0  0  0  0  0  0  0  0  0  0
    9.6106   40.7090  127.0623 C   0  0  0  0  0  0  0  0  0  0  0  0
   10.3518   41.3861  127.9081 C   0  0  0  0  0  0  0  0  0  0  0  0
   11.7630   38.5612  125.1791 C   0  0  0  0  0  0  0  0  0  0  0  0
   10.6909   38.6038  124.3863 N   0  0  0  0  0  0  0  0  0  0  0  0
    9.7701   39.3719  124.9372 N   0  0  0  0  0  0  0  0  0  0  0  0
   10.2680   39.8234  126.0996 C   0  0  0  0  0  0  0  0  0  0  0  0
   11.4845   39.3043  126.2058 O   0  0  0  0  0  0  0  0  0  0  0  0
   12.9992   37.7898  124.8765 C   0  0  0  0  0  0  0  0  0  0  0  0
   15.3072   37.7913  125.7023 C   0  0  0  0  0  0  0  0  0  0  0  0
   13.8444   37.8761  126.1504 C   0  0  0  0  0  0  0  0  0  0  0  0
 36 37  1  0  0  0
 37 35  1  0  0  0
 35 30  1  0  0  0
 30 31  2  0  0  0
 31 32  1  0  0  0
 32 33  2  0  0  0
 33 28  1  0  0  0
 28 29  2  0  0  0
 29 22  1  0  0  0
 22 23  2  0  0  0
 23 24  1  0  0  0
 24 25  2  0  0  0
 25 21  1  0  0  0
 21  1  1  0  0  0
  1  2  2  0  0  0
  2  3  1  0  0  0
  3  4  1  0  0  0
  4  5  2  0  0  0
  5  6  1  0  0  0
  6  7  1  0  0  0
  6  8  2  0  0  0
  8  9  1  0  0  0
  9 10  2  0  0  0
  2 12  1  0  0  0
 12 13  2  0  0  0
 13 14  1  0  0  0
 14 15  2  0  0  0
 15 16  1  0  0  0
 16 17  2  0  0  0
 17 18  1  0  0  0
 18 19  1  0  0  0
 18 20  1  0  0  0
 25 26  1  0  0  0
 26 27  2  0  0  0
 33 34  1  0  0  0
 34 30  1  0  0  0
 27 22  1  0  0  0
 10  1  1  0  0  0
 17 12  1  0  0  0
 10  4  1  0  0  0
  7 11  1  0  0  0
M  END
> <minimizedAffinity>
19.62517

> <CNNscore>
0.4350086749

> <CNNaffinity>
7.8005766869

> <CNN_VS>
3.3933184147

> <CNNaffinity_variance>
1.6916154623

$$$$
[H]Oc1c([H])c([H])c2c(Oc3c([H])c([H])c(/C([H])=C(\[H])c4nnc(C([H])([H])C([H])([H])C([H])([H])[H])o4)c([H])c3[H])c(-c3c([H])c([H])c([H])c([H])c3C([H])(C([H])([H])[H])C([H])([H])[H])sc2c1[H]


 37 41  0  0  0  0  0  0  0  0999 V2000
    9.3932   45.9301  131.1022 C   0  0  0  0  0  0  0  0  0  0  0  0
    9.2197   45.3605  132.3408 C   0  0  0  0  0  0  0  0  0  0  0  0
    9.2518   43.6927  131.9586 S   0  0  0  0  0  0  0  0  0  0  0  0
    9.4751   43.7588  130.2869 C   0  0  0  0  0  0  0  0  0  0  0  0
    9.5967   42.7770  129.2938 C   0  0  0  0  0  0  0  0  0  0  0  0
    9.7787   43.1461  127.9760 C   0  0  0  0  0  0  0  0  0  0  0  0
    9.9088   42.2559  126.9294 O   0  0  0  0  0  0  0  0  0  0  0  0
    9.8294   44.4919  127.7163 C   0  0  0  0  0  0  0  0  0  0  0  0
    9.7097   45.4448  128.6923 C   0  0  0  0  0  0  0  0  0  0  0  0
    9.5240   45.0904  130.0408 C   0  0  0  0  0  0  0  0  0  0  0  0
    9.0343   41.9747  126.4630 H   0  0  0  0  0  0  0  0  0  0  0  0
    9.1149   46.0385  133.6446 C   0  0  0  0  0  0  0  0  0  0  0  0
    7.9568   46.7058  133.9862 C   0  0  0  0  0  0  0  0  0  0  0  0
    7.8447   47.4538  135.1431 C   0  0  0  0  0  0  0  0  0  0  0  0
    8.8974   47.5561  136.0030 C   0  0  0  0  0  0  0  0  0  0  0  0
   10.0592   46.8998  135.6900 C   0  0  0  0  0  0  0  0  0  0  0  0
   10.1609   46.1442  134.5116 C   0  0  0  0  0  0  0  0  0  0  0  0
   11.4648   45.4519  134.3352 C   0  0  0  0  0  0  0  0  0  0  0  0
   11.2527   43.9212  134.4037 C   0  0  0  0  0  0  0  0  0  0  0  0
   11.9894   45.6781  132.9090 C   0  0  0  0  0  0  0  0  0  0  0  0
    9.4386   47.3526  130.9722 O   0  0  0  0  0  0  0  0  0  0  0  0
    6.1256   49.5826  129.6175 C   0  0  0  0  0  0  0  0  0  0  0  0
    7.1176   50.1221  130.4053 C   0  0  0  0  0  0  0  0  0  0  0  0
    8.2002   49.3461  130.8336 C   0  0  0  0  0  0  0  0  0  0  0  0
    8.3121   48.0190  130.4825 C   0  0  0  0  0  0  0  0  0  0  0  0
    7.3450   47.4696  129.7065 C   0  0  0  0  0  0  0  0  0  0  0  0
    6.2721   48.2372  129.2822 C   0  0  0  0  0  0  0  0  0  0  0  0
    4.2420   49.9677  128.1138 C   0  0  0  0  0  0  0  0  0  0  0  0
    4.9711   50.3355  129.1416 C   0  0  0  0  0  0  0  0  0  0  0  0
    1.9648   52.4747  126.9641 C   0  0  0  0  0  0  0  0  0  0  0  0
    1.1166   51.5225  127.3560 N   0  0  0  0  0  0  0  0  0  0  0  0
    1.7992   50.4935  127.8215 N   0  0  0  0  0  0  0  0  0  0  0  0
    3.1028   50.7997  127.7226 C   0  0  0  0  0  0  0  0  0  0  0  0
    3.1565   52.0161  127.1952 O   0  0  0  0  0  0  0  0  0  0  0  0
    1.5490   53.7812  126.3851 C   0  0  0  0  0  0  0  0  0  0  0  0
    2.8077   53.7656  124.2818 C   0  0  0  0  0  0  0  0  0  0  0  0
    2.8051   54.3330  125.7050 C   0  0  0  0  0  0  0  0  0  0  0  0
 36 37  1  0  0  0
 37 35  1  0  0  0
 35 30  1  0  0  0
 30 31  2  0  0  0
 31 32  1  0  0  0
 32 33  2  0  0  0
 33 28  1  0  0  0
 28 29  2  0  0  0
 29 22  1  0  0  0
 22 23  2  0  0  0
 23 24  1  0  0  0
 24 25  2  0  0  0
 25 21  1  0  0  0
 21  1  1  0  0  0
  1  2  2  0  0  0
  2  3  1  0  0  0
  3  4  1  0  0  0
  4  5  2  0  0  0
  5  6  1  0  0  0
  6  7  1  0  0  0
  6  8  2  0  0  0
  8  9  1  0  0  0
  9 10  2  0  0  0
  2 12  1  0  0  0
 12 13  2  0  0  0
 13 14  1  0  0  0
 14 15  2  0  0  0
 15 16  1  0  0  0
 16 17  2  0  0  0
 17 18  1  0  0  0
 18 19  1  0  0  0
 18 20  1  0  0  0
 25 26  1  0  0  0
 26 27  2  0  0  0
 33 34  1  0  0  0
 34 30  1  0  0  0
 27 22  1  0  0  0
 10  1  1  0  0  0
 17 12  1  0  0  0
 10  4  1  0  0  0
  7 11  1  0  0  0
M  END
> <minimizedAffinity>
7.00917

> <CNNscore>
0.4290148020

> <CNNaffinity>
7.8028717041

> <CNN_VS>
3.3475475311

> <CNNaffinity_variance>
0.6427807808

$$$$
[H]Oc1c([H])c([H])c2c(Oc3c([H])c([H])c(/C([H])=C(\[H])c4nnc(C([H])([H])C([H])([H])C([H])([H])[H])o4)c([H])c3[H])c(-c3c([H])c([H])c([H])c([H])c3C([H])(C([H])([H])[H])C([H])([H])[H])sc2c1[H]


 37 41  0  0  0  0  0  0  0  0999 V2000
   10.6495   44.4734  132.1599 C   0  0  0  0  0  0  0  0  0  0  0  0
   10.0780   43.2235  132.1472 C   0  0  0  0  0  0  0  0  0  0  0  0
   11.1852   42.3504  131.1774 S   0  0  0  0  0  0  0  0  0  0  0  0
   12.3095   43.5578  130.8213 C   0  0  0  0  0  0  0  0  0  0  0  0
   13.4934   43.5778  130.0711 C   0  0  0  0  0  0  0  0  0  0  0  0
   14.2210   44.7457  129.9595 C   0  0  0  0  0  0  0  0  0  0  0  0
   15.3960   44.8654  129.2454 O   0  0  0  0  0  0  0  0  0  0  0  0
   13.7216   45.8452  130.6100 C   0  0  0  0  0  0  0  0  0  0  0  0
   12.5642   45.8174  131.3409 C   0  0  0  0  0  0  0  0  0  0  0  0
   11.8080   44.6381  131.4675 C   0  0  0  0  0  0  0  0  0  0  0  0
   15.2987   45.1326  128.2552 H   0  0  0  0  0  0  0  0  0  0  0  0
    8.8695   42.7712  132.8581 C   0  0  0  0  0  0  0  0  0  0  0  0
    8.7291   43.0158  134.2086 C   0  0  0  0  0  0  0  0  0  0  0  0
    7.6737   42.5157  134.9478 C   0  0  0  0  0  0  0  0  0  0  0  0
    6.7161   41.7500  134.3522 C   0  0  0  0  0  0  0  0  0  0  0  0
    6.8289   41.4945  133.0104 C   0  0  0  0  0  0  0  0  0  0  0  0
    7.9060   42.0072  132.2709 C   0  0  0  0  0  0  0  0  0  0  0  0
    7.8643   41.6861  130.8197 C   0  0  0  0  0  0  0  0  0  0  0  0
    6.4490   41.1919  130.4383 C   0  0  0  0  0  0  0  0  0  0  0  0
    8.0305   42.9710  129.9939 C   0  0  0  0  0  0  0  0  0  0  0  0
   10.0283   45.5334  132.8900 O   0  0  0  0  0  0  0  0  0  0  0  0
    8.8818   49.0903  130.9359 C   0  0  0  0  0  0  0  0  0  0  0  0
    9.8211   49.0601  131.9422 C   0  0  0  0  0  0  0  0  0  0  0  0
   10.1723   47.8573  132.5648 C   0  0  0  0  0  0  0  0  0  0  0  0
    9.5931   46.6641  132.1935 C   0  0  0  0  0  0  0  0  0  0  0  0
    8.6659   46.6734  131.2038 C   0  0  0  0  0  0  0  0  0  0  0  0
    8.3171   47.8643  130.5868 C   0  0  0  0  0  0  0  0  0  0  0  0
    7.5831   50.3298  129.2823 C   0  0  0  0  0  0  0  0  0  0  0  0
    8.4697   50.3094  130.2502 C   0  0  0  0  0  0  0  0  0  0  0  0
    7.3209   53.3289  127.3513 C   0  0  0  0  0  0  0  0  0  0  0  0
    6.2878   53.4721  128.1831 N   0  0  0  0  0  0  0  0  0  0  0  0
    6.2289   52.4299  128.9904 N   0  0  0  0  0  0  0  0  0  0  0  0
    7.2427   51.6123  128.6638 C   0  0  0  0  0  0  0  0  0  0  0  0
    7.8815   52.2002  127.6604 O   0  0  0  0  0  0  0  0  0  0  0  0
    7.6939   54.3148  126.3006 C   0  0  0  0  0  0  0  0  0  0  0  0
    7.1482   54.4475  123.9145 C   0  0  0  0  0  0  0  0  0  0  0  0
    7.7109   53.5167  124.9938 C   0  0  0  0  0  0  0  0  0  0  0  0
 36 37  1  0  0  0
 37 35  1  0  0  0
 35 30  1  0  0  0
 30 31  2  0  0  0
 31 32  1  0  0  0
 32 33  2  0  0  0
 33 28  1  0  0  0
 28 29  2  0  0  0
 29 22  1  0  0  0
 22 23  2  0  0  0
 23 24  1  0  0  0
 24 25  2  0  0  0
 25 21  1  0  0  0
 21  1  1  0  0  0
  1  2  2  0  0  0
  2  3  1  0  0  0
  3  4  1  0  0  0
  4  5  2  0  0  0
  5  6  1  0  0  0
  6  7  1  0  0  0
  6  8  2  0  0  0
  8  9  1  0  0  0
  9 10  2  0  0  0
  2 12  1  0  0  0
 12 13  2  0  0  0
 13 14  1  0  0  0
 14 15  2  0  0  0
 15 16  1  0  0  0
 16 17  2  0  0  0
 17 18  1  0  0  0
 18 19  1  0  0  0
 18 20  1  0  0  0
 25 26  1  0  0  0
 26 27  2  0  0  0
 33 34  1  0  0  0
 34 30  1  0  0  0
 27 22  1  0  0  0
 10  1  1  0  0  0
 17 12  1  0  0  0
 10  4  1  0  0  0
  7 11  1  0  0  0
M  END
> <minimizedAffinity>
22.05168

> <CNNscore>
0.4050763547

> <CNNaffinity>
7.6742677689

> <CNN_VS>
3.1086645126

> <CNNaffinity_variance>
1.1111686230

$$$$
[H]OC(=O)/C([H])=C(\[H])c1c([H])c([H])c(Oc2c(-c3c([H])c([H])c([H])c([H])c3C(=O)C([H])([H])[H])sc3c([H])c(O[H])c([H])c([H])c23)c([H])c1[H]


 33 36  0  0  0  0  0  0  0  0999 V2000
    9.8410   46.7032  131.7282 C   0  0  0  0  0  0  0  0  0  0  0  0
   10.0348   48.4112  131.9403 S   0  0  0  0  0  0  0  0  0  0  0  0
    8.7881   48.9489  130.9241 C   0  0  0  0  0  0  0  0  0  0  0  0
    8.3220   50.2299  130.5584 C   0  0  0  0  0  0  0  0  0  0  0  0
    7.2752   50.3704  129.6781 C   0  0  0  0  0  0  0  0  0  0  0  0
    6.8268   51.6290  129.3276 O   0  0  0  0  0  0  0  0  0  0  0  0
    6.7336   49.2136  129.1955 C   0  0  0  0  0  0  0  0  0  0  0  0
    7.1769   47.9783  129.5434 C   0  0  0  0  0  0  0  0  0  0  0  0
    8.2436   47.8018  130.4422 C   0  0  0  0  0  0  0  0  0  0  0  0
    8.7820   46.6170  130.8576 C   0  0  0  0  0  0  0  0  0  0  0  0
    6.0946   52.0638  129.8800 H   0  0  0  0  0  0  0  0  0  0  0  0
   10.5377   45.4431  133.7878 C   0  0  0  0  0  0  0  0  0  0  0  0
   11.4779   44.5906  134.3987 C   0  0  0  0  0  0  0  0  0  0  0  0
   12.4681   43.9675  133.7027 C   0  0  0  0  0  0  0  0  0  0  0  0
   12.5400   44.1890  132.3500 C   0  0  0  0  0  0  0  0  0  0  0  0
   11.6385   45.0169  131.7351 C   0  0  0  0  0  0  0  0  0  0  0  0
   10.6144   45.6678  132.4486 C   0  0  0  0  0  0  0  0  0  0  0  0
    8.0386   45.4923  134.2242 C   0  0  0  0  0  0  0  0  0  0  0  0
    9.4147   45.8523  134.6177 C   0  0  0  0  0  0  0  0  0  0  0  0
    9.5701   46.4999  135.6579 O   0  0  0  0  0  0  0  0  0  0  0  0
    8.3211   45.3203  130.4699 O   0  0  0  0  0  0  0  0  0  0  0  0
    8.8780   44.4326  129.6337 C   0  0  0  0  0  0  0  0  0  0  0  0
    9.5141   44.7966  128.4797 C   0  0  0  0  0  0  0  0  0  0  0  0
   10.0700   43.8150  127.6494 C   0  0  0  0  0  0  0  0  0  0  0  0
    9.9907   42.4778  127.9702 C   0  0  0  0  0  0  0  0  0  0  0  0
    9.3500   42.1299  129.1298 C   0  0  0  0  0  0  0  0  0  0  0  0
    8.8121   43.0967  129.9306 C   0  0  0  0  0  0  0  0  0  0  0  0
   10.5808   41.5019  127.0803 C   0  0  0  0  0  0  0  0  0  0  0  0
   10.2146   40.2594  126.9321 C   0  0  0  0  0  0  0  0  0  0  0  0
   10.9164   39.3922  125.9848 C   0  0  0  0  0  0  0  0  0  0  0  0
   10.2551   38.8045  124.9348 O   0  0  0  0  0  0  0  0  0  0  0  0
   12.1450   39.1713  126.1205 O   0  0  0  0  0  0  0  0  0  0  0  0
   10.1588   37.8159  124.7770 H   0  0  0  0  0  0  0  0  0  0  0  0
 18 19  1  0  0  0
 19 20  2  0  0  0
 19 12  1  0  0  0
 12 13  2  0  0  0
 13 14  1  0  0  0
 14 15  2  0  0  0
 15 16  1  0  0  0
 16 17  2  0  0  0
 17  1  1  0  0  0
  1  2  1  0  0  0
  2  3  1  0  0  0
  3  4  2  0  0  0
  4  5  1  0  0  0
  5  6  1  0  0  0
  5  7  2  0  0  0
  7  8  1  0  0  0
  8  9  2  0  0  0
  9 10  1  0  0  0
 10 21  1  0  0  0
 21 22  1  0  0  0
 22 23  2  0  0  0
 23 24  1  0  0  0
 24 25  2  0  0  0
 25 28  1  0  0  0
 28 29  2  0  0  0
 29 30  1  0  0  0
 30 31  1  0  0  0
 30 32  2  0  0  0
 25 26  1  0  0  0
 26 27  2  0  0  0
 17 12  1  0  0  0
 10  1  2  0  0  0
 27 22  1  0  0  0
  9  3  1  0  0  0
  6 11  1  0  0  0
 31 33  1  0  0  0
M  END
> <minimizedAffinity>
2.49670

> <CNNscore>
0.5712653995

> <CNNaffinity>
8.2221975327

> <CNN_VS>
4.6970567703

> <CNNaffinity_variance>
1.3563667536

$$$$
[H]OC(=O)/C([H])=C(\[H])c1c([H])c([H])c(Oc2c(-c3c([H])c([H])c([H])c([H])c3C(=O)C([H])([H])[H])sc3c([H])c(O[H])c([H])c([H])c23)c([H])c1[H]


 33 36  0  0  0  0  0  0  0  0999 V2000
    9.5929   46.9286  132.3973 C   0  0  0  0  0  0  0  0  0  0  0  0
    9.7176   48.6561  132.4037 S   0  0  0  0  0  0  0  0  0  0  0  0
    8.6494   49.0048  131.1335 C   0  0  0  0  0  0  0  0  0  0  0  0
    8.2281   50.2069  130.5255 C   0  0  0  0  0  0  0  0  0  0  0  0
    7.3414   50.1882  129.4749 C   0  0  0  0  0  0  0  0  0  0  0  0
    6.9355   51.3706  128.8876 O   0  0  0  0  0  0  0  0  0  0  0  0
    6.9093   48.9571  129.0722 C   0  0  0  0  0  0  0  0  0  0  0  0
    7.3102   47.7971  129.6529 C   0  0  0  0  0  0  0  0  0  0  0  0
    8.2141   47.7834  130.7297 C   0  0  0  0  0  0  0  0  0  0  0  0
    8.6965   46.6861  131.3850 C   0  0  0  0  0  0  0  0  0  0  0  0
    6.1133   51.8443  129.2484 H   0  0  0  0  0  0  0  0  0  0  0  0
   11.1597   45.0708  133.0368 C   0  0  0  0  0  0  0  0  0  0  0  0
   11.5527   44.1280  134.0067 C   0  0  0  0  0  0  0  0  0  0  0  0
   11.0676   44.1344  135.2787 C   0  0  0  0  0  0  0  0  0  0  0  0
   10.1587   45.1064  135.6147 C   0  0  0  0  0  0  0  0  0  0  0  0
    9.7592   46.0315  134.6869 C   0  0  0  0  0  0  0  0  0  0  0  0
   10.2532   46.0289  133.3687 C   0  0  0  0  0  0  0  0  0  0  0  0
   12.2981   43.7930  131.1635 C   0  0  0  0  0  0  0  0  0  0  0  0
   11.9276   45.0715  131.8008 C   0  0  0  0  0  0  0  0  0  0  0  0
   12.2876   46.1185  131.2533 O   0  0  0  0  0  0  0  0  0  0  0  0
    8.3306   45.3322  131.1073 O   0  0  0  0  0  0  0  0  0  0  0  0
    8.8016   44.4971  130.1703 C   0  0  0  0  0  0  0  0  0  0  0  0
    9.3831   44.9320  129.0121 C   0  0  0  0  0  0  0  0  0  0  0  0
    9.8496   44.0029  128.0733 C   0  0  0  0  0  0  0  0  0  0  0  0
    9.7356   42.6475  128.2905 C   0  0  0  0  0  0  0  0  0  0  0  0
    9.1504   42.2283  129.4558 C   0  0  0  0  0  0  0  0  0  0  0  0
    8.6995   43.1444  130.3629 C   0  0  0  0  0  0  0  0  0  0  0  0
   10.2329   41.7278  127.2908 C   0  0  0  0  0  0  0  0  0  0  0  0
   10.1175   40.4292  127.2994 C   0  0  0  0  0  0  0  0  0  0  0  0
   10.6783   39.6322  126.2075 C   0  0  0  0  0  0  0  0  0  0  0  0
   12.0350   39.4747  126.0665 O   0  0  0  0  0  0  0  0  0  0  0  0
    9.9191   39.0758  125.3763 O   0  0  0  0  0  0  0  0  0  0  0  0
   12.5839   39.7659  125.2756 H   0  0  0  0  0  0  0  0  0  0  0  0
 18 19  1  0  0  0
 19 20  2  0  0  0
 19 12  1  0  0  0
 12 13  2  0  0  0
 13 14  1  0  0  0
 14 15  2  0  0  0
 15 16  1  0  0  0
 16 17  2  0  0  0
 17  1  1  0  0  0
  1  2  1  0  0  0
  2  3  1  0  0  0
  3  4  2  0  0  0
  4  5  1  0  0  0
  5  6  1  0  0  0
  5  7  2  0  0  0
  7  8  1  0  0  0
  8  9  2  0  0  0
  9 10  1  0  0  0
 10 21  1  0  0  0
 21 22  1  0  0  0
 22 23  2  0  0  0
 23 24  1  0  0  0
 24 25  2  0  0  0
 25 28  1  0  0  0
 28 29  2  0  0  0
 29 30  1  0  0  0
 30 31  1  0  0  0
 30 32  2  0  0  0
 25 26  1  0  0  0
 26 27  2  0  0  0
 17 12  1  0  0  0
 10  1  2  0  0  0
 27 22  1  0  0  0
  9  3  1  0  0  0
  6 11  1  0  0  0
 31 33  1  0  0  0
M  END
> <minimizedAffinity>
2.91976

> <CNNscore>
0.5618749261

> <CNNaffinity>
8.1255416870

> <CNN_VS>
4.5655379295

> <CNNaffinity_variance>
1.1890562773

$$$$
[H]OC(=O)/C([H])=C(\[H])c1c([H])c([H])c(Oc2c(-c3c([H])c([H])c([H])c([H])c3C(=O)C([H])([H])[H])sc3c([H])c(O[H])c([H])c([H])c23)c([H])c1[H]


 33 36  0  0  0  0  0  0  0  0999 V2000
    9.4627   47.1574  132.4294 C   0  0  0  0  0  0  0  0  0  0  0  0
    9.3529   48.8781  132.5929 S   0  0  0  0  0  0  0  0  0  0  0  0
    8.4537   49.2214  131.1966 C   0  0  0  0  0  0  0  0  0  0  0  0
    7.9731   50.4191  130.6250 C   0  0  0  0  0  0  0  0  0  0  0  0
    7.2672   50.3991  129.4452 C   0  0  0  0  0  0  0  0  0  0  0  0
    6.8012   51.5772  128.8949 O   0  0  0  0  0  0  0  0  0  0  0  0
    7.0699   49.1715  128.8810 C   0  0  0  0  0  0  0  0  0  0  0  0
    7.5291   48.0156  129.4259 C   0  0  0  0  0  0  0  0  0  0  0  0
    8.2522   48.0030  130.6316 C   0  0  0  0  0  0  0  0  0  0  0  0
    8.7714   46.9114  131.2681 C   0  0  0  0  0  0  0  0  0  0  0  0
    5.8778   51.9111  129.1525 H   0  0  0  0  0  0  0  0  0  0  0  0
   11.0807   45.3715  133.1420 C   0  0  0  0  0  0  0  0  0  0  0  0
   11.4375   44.4051  134.1025 C   0  0  0  0  0  0  0  0  0  0  0  0
   10.8268   44.3126  135.3158 C   0  0  0  0  0  0  0  0  0  0  0  0
    9.8238   45.2054  135.5999 C   0  0  0  0  0  0  0  0  0  0  0  0
    9.4577   46.1515  134.6795 C   0  0  0  0  0  0  0  0  0  0  0  0
   10.0815   46.2508  133.4216 C   0  0  0  0  0  0  0  0  0  0  0  0
   12.5311   44.2724  131.3737 C   0  0  0  0  0  0  0  0  0  0  0  0
   11.9680   45.4871  131.9944 C   0  0  0  0  0  0  0  0  0  0  0  0
   12.2735   46.5814  131.5096 O   0  0  0  0  0  0  0  0  0  0  0  0
    8.6363   45.5579  130.8280 O   0  0  0  0  0  0  0  0  0  0  0  0
    9.3116   44.9002  129.8746 C   0  0  0  0  0  0  0  0  0  0  0  0
    9.2492   43.5432  129.7218 C   0  0  0  0  0  0  0  0  0  0  0  0
    9.9855   42.9204  128.7060 C   0  0  0  0  0  0  0  0  0  0  0  0
   10.7795   43.6492  127.8482 C   0  0  0  0  0  0  0  0  0  0  0  0
   10.8311   45.0077  128.0148 C   0  0  0  0  0  0  0  0  0  0  0  0
   10.1084   45.6027  129.0094 C   0  0  0  0  0  0  0  0  0  0  0  0
   11.5207   42.9599  126.8148 C   0  0  0  0  0  0  0  0  0  0  0  0
   12.8097   42.9970  126.6227 C   0  0  0  0  0  0  0  0  0  0  0  0
   13.4137   42.2392  125.5259 C   0  0  0  0  0  0  0  0  0  0  0  0
   14.2769   42.8359  124.6405 O   0  0  0  0  0  0  0  0  0  0  0  0
   13.1481   41.0209  125.3778 O   0  0  0  0  0  0  0  0  0  0  0  0
   14.1382   42.9222  123.6481 H   0  0  0  0  0  0  0  0  0  0  0  0
 18 19  1  0  0  0
 19 20  2  0  0  0
 19 12  1  0  0  0
 12 13  2  0  0  0
 13 14  1  0  0  0
 14 15  2  0  0  0
 15 16  1  0  0  0
 16 17  2  0  0  0
 17  1  1  0  0  0
  1  2  1  0  0  0
  2  3  1  0  0  0
  3  4  2  0  0  0
  4  5  1  0  0  0
  5  6  1  0  0  0
  5  7  2  0  0  0
  7  8  1  0  0  0
  8  9  2  0  0  0
  9 10  1  0  0  0
 10 21  1  0  0  0
 21 22  1  0  0  0
 22 23  2  0  0  0
 23 24  1  0  0  0
 24 25  2  0  0  0
 25 28  1  0  0  0
 28 29  2  0  0  0
 29 30  1  0  0  0
 30 31  1  0  0  0
 30 32  2  0  0  0
 25 26  1  0  0  0
 26 27  2  0  0  0
 17 12  1  0  0  0
 10  1  2  0  0  0
 27 22  1  0  0  0
  9  3  1  0  0  0
  6 11  1  0  0  0
 31 33  1  0  0  0
M  END
> <minimizedAffinity>
3.98677

> <CNNscore>
0.5514414907

> <CNNaffinity>
7.8384733200

> <CNN_VS>
4.3224592209

> <CNNaffinity_variance>
0.4981049597

$$$$
[H]OC(=O)/C([H])=C(\[H])c1c([H])c([H])c(Oc2c(-c3c([H])c([H])c([H])c([H])c3C(=O)C([H])([H])[H])sc3c([H])c(O[H])c([H])c([H])c23)c([H])c1[H]


 33 36  0  0  0  0  0  0  0  0999 V2000
   10.1543   43.9614  132.6912 C   0  0  0  0  0  0  0  0  0  0  0  0
    9.7924   42.4384  131.9503 S   0  0  0  0  0  0  0  0  0  0  0  0
    9.9948   42.8782  130.3249 C   0  0  0  0  0  0  0  0  0  0  0  0
    9.8597   42.1759  129.1081 C   0  0  0  0  0  0  0  0  0  0  0  0
   10.0760   42.8076  127.9061 C   0  0  0  0  0  0  0  0  0  0  0  0
    9.9416   42.1105  126.7213 O   0  0  0  0  0  0  0  0  0  0  0  0
   10.4210   44.1271  127.9716 C   0  0  0  0  0  0  0  0  0  0  0  0
   10.5529   44.8084  129.1387 C   0  0  0  0  0  0  0  0  0  0  0  0
   10.3404   44.1903  130.3835 C   0  0  0  0  0  0  0  0  0  0  0  0
   10.4320   44.7709  131.6167 C   0  0  0  0  0  0  0  0  0  0  0  0
   10.7505   41.6355  126.3334 H   0  0  0  0  0  0  0  0  0  0  0  0
    9.6557   45.2527  134.7886 C   0  0  0  0  0  0  0  0  0  0  0  0
    9.9760   45.4982  136.1381 C   0  0  0  0  0  0  0  0  0  0  0  0
   10.8362   44.7146  136.8448 C   0  0  0  0  0  0  0  0  0  0  0  0
   11.4066   43.6445  136.2018 C   0  0  0  0  0  0  0  0  0  0  0  0
   11.1125   43.3887  134.8887 C   0  0  0  0  0  0  0  0  0  0  0  0
   10.2274   44.1966  134.1502 C   0  0  0  0  0  0  0  0  0  0  0  0
    7.5464   45.3894  133.3849 C   0  0  0  0  0  0  0  0  0  0  0  0
    8.5590   46.0370  134.2412 C   0  0  0  0  0  0  0  0  0  0  0  0
    8.4392   47.2450  134.4694 O   0  0  0  0  0  0  0  0  0  0  0  0
   10.8034   46.1293  131.8636 O   0  0  0  0  0  0  0  0  0  0  0  0
   10.1928   47.2617  131.4866 C   0  0  0  0  0  0  0  0  0  0  0  0
   10.4174   48.4650  132.0952 C   0  0  0  0  0  0  0  0  0  0  0  0
    9.7406   49.6086  131.6523 C   0  0  0  0  0  0  0  0  0  0  0  0
    8.8447   49.5501  130.6077 C   0  0  0  0  0  0  0  0  0  0  0  0
    8.6309   48.3370  130.0088 C   0  0  0  0  0  0  0  0  0  0  0  0
    9.2971   47.2294  130.4503 C   0  0  0  0  0  0  0  0  0  0  0  0
    8.1708   50.7590  130.1869 C   0  0  0  0  0  0  0  0  0  0  0  0
    7.4224   50.9072  129.1296 C   0  0  0  0  0  0  0  0  0  0  0  0
    6.8061   52.2023  128.8384 C   0  0  0  0  0  0  0  0  0  0  0  0
    6.9110   52.7759  127.5954 O   0  0  0  0  0  0  0  0  0  0  0  0
    6.1666   52.8128  129.7301 O   0  0  0  0  0  0  0  0  0  0  0  0
    7.3430   53.6601  127.3880 H   0  0  0  0  0  0  0  0  0  0  0  0
 18 19  1  0  0  0
 19 20  2  0  0  0
 19 12  1  0  0  0
 12 13  2  0  0  0
 13 14  1  0  0  0
 14 15  2  0  0  0
 15 16  1  0  0  0
 16 17  2  0  0  0
 17  1  1  0  0  0
  1  2  1  0  0  0
  2  3  1  0  0  0
  3  4  2  0  0  0
  4  5  1  0  0  0
  5  6  1  0  0  0
  5  7  2  0  0  0
  7  8  1  0  0  0
  8  9  2  0  0  0
  9 10  1  0  0  0
 10 21  1  0  0  0
 21 22  1  0  0  0
 22 23  2  0  0  0
 23 24  1  0  0  0
 24 25  2  0  0  0
 25 28  1  0  0  0
 28 29  2  0  0  0
 29 30  1  0  0  0
 30 31  1  0  0  0
 30 32  2  0  0  0
 25 26  1  0  0  0
 26 27  2  0  0  0
 17 12  1  0  0  0
 10  1  2  0  0  0
 27 22  1  0  0  0
  9  3  1  0  0  0
  6 11  1  0  0  0
 31 33  1  0  0  0
M  END
> <minimizedAffinity>
2.71011

> <CNNscore>
0.4558843970

> <CNNaffinity>
7.5997862816

> <CNN_VS>
3.4646239281

> <CNNaffinity_variance>
1.1445322037

$$$$
[H]OC(=O)/C([H])=C(\[H])c1c([H])c([H])c(Oc2c(-c3c([H])c([H])c([H])c([H])c3C(=O)C([H])([H])[H])sc3c([H])c(O[H])c([H])c([H])c23)c([H])c1[H]


 33 36  0  0  0  0  0  0  0  0999 V2000
   12.3537   44.6912  131.6467 C   0  0  0  0  0  0  0  0  0  0  0  0
   12.3828   43.4884  132.8925 S   0  0  0  0  0  0  0  0  0  0  0  0
   11.4983   44.3143  134.0807 C   0  0  0  0  0  0  0  0  0  0  0  0
   11.1082   43.9894  135.3976 C   0  0  0  0  0  0  0  0  0  0  0  0
   10.3900   44.8828  136.1569 C   0  0  0  0  0  0  0  0  0  0  0  0
   10.0130   44.5542  137.4444 O   0  0  0  0  0  0  0  0  0  0  0  0
   10.0896   46.0748  135.5623 C   0  0  0  0  0  0  0  0  0  0  0  0
   10.4615   46.3934  134.2959 C   0  0  0  0  0  0  0  0  0  0  0  0
   11.1945   45.5009  133.4941 C   0  0  0  0  0  0  0  0  0  0  0  0
   11.6324   45.7114  132.2173 C   0  0  0  0  0  0  0  0  0  0  0  0
    9.1220   44.0918  137.5951 H   0  0  0  0  0  0  0  0  0  0  0  0
   12.1901   44.1000  129.2097 C   0  0  0  0  0  0  0  0  0  0  0  0
   12.8642   43.7523  128.0228 C   0  0  0  0  0  0  0  0  0  0  0  0
   14.2182   43.8190  127.8987 C   0  0  0  0  0  0  0  0  0  0  0  0
   14.9427   44.2450  128.9839 C   0  0  0  0  0  0  0  0  0  0  0  0
   14.3087   44.5849  130.1495 C   0  0  0  0  0  0  0  0  0  0  0  0
   12.9095   44.5147  130.2868 C   0  0  0  0  0  0  0  0  0  0  0  0
    9.8932   43.2755  129.9046 C   0  0  0  0  0  0  0  0  0  0  0  0
   10.7408   44.1909  129.1161 C   0  0  0  0  0  0  0  0  0  0  0  0
   10.1814   45.0193  128.3905 O   0  0  0  0  0  0  0  0  0  0  0  0
   11.3853   46.8882  131.4439 O   0  0  0  0  0  0  0  0  0  0  0  0
   10.2187   47.4457  131.0893 C   0  0  0  0  0  0  0  0  0  0  0  0
    9.2757   46.7884  130.3494 C   0  0  0  0  0  0  0  0  0  0  0  0
    8.0797   47.4338  130.0103 C   0  0  0  0  0  0  0  0  0  0  0  0
    7.8276   48.7283  130.4081 C   0  0  0  0  0  0  0  0  0  0  0  0
    8.7827   49.3728  131.1487 C   0  0  0  0  0  0  0  0  0  0  0  0
    9.9447   48.7322  131.4725 C   0  0  0  0  0  0  0  0  0  0  0  0
    6.5772   49.3515  130.0330 C   0  0  0  0  0  0  0  0  0  0  0  0
    5.9606   50.3079  130.6692 C   0  0  0  0  0  0  0  0  0  0  0  0
    4.6945   50.8358  130.1590 C   0  0  0  0  0  0  0  0  0  0  0  0
    4.1767   50.4073  128.9617 O   0  0  0  0  0  0  0  0  0  0  0  0
    4.0580   51.6964  130.8155 O   0  0  0  0  0  0  0  0  0  0  0  0
    3.9993   50.9822  128.1558 H   0  0  0  0  0  0  0  0  0  0  0  0
 18 19  1  0  0  0
 19 20  2  0  0  0
 19 12  1  0  0  0
 12 13  2  0  0  0
 13 14  1  0  0  0
 14 15  2  0  0  0
 15 16  1  0  0  0
 16 17  2  0  0  0
 17  1  1  0  0  0
  1  2  1  0  0  0
  2  3  1  0  0  0
  3  4  2  0  0  0
  4  5  1  0  0  0
  5  6  1  0  0  0
  5  7  2  0  0  0
  7  8  1  0  0  0
  8  9  2  0  0  0
  9 10  1  0  0  0
 10 21  1  0  0  0
 21 22  1  0  0  0
 22 23  2  0  0  0
 23 24  1  0  0  0
 24 25  2  0  0  0
 25 28  1  0  0  0
 28 29  2  0  0  0
 29 30  1  0  0  0
 30 31  1  0  0  0
 30 32  2  0  0  0
 25 26  1  0  0  0
 26 27  2  0  0  0
 17 12  1  0  0  0
 10  1  2  0  0  0
 27 22  1  0  0  0
  9  3  1  0  0  0
  6 11  1  0  0  0
 31 33  1  0  0  0
M  END
> <minimizedAffinity>
7.61467

> <CNNscore>
0.4487335980

> <CNNaffinity>
7.5944013596

> <CNN_VS>
3.4078631401

> <CNNaffinity_variance>
0.9421234131

$$$$
[H]OC(=O)/C([H])=C(\[H])c1c([H])c([H])c(Oc2c(-c3c([H])c([H])c([H])c([H])c3C(=O)C([H])([H])[H])sc3c([H])c(O[H])c([H])c([H])c23)c([H])c1[H]


 33 36  0  0  0  0  0  0  0  0999 V2000
    9.5168   45.2831  132.3143 C   0  0  0  0  0  0  0  0  0  0  0  0
   10.6409   44.0656  131.8105 S   0  0  0  0  0  0  0  0  0  0  0  0
   10.0713   43.8139  130.2330 C   0  0  0  0  0  0  0  0  0  0  0  0
   10.4674   42.9532  129.1868 C   0  0  0  0  0  0  0  0  0  0  0  0
    9.7947   42.9514  127.9876 C   0  0  0  0  0  0  0  0  0  0  0  0
   10.1912   42.1053  126.9704 O   0  0  0  0  0  0  0  0  0  0  0  0
    8.7444   43.8177  127.8839 C   0  0  0  0  0  0  0  0  0  0  0  0
    8.3585   44.6484  128.8862 C   0  0  0  0  0  0  0  0  0  0  0  0
    9.0269   44.6750  130.1228 C   0  0  0  0  0  0  0  0  0  0  0  0
    8.7267   45.4545  131.2038 C   0  0  0  0  0  0  0  0  0  0  0  0
   10.8800   42.4294  126.2989 H   0  0  0  0  0  0  0  0  0  0  0  0
   10.2776   45.5702  134.6921 C   0  0  0  0  0  0  0  0  0  0  0  0
   10.0671   46.1852  135.9417 C   0  0  0  0  0  0  0  0  0  0  0  0
    9.1704   47.1931  136.1244 C   0  0  0  0  0  0  0  0  0  0  0  0
    8.4493   47.6166  135.0360 C   0  0  0  0  0  0  0  0  0  0  0  0
    8.6348   47.0307  133.8119 C   0  0  0  0  0  0  0  0  0  0  0  0
    9.5571   45.9855  133.6160 C   0  0  0  0  0  0  0  0  0  0  0  0
   12.6717   45.1282  133.9771 C   0  0  0  0  0  0  0  0  0  0  0  0
   11.4187   44.6710  134.6086 C   0  0  0  0  0  0  0  0  0  0  0  0
   11.3799   43.5196  135.0541 O   0  0  0  0  0  0  0  0  0  0  0  0
    7.6795   46.4265  131.2547 O   0  0  0  0  0  0  0  0  0  0  0  0
    7.6437   47.6680  130.7499 C   0  0  0  0  0  0  0  0  0  0  0  0
    8.3919   48.6960  131.2519 C   0  0  0  0  0  0  0  0  0  0  0  0
    8.3016   49.9705  130.6779 C   0  0  0  0  0  0  0  0  0  0  0  0
    7.4685   50.2163  129.6089 C   0  0  0  0  0  0  0  0  0  0  0  0
    6.7254   49.1756  129.1180 C   0  0  0  0  0  0  0  0  0  0  0  0
    6.8225   47.9377  129.6868 C   0  0  0  0  0  0  0  0  0  0  0  0
    7.4103   51.5496  129.0509 C   0  0  0  0  0  0  0  0  0  0  0  0
    7.1290   51.8678  127.8182 C   0  0  0  0  0  0  0  0  0  0  0  0
    7.1103   53.2717  127.4052 C   0  0  0  0  0  0  0  0  0  0  0  0
    7.4820   53.6446  126.1372 O   0  0  0  0  0  0  0  0  0  0  0  0
    6.7504   54.1635  128.2128 O   0  0  0  0  0  0  0  0  0  0  0  0
    8.2462   54.2546  125.9015 H   0  0  0  0  0  0  0  0  0  0  0  0
 18 19  1  0  0  0
 19 20  2  0  0  0
 19 12  1  0  0  0
 12 13  2  0  0  0
 13 14  1  0  0  0
 14 15  2  0  0  0
 15 16  1  0  0  0
 16 17  2  0  0  0
 17  1  1  0  0  0
  1  2  1  0  0  0
  2  3  1  0  0  0
  3  4  2  0  0  0
  4  5  1  0  0  0
  5  6  1  0  0  0
  5  7  2  0  0  0
  7  8  1  0  0  0
  8  9  2  0  0  0
  9 10  1  0  0  0
 10 21  1  0  0  0
 21 22  1  0  0  0
 22 23  2  0  0  0
 23 24  1  0  0  0
 24 25  2  0  0  0
 25 28  1  0  0  0
 28 29  2  0  0  0
 29 30  1  0  0  0
 30 31  1  0  0  0
 30 32  2  0  0  0
 25 26  1  0  0  0
 26 27  2  0  0  0
 17 12  1  0  0  0
 10  1  2  0  0  0
 27 22  1  0  0  0
  9  3  1  0  0  0
  6 11  1  0  0  0
 31 33  1  0  0  0
M  END
> <minimizedAffinity>
-0.02831

> <CNNscore>
0.4425199628

> <CNNaffinity>
7.5962572098

> <CNN_VS>
3.3614954948

> <CNNaffinity_variance>
1.4049520493

$$$$
[H]OC(=O)/C([H])=C(\[H])c1c([H])c([H])c(Oc2c(-c3c([H])c([H])c([H])c([H])c3C(=O)C([H])([H])[H])sc3c([H])c(O[H])c([H])c([H])c23)c([H])c1[H]


 33 36  0  0  0  0  0  0  0  0999 V2000
    8.7516   48.5690  131.5461 C   0  0  0  0  0  0  0  0  0  0  0  0
    9.1730   49.8559  132.6259 S   0  0  0  0  0  0  0  0  0  0  0  0
   10.2898   49.0312  133.6000 C   0  0  0  0  0  0  0  0  0  0  0  0
   11.0622   49.4088  134.7193 C   0  0  0  0  0  0  0  0  0  0  0  0
   11.8929   48.5031  135.3359 C   0  0  0  0  0  0  0  0  0  0  0  0
   12.6447   48.8836  136.4304 O   0  0  0  0  0  0  0  0  0  0  0  0
   11.9164   47.2462  134.8030 C   0  0  0  0  0  0  0  0  0  0  0  0
   11.1763   46.8765  133.7263 C   0  0  0  0  0  0  0  0  0  0  0  0
   10.3193   47.7797  133.0732 C   0  0  0  0  0  0  0  0  0  0  0  0
    9.5217   47.5234  131.9941 C   0  0  0  0  0  0  0  0  0  0  0  0
   13.5757   49.2604  136.2829 H   0  0  0  0  0  0  0  0  0  0  0  0
    7.0437   47.7109  129.9145 C   0  0  0  0  0  0  0  0  0  0  0  0
    6.3986   47.8739  128.6731 C   0  0  0  0  0  0  0  0  0  0  0  0
    6.5385   48.9940  127.9121 C   0  0  0  0  0  0  0  0  0  0  0  0
    7.3450   49.9975  128.3881 C   0  0  0  0  0  0  0  0  0  0  0  0
    7.9851   49.8594  129.5911 C   0  0  0  0  0  0  0  0  0  0  0  0
    7.8486   48.7027  130.3817 C   0  0  0  0  0  0  0  0  0  0  0  0
    7.6316   45.6939  131.3372 C   0  0  0  0  0  0  0  0  0  0  0  0
    6.6215   46.5657  130.7066 C   0  0  0  0  0  0  0  0  0  0  0  0
    5.4296   46.2895  130.8762 O   0  0  0  0  0  0  0  0  0  0  0  0
    9.4447   46.2740  131.3033 O   0  0  0  0  0  0  0  0  0  0  0  0
   10.4156   45.5708  130.7030 C   0  0  0  0  0  0  0  0  0  0  0  0
   11.1439   44.6100  131.3473 C   0  0  0  0  0  0  0  0  0  0  0  0
   12.1478   43.9163  130.6594 C   0  0  0  0  0  0  0  0  0  0  0  0
   12.4222   44.1813  129.3359 C   0  0  0  0  0  0  0  0  0  0  0  0
   11.6836   45.1470  128.7050 C   0  0  0  0  0  0  0  0  0  0  0  0
   10.7077   45.8162  129.3871 C   0  0  0  0  0  0  0  0  0  0  0  0
   13.4688   43.4378  128.6691 C   0  0  0  0  0  0  0  0  0  0  0  0
   14.6104   43.9053  128.2475 C   0  0  0  0  0  0  0  0  0  0  0  0
   15.5707   43.0200  127.5871 C   0  0  0  0  0  0  0  0  0  0  0  0
   16.0098   43.2731  126.3111 O   0  0  0  0  0  0  0  0  0  0  0  0
   16.0107   42.0067  128.1842 O   0  0  0  0  0  0  0  0  0  0  0  0
   15.8860   42.6722  125.5142 H   0  0  0  0  0  0  0  0  0  0  0  0
 18 19  1  0  0  0
 19 20  2  0  0  0
 19 12  1  0  0  0
 12 13  2  0  0  0
 13 14  1  0  0  0
 14 15  2  0  0  0
 15 16  1  0  0  0
 16 17  2  0  0  0
 17  1  1  0  0  0
  1  2  1  0  0  0
  2  3  1  0  0  0
  3  4  2  0  0  0
  4  5  1  0  0  0
  5  6  1  0  0  0
  5  7  2  0  0  0
  7  8  1  0  0  0
  8  9  2  0  0  0
  9 10  1  0  0  0
 10 21  1  0  0  0
 21 22  1  0  0  0
 22 23  2  0  0  0
 23 24  1  0  0  0
 24 25  2  0  0  0
 25 28  1  0  0  0
 28 29  2  0  0  0
 29 30  1  0  0  0
 30 31  1  0  0  0
 30 32  2  0  0  0
 25 26  1  0  0  0
 26 27  2  0  0  0
 17 12  1  0  0  0
 10  1  2  0  0  0
 27 22  1  0  0  0
  9  3  1  0  0  0
  6 11  1  0  0  0
 31 33  1  0  0  0
M  END
> <minimizedAffinity>
17.16768

> <CNNscore>
0.4353972375

> <CNNaffinity>
6.9972472191

> <CNN_VS>
3.0465822220

> <CNNaffinity_variance>
1.7788181305

$$$$
[H]OC(=O)/C([H])=C(\[H])c1c([H])c([H])c(Oc2c(-c3c([H])c([H])c([H])c([H])c3C(=O)C([H])([H])[H])sc3c([H])c(O[H])c([H])c([H])c23)c([H])c1[H]


 33 36  0  0  0  0  0  0  0  0999 V2000
    8.2621   46.0876  130.0955 C   0  0  0  0  0  0  0  0  0  0  0  0
    6.5932   45.9623  129.6497 S   0  0  0  0  0  0  0  0  0  0  0  0
    6.2252   47.6134  129.5291 C   0  0  0  0  0  0  0  0  0  0  0  0
    5.0447   48.3217  129.2178 C   0  0  0  0  0  0  0  0  0  0  0  0
    5.0331   49.6966  129.2106 C   0  0  0  0  0  0  0  0  0  0  0  0
    3.8723   50.3796  128.9040 O   0  0  0  0  0  0  0  0  0  0  0  0
    6.2129   50.3114  129.5180 C   0  0  0  0  0  0  0  0  0  0  0  0
    7.3521   49.6360  129.8179 C   0  0  0  0  0  0  0  0  0  0  0  0
    7.3963   48.2308  129.8319 C   0  0  0  0  0  0  0  0  0  0  0  0
    8.4738   47.4445  130.1270 C   0  0  0  0  0  0  0  0  0  0  0  0
    3.6824   50.6210  127.9365 H   0  0  0  0  0  0  0  0  0  0  0  0
    9.5893   44.4569  131.4720 C   0  0  0  0  0  0  0  0  0  0  0  0
   10.6333   43.5124  131.5169 C   0  0  0  0  0  0  0  0  0  0  0  0
   11.2556   43.0492  130.3983 C   0  0  0  0  0  0  0  0  0  0  0  0
   10.8369   43.5319  129.1835 C   0  0  0  0  0  0  0  0  0  0  0  0
    9.8259   44.4536  129.1160 C   0  0  0  0  0  0  0  0  0  0  0  0
    9.1803   44.9403  130.2683 C   0  0  0  0  0  0  0  0  0  0  0  0
    9.6281   44.7418  133.9930 C   0  0  0  0  0  0  0  0  0  0  0  0
    8.8799   44.6826  132.7223 C   0  0  0  0  0  0  0  0  0  0  0  0
    7.6543   44.8302  132.7631 O   0  0  0  0  0  0  0  0  0  0  0  0
    9.7826   47.9239  130.4451 O   0  0  0  0  0  0  0  0  0  0  0  0
   10.3694   48.0697  131.6416 C   0  0  0  0  0  0  0  0  0  0  0  0
   10.0403   49.0697  132.5136 C   0  0  0  0  0  0  0  0  0  0  0  0
   10.6980   49.1655  133.7466 C   0  0  0  0  0  0  0  0  0  0  0  0
   11.6787   48.2675  134.1060 C   0  0  0  0  0  0  0  0  0  0  0  0
   11.9967   47.2716  133.2210 C   0  0  0  0  0  0  0  0  0  0  0  0
   11.3480   47.1894  132.0219 C   0  0  0  0  0  0  0  0  0  0  0  0
   12.3287   48.4083  135.3906 C   0  0  0  0  0  0  0  0  0  0  0  0
   13.5983   48.6143  135.6040 C   0  0  0  0  0  0  0  0  0  0  0  0
   14.1057   48.7352  136.9715 C   0  0  0  0  0  0  0  0  0  0  0  0
   15.1872   48.0033  137.3956 O   0  0  0  0  0  0  0  0  0  0  0  0
   13.5536   49.5176  137.7838 O   0  0  0  0  0  0  0  0  0  0  0  0
   15.1876   47.3291  138.1419 H   0  0  0  0  0  0  0  0  0  0  0  0
 18 19  1  0  0  0
 19 20  2  0  0  0
 19 12  1  0  0  0
 12 13  2  0  0  0
 13 14  1  0  0  0
 14 15  2  0  0  0
 15 16  1  0  0  0
 16 17  2  0  0  0
 17  1  1  0  0  0
  1  2  1  0  0  0
  2  3  1  0  0  0
  3  4  2  0  0  0
  4  5  1  0  0  0
  5  6  1  0  0  0
  5  7  2  0  0  0
  7  8  1  0  0  0
  8  9  2  0  0  0
  9 10  1  0  0  0
 10 21  1  0  0  0
 21 22  1  0  0  0
 22 23  2  0  0  0
 23 24  1  0  0  0
 24 25  2  0  0  0
 25 28  1  0  0  0
 28 29  2  0  0  0
 29 30  1  0  0  0
 30 31  1  0  0  0
 30 32  2  0  0  0
 25 26  1  0  0  0
 26 27  2  0  0  0
 17 12  1  0  0  0
 10  1  2  0  0  0
 27 22  1  0  0  0
  9  3  1  0  0  0
  6 11  1  0  0  0
 31 33  1  0  0  0
M  END
> <minimizedAffinity>
6.05497

> <CNNscore>
0.4274684489

> <CNNaffinity>
7.4068517685

> <CNN_VS>
3.1661953926

> <CNNaffinity_variance>
0.6938933730

$$$$
[H]OC(=O)/C([H])=C(\[H])c1c([H])c([H])c(Oc2c(-c3c([H])c([H])c([H])c([H])c3C(=O)C([H])([H])[H])sc3c([H])c(O[H])c([H])c([H])c23)c([H])c1[H]


 33 36  0  0  0  0  0  0  0  0999 V2000
    9.5708   45.7364  130.2752 C   0  0  0  0  0  0  0  0  0  0  0  0
    8.1837   45.1487  129.4208 S   0  0  0  0  0  0  0  0  0  0  0  0
    7.2900   46.5879  129.3421 C   0  0  0  0  0  0  0  0  0  0  0  0
    6.0267   46.9146  128.8040 C   0  0  0  0  0  0  0  0  0  0  0  0
    5.5325   48.1939  128.9016 C   0  0  0  0  0  0  0  0  0  0  0  0
    4.2952   48.5026  128.3710 O   0  0  0  0  0  0  0  0  0  0  0  0
    6.3290   49.1012  129.5393 C   0  0  0  0  0  0  0  0  0  0  0  0
    7.5452   48.7936  130.0588 C   0  0  0  0  0  0  0  0  0  0  0  0
    8.0786   47.4955  129.9735 C   0  0  0  0  0  0  0  0  0  0  0  0
    9.2787   47.0652  130.4643 C   0  0  0  0  0  0  0  0  0  0  0  0
    4.2359   48.8199  127.4085 H   0  0  0  0  0  0  0  0  0  0  0  0
   11.1281   44.5171  131.8255 C   0  0  0  0  0  0  0  0  0  0  0  0
   12.4053   43.9600  132.0316 C   0  0  0  0  0  0  0  0  0  0  0  0
   13.3151   43.8138  131.0295 C   0  0  0  0  0  0  0  0  0  0  0  0
   12.9580   44.2311  129.7716 C   0  0  0  0  0  0  0  0  0  0  0  0
   11.7226   44.7791  129.5485 C   0  0  0  0  0  0  0  0  0  0  0  0
   10.7781   44.9373  130.5802 C   0  0  0  0  0  0  0  0  0  0  0  0
    8.7961   44.0050  132.6843 C   0  0  0  0  0  0  0  0  0  0  0  0
   10.1953   44.4006  132.9363 C   0  0  0  0  0  0  0  0  0  0  0  0
   10.5343   44.6230  134.1030 O   0  0  0  0  0  0  0  0  0  0  0  0
   10.2386   47.8865  131.1337 O   0  0  0  0  0  0  0  0  0  0  0  0
   10.0438   48.9155  131.9707 C   0  0  0  0  0  0  0  0  0  0  0  0
   10.2870   48.8372  133.3136 C   0  0  0  0  0  0  0  0  0  0  0  0
   10.0567   49.9511  134.1311 C   0  0  0  0  0  0  0  0  0  0  0  0
    9.5862   51.1360  133.6097 C   0  0  0  0  0  0  0  0  0  0  0  0
    9.3474   51.1979  132.2624 C   0  0  0  0  0  0  0  0  0  0  0  0
    9.5759   50.1046  131.4764 C   0  0  0  0  0  0  0  0  0  0  0  0
    9.3643   52.2583  134.4951 C   0  0  0  0  0  0  0  0  0  0  0  0
    8.3597   52.4225  135.3098 C   0  0  0  0  0  0  0  0  0  0  0  0
    8.2773   53.6207  136.1461 C   0  0  0  0  0  0  0  0  0  0  0  0
    7.0822   54.2659  136.3477 O   0  0  0  0  0  0  0  0  0  0  0  0
    9.3084   54.0797  136.6965 O   0  0  0  0  0  0  0  0  0  0  0  0
    6.8733   55.2154  136.0900 H   0  0  0  0  0  0  0  0  0  0  0  0
 18 19  1  0  0  0
 19 20  2  0  0  0
 19 12  1  0  0  0
 12 13  2  0  0  0
 13 14  1  0  0  0
 14 15  2  0  0  0
 15 16  1  0  0  0
 16 17  2  0  0  0
 17  1  1  0  0  0
  1  2  1  0  0  0
  2  3  1  0  0  0
  3  4  2  0  0  0
  4  5  1  0  0  0
  5  6  1  0  0  0
  5  7  2  0  0  0
  7  8  1  0  0  0
  8  9  2  0  0  0
  9 10  1  0  0  0
 10 21  1  0  0  0
 21 22  1  0  0  0
 22 23  2  0  0  0
 23 24  1  0  0  0
 24 25  2  0  0  0
 25 28  1  0  0  0
 28 29  2  0  0  0
 29 30  1  0  0  0
 30 31  1  0  0  0
 30 32  2  0  0  0
 25 26  1  0  0  0
 26 27  2  0  0  0
 17 12  1  0  0  0
 10  1  2  0  0  0
 27 22  1  0  0  0
  9  3  1  0  0  0
  6 11  1  0  0  0
 31 33  1  0  0  0
M  END
> <minimizedAffinity>
10.98805

> <CNNscore>
0.4248000383

> <CNNaffinity>
7.4051756859

> <CNN_VS>
3.1457188129

> <CNNaffinity_variance>
0.5938809514

$$$$
[H]c1c([H])c(N([H])C([H])([H])C([H])([H])N([H])C([H])([H])C([H])([H])C([H])([H])F)c(F)c([C@]2([H])c3c(c4c([H])c([H])c([H])c([H])c4n3[H])C([H])([H])[C@@]([H])(C([H])([H])[H])N2C([H])([H])C(F)(F)F)c1F


 38 41  0  0  0  0  0  0  0  0999 V2000
    8.2466   42.6680  130.8037 C   0  0  0  0  0  0  0  0  0  0  0  0
    9.4188   43.4951  130.3370 C   0  0  0  0  0  0  0  0  0  0  0  0
   10.5190   43.4469  131.4170 C   0  0  0  0  0  0  0  0  0  0  0  0
   10.0466   44.3009  132.5186 C   0  0  0  0  0  0  0  0  0  0  0  0
    9.1476   45.3377  132.3501 C   0  0  0  0  0  0  0  0  0  0  0  0
    8.9332   45.9062  133.5476 N   0  0  0  0  0  0  0  0  0  0  0  0
    9.6648   45.2764  134.5066 C   0  0  0  0  0  0  0  0  0  0  0  0
    9.7847   45.4877  135.8613 C   0  0  0  0  0  0  0  0  0  0  0  0
   10.6223   44.6704  136.5798 C   0  0  0  0  0  0  0  0  0  0  0  0
   11.3310   43.6541  135.9474 C   0  0  0  0  0  0  0  0  0  0  0  0
   11.2036   43.4511  134.5901 C   0  0  0  0  0  0  0  0  0  0  0  0
   10.3618   44.2710  133.8605 C   0  0  0  0  0  0  0  0  0  0  0  0
    8.6063   45.6454  130.9925 C   0  0  0  0  0  0  0  0  0  0  0  0
    9.0643   44.7949  129.9785 N   0  0  0  0  0  0  0  0  0  0  0  0
    8.3132   46.7159  133.7924 H   0  0  0  0  0  0  0  0  0  0  0  0
    8.7071   47.0950  130.6733 C   0  0  0  0  0  0  0  0  0  0  0  0
    9.8618   47.7895  130.9390 C   0  0  0  0  0  0  0  0  0  0  0  0
   10.9353   47.2045  131.5007 F   0  0  0  0  0  0  0  0  0  0  0  0
    9.9493   49.1259  130.6306 C   0  0  0  0  0  0  0  0  0  0  0  0
    8.8910   49.7955  130.0526 C   0  0  0  0  0  0  0  0  0  0  0  0
    7.7173   49.1348  129.7708 C   0  0  0  0  0  0  0  0  0  0  0  0
    7.6694   47.7903  130.0971 C   0  0  0  0  0  0  0  0  0  0  0  0
    6.4874   47.1369  129.8115 F   0  0  0  0  0  0  0  0  0  0  0  0
    6.6252   49.8008  129.1578 N   0  0  0  0  0  0  0  0  0  0  0  0
    5.9264   49.2417  128.6369 H   0  0  0  0  0  0  0  0  0  0  0  0
    6.4614   51.2435  129.2419 C   0  0  0  0  0  0  0  0  0  0  0  0
    7.2306   51.9207  128.1272 C   0  0  0  0  0  0  0  0  0  0  0  0
    6.7804   53.2567  127.8684 N   0  0  0  0  0  0  0  0  0  0  0  0
    5.7828   53.3119  127.6236 H   0  0  0  0  0  0  0  0  0  0  0  0
    7.6499   54.0356  127.0441 C   0  0  0  0  0  0  0  0  0  0  0  0
    6.9691   54.6615  125.8466 C   0  0  0  0  0  0  0  0  0  0  0  0
    7.8295   54.3229  124.6420 C   0  0  0  0  0  0  0  0  0  0  0  0
    9.1552   54.2672  125.0170 F   0  0  0  0  0  0  0  0  0  0  0  0
    9.1128   45.1792  128.6522 C   0  0  0  0  0  0  0  0  0  0  0  0
   10.4860   45.0721  128.0381 C   0  0  0  0  0  0  0  0  0  0  0  0
   11.5053   45.4811  128.8636 F   0  0  0  0  0  0  0  0  0  0  0  0
   10.5807   45.8640  126.8897 F   0  0  0  0  0  0  0  0  0  0  0  0
   10.7347   43.7701  127.5996 F   0  0  0  0  0  0  0  0  0  0  0  0
  1  2  1  0  0  0
  2  3  1  0  0  0
  3  4  1  0  0  0
  4  5  2  0  0  0
  5  6  1  0  0  0
  6  7  1  0  0  0
  7  8  2  0  0  0
  8  9  1  0  0  0
  9 10  2  0  0  0
 10 11  1  0  0  0
 11 12  2  0  0  0
  5 13  1  0  0  0
 13 14  1  0  0  0
 14 34  1  0  0  0
 34 35  1  0  0  0
 35 36  1  0  0  0
 35 37  1  0  0  0
 35 38  1  0  0  0
 13 16  1  0  0  0
 16 17  2  0  0  0
 17 18  1  0  0  0
 17 19  1  0  0  0
 19 20  2  0  0  0
 20 21  1  0  0  0
 21 24  1  0  0  0
 24 26  1  0  0  0
 26 27  1  0  0  0
 27 28  1  0  0  0
 28 30  1  0  0  0
 30 31  1  0  0  0
 31 32  1  0  0  0
 32 33  1  0  0  0
 21 22  2  0  0  0
 22 23  1  0  0  0
 14  2  1  0  0  0
 22 16  1  0  0  0
 12  4  1  0  0  0
 12  7  1  0  0  0
  6 15  1  0  0  0
 24 25  1  0  0  0
 28 29  1  0  0  0
M  END
> <minimizedAffinity>
-3.90032

> <CNNscore>
0.4128075242

> <CNNaffinity>
7.8063673973

> <CNN_VS>
3.2225272655

> <CNNaffinity_variance>
0.1486060619

$$$$
[H]c1c([H])c(N([H])C([H])([H])C([H])([H])N([H])C([H])([H])C([H])([H])C([H])([H])F)c(F)c([C@]2([H])c3c(c4c([H])c([H])c([H])c([H])c4n3[H])C([H])([H])[C@@]([H])(C([H])([H])[H])N2C([H])([H])C(F)(F)F)c1F


 38 41  0  0  0  0  0  0  0  0999 V2000
   11.3825   41.6763  131.1011 C   0  0  0  0  0  0  0  0  0  0  0  0
   11.4873   42.8594  132.0315 C   0  0  0  0  0  0  0  0  0  0  0  0
   10.8530   42.4811  133.3856 C   0  0  0  0  0  0  0  0  0  0  0  0
    9.3976   42.4764  133.1669 C   0  0  0  0  0  0  0  0  0  0  0  0
    8.7714   43.2110  132.1770 C   0  0  0  0  0  0  0  0  0  0  0  0
    7.4509   42.9798  132.2544 N   0  0  0  0  0  0  0  0  0  0  0  0
    7.1824   42.1126  133.2681 C   0  0  0  0  0  0  0  0  0  0  0  0
    6.0031   41.5803  133.7372 C   0  0  0  0  0  0  0  0  0  0  0  0
    6.0535   40.7139  134.8016 C   0  0  0  0  0  0  0  0  0  0  0  0
    7.2714   40.3859  135.3881 C   0  0  0  0  0  0  0  0  0  0  0  0
    8.4467   40.9247  134.9104 C   0  0  0  0  0  0  0  0  0  0  0  0
    8.4029   41.7983  133.8389 C   0  0  0  0  0  0  0  0  0  0  0  0
    9.5775   44.0735  131.2620 C   0  0  0  0  0  0  0  0  0  0  0  0
   10.9585   44.0305  131.4907 N   0  0  0  0  0  0  0  0  0  0  0  0
    6.6769   43.3685  131.6631 H   0  0  0  0  0  0  0  0  0  0  0  0
    9.0127   45.4458  131.1565 C   0  0  0  0  0  0  0  0  0  0  0  0
    8.5850   46.1126  132.2784 C   0  0  0  0  0  0  0  0  0  0  0  0
    8.6455   45.5620  133.5045 F   0  0  0  0  0  0  0  0  0  0  0  0
    8.0747   47.3843  132.1723 C   0  0  0  0  0  0  0  0  0  0  0  0
    7.9808   48.0156  130.9497 C   0  0  0  0  0  0  0  0  0  0  0  0
    8.3989   47.3809  129.8025 C   0  0  0  0  0  0  0  0  0  0  0  0
    8.9059   46.1015  129.9520 C   0  0  0  0  0  0  0  0  0  0  0  0
    9.3215   45.4730  128.7953 F   0  0  0  0  0  0  0  0  0  0  0  0
    8.3297   48.0212  128.5387 N   0  0  0  0  0  0  0  0  0  0  0  0
    9.1796   48.4766  128.1610 H   0  0  0  0  0  0  0  0  0  0  0  0
    7.1007   48.0543  127.7617 C   0  0  0  0  0  0  0  0  0  0  0  0
    6.9917   49.3673  127.0155 C   0  0  0  0  0  0  0  0  0  0  0  0
    7.5988   49.3250  125.7176 N   0  0  0  0  0  0  0  0  0  0  0  0
    6.9530   49.5716  124.9558 H   0  0  0  0  0  0  0  0  0  0  0  0
    8.4144   48.1776  125.4720 C   0  0  0  0  0  0  0  0  0  0  0  0
    8.8306   48.0135  124.0266 C   0  0  0  0  0  0  0  0  0  0  0  0
    9.1201   49.4101  123.5053 C   0  0  0  0  0  0  0  0  0  0  0  0
   10.4469   49.7206  123.7167 F   0  0  0  0  0  0  0  0  0  0  0  0
   11.8015   45.0687  131.1436 C   0  0  0  0  0  0  0  0  0  0  0  0
   13.1428   45.0185  131.8312 C   0  0  0  0  0  0  0  0  0  0  0  0
   13.0930   44.5747  133.1304 F   0  0  0  0  0  0  0  0  0  0  0  0
   13.7241   46.2891  131.8814 F   0  0  0  0  0  0  0  0  0  0  0  0
   14.0448   44.2379  131.1057 F   0  0  0  0  0  0  0  0  0  0  0  0
  1  2  1  0  0  0
  2  3  1  0  0  0
  3  4  1  0  0  0
  4  5  2  0  0  0
  5  6  1  0  0  0
  6  7  1  0  0  0
  7  8  2  0  0  0
  8  9  1  0  0  0
  9 10  2  0  0  0
 10 11  1  0  0  0
 11 12  2  0  0  0
  5 13  1  0  0  0
 13 14  1  0  0  0
 14 34  1  0  0  0
 34 35  1  0  0  0
 35 36  1  0  0  0
 35 37  1  0  0  0
 35 38  1  0  0  0
 13 16  1  0  0  0
 16 17  2  0  0  0
 17 18  1  0  0  0
 17 19  1  0  0  0
 19 20  2  0  0  0
 20 21  1  0  0  0
 21 24  1  0  0  0
 24 26  1  0  0  0
 26 27  1  0  0  0
 27 28  1  0  0  0
 28 30  1  0  0  0
 30 31  1  0  0  0
 31 32  1  0  0  0
 32 33  1  0  0  0
 21 22  2  0  0  0
 22 23  1  0  0  0
 14  2  1  0  0  0
 22 16  1  0  0  0
 12  4  1  0  0  0
 12  7  1  0  0  0
  6 15  1  0  0  0
 24 25  1  0  0  0
 28 29  1  0  0  0
M  END
> <minimizedAffinity>
28.82798

> <CNNscore>
0.4111373723

> <CNNaffinity>
7.7695693970

> <CNN_VS>
3.1943602562

> <CNNaffinity_variance>
2.3100771904

$$$$
[H]c1c([H])c(N([H])C([H])([H])C([H])([H])N([H])C([H])([H])C([H])([H])C([H])([H])F)c(F)c([C@]2([H])c3c(c4c([H])c([H])c([H])c([H])c4n3[H])C([H])([H])[C@@]([H])(C([H])([H])[H])N2C([H])([H])C(F)(F)F)c1F


 38 41  0  0  0  0  0  0  0  0999 V2000
    6.6775   44.0740  132.0273 C   0  0  0  0  0  0  0  0  0  0  0  0
    7.1201   44.9792  130.9045 C   0  0  0  0  0  0  0  0  0  0  0  0
    8.4093   44.4030  130.2839 C   0  0  0  0  0  0  0  0  0  0  0  0
    9.4847   44.6770  131.2505 C   0  0  0  0  0  0  0  0  0  0  0  0
    9.4412   45.7088  132.1698 C   0  0  0  0  0  0  0  0  0  0  0  0
   10.5729   45.6757  132.8919 N   0  0  0  0  0  0  0  0  0  0  0  0
   11.3670   44.6512  132.4778 C   0  0  0  0  0  0  0  0  0  0  0  0
   12.6037   44.2166  132.8970 C   0  0  0  0  0  0  0  0  0  0  0  0
   13.1637   43.1312  132.2690 C   0  0  0  0  0  0  0  0  0  0  0  0
   12.4917   42.4901  131.2334 C   0  0  0  0  0  0  0  0  0  0  0  0
   11.2535   42.9337  130.8214 C   0  0  0  0  0  0  0  0  0  0  0  0
   10.6840   44.0265  131.4494 C   0  0  0  0  0  0  0  0  0  0  0  0
    8.2600   46.6218  132.2144 C   0  0  0  0  0  0  0  0  0  0  0  0
    7.2514   46.3114  131.2937 N   0  0  0  0  0  0  0  0  0  0  0  0
   10.8764   46.3067  133.6727 H   0  0  0  0  0  0  0  0  0  0  0  0
    8.6678   48.0525  132.2228 C   0  0  0  0  0  0  0  0  0  0  0  0
    9.1926   48.6219  133.3571 C   0  0  0  0  0  0  0  0  0  0  0  0
    9.3506   47.9278  134.4987 F   0  0  0  0  0  0  0  0  0  0  0  0
    9.5766   49.9415  133.3520 C   0  0  0  0  0  0  0  0  0  0  0  0
    9.4461   50.7182  132.2197 C   0  0  0  0  0  0  0  0  0  0  0  0
    8.9249   50.1843  131.0634 C   0  0  0  0  0  0  0  0  0  0  0  0
    8.5499   48.8525  131.1101 C   0  0  0  0  0  0  0  0  0  0  0  0
    8.0273   48.3267  129.9455 F   0  0  0  0  0  0  0  0  0  0  0  0
    8.8020   50.9609  129.8829 N   0  0  0  0  0  0  0  0  0  0  0  0
    9.5931   51.5643  129.5959 H   0  0  0  0  0  0  0  0  0  0  0  0
    7.5981   50.9318  129.0673 C   0  0  0  0  0  0  0  0  0  0  0  0
    7.0986   52.3407  128.8259 C   0  0  0  0  0  0  0  0  0  0  0  0
    7.3840   52.8164  127.5042 N   0  0  0  0  0  0  0  0  0  0  0  0
    8.3846   52.9881  127.3385 H   0  0  0  0  0  0  0  0  0  0  0  0
    6.5076   53.8414  127.0314 C   0  0  0  0  0  0  0  0  0  0  0  0
    7.0567   54.6343  125.8655 C   0  0  0  0  0  0  0  0  0  0  0  0
    7.8507   53.6543  125.0199 C   0  0  0  0  0  0  0  0  0  0  0  0
    7.2128   53.4565  123.8135 F   0  0  0  0  0  0  0  0  0  0  0  0
    6.3617   47.2565  130.8200 C   0  0  0  0  0  0  0  0  0  0  0  0
    5.7505   46.9020  129.4876 C   0  0  0  0  0  0  0  0  0  0  0  0
    4.6060   46.1473  129.5763 F   0  0  0  0  0  0  0  0  0  0  0  0
    6.6438   46.1554  128.7133 F   0  0  0  0  0  0  0  0  0  0  0  0
    5.4949   48.0506  128.7362 F   0  0  0  0  0  0  0  0  0  0  0  0
  1  2  1  0  0  0
  2  3  1  0  0  0
  3  4  1  0  0  0
  4  5  2  0  0  0
  5  6  1  0  0  0
  6  7  1  0  0  0
  7  8  2  0  0  0
  8  9  1  0  0  0
  9 10  2  0  0  0
 10 11  1  0  0  0
 11 12  2  0  0  0
  5 13  1  0  0  0
 13 14  1  0  0  0
 14 34  1  0  0  0
 34 35  1  0  0  0
 35 36  1  0  0  0
 35 37  1  0  0  0
 35 38  1  0  0  0
 13 16  1  0  0  0
 16 17  2  0  0  0
 17 18  1  0  0  0
 17 19  1  0  0  0
 19 20  2  0  0  0
 20 21  1  0  0  0
 21 24  1  0  0  0
 24 26  1  0  0  0
 26 27  1  0  0  0
 27 28  1  0  0  0
 28 30  1  0  0  0
 30 31  1  0  0  0
 31 32  1  0  0  0
 32 33  1  0  0  0
 21 22  2  0  0  0
 22 23  1  0  0  0
 14  2  1  0  0  0
 22 16  1  0  0  0
 12  4  1  0  0  0
 12  7  1  0  0  0
  6 15  1  0  0  0
 24 25  1  0  0  0
 28 29  1  0  0  0
M  END
> <minimizedAffinity>
7.41059

> <CNNscore>
0.4106330872

> <CNNaffinity>
7.8155565262

> <CNN_VS>
3.2093260288

> <CNNaffinity_variance>
1.3671027422

$$$$
[H]c1c([H])c(N([H])C([H])([H])C([H])([H])N([H])C([H])([H])C([H])([H])C([H])([H])F)c(F)c([C@]2([H])c3c(c4c([H])c([H])c([H])c([H])c4n3[H])C([H])([H])[C@@]([H])(C([H])([H])[H])N2C([H])([H])C(F)(F)F)c1F


 38 41  0  0  0  0  0  0  0  0999 V2000
   12.5413   42.5932  132.9324 C   0  0  0  0  0  0  0  0  0  0  0  0
   11.9360   43.8899  133.4102 C   0  0  0  0  0  0  0  0  0  0  0  0
   10.5973   43.5817  134.1116 C   0  0  0  0  0  0  0  0  0  0  0  0
    9.6427   43.2517  133.0412 C   0  0  0  0  0  0  0  0  0  0  0  0
    9.7695   43.6999  131.7394 C   0  0  0  0  0  0  0  0  0  0  0  0
    8.7379   43.2186  131.0273 N   0  0  0  0  0  0  0  0  0  0  0  0
    7.9291   42.4637  131.8196 C   0  0  0  0  0  0  0  0  0  0  0  0
    6.7676   41.7733  131.5585 C   0  0  0  0  0  0  0  0  0  0  0  0
    6.1662   41.0908  132.5874 C   0  0  0  0  0  0  0  0  0  0  0  0
    6.7230   41.1009  133.8621 C   0  0  0  0  0  0  0  0  0  0  0  0
    7.8867   41.7957  134.1127 C   0  0  0  0  0  0  0  0  0  0  0  0
    8.4973   42.4854  133.0809 C   0  0  0  0  0  0  0  0  0  0  0  0
   10.9196   44.5730  131.3574 C   0  0  0  0  0  0  0  0  0  0  0  0
   11.8147   44.8431  132.4001 N   0  0  0  0  0  0  0  0  0  0  0  0
    8.5152   43.3567  130.0119 H   0  0  0  0  0  0  0  0  0  0  0  0
   10.4738   45.7741  130.6013 C   0  0  0  0  0  0  0  0  0  0  0  0
   10.7243   45.8842  129.2554 C   0  0  0  0  0  0  0  0  0  0  0  0
   11.3829   44.9321  128.5700 F   0  0  0  0  0  0  0  0  0  0  0  0
   10.2990   46.9927  128.5631 C   0  0  0  0  0  0  0  0  0  0  0  0
    9.6171   48.0109  129.1960 C   0  0  0  0  0  0  0  0  0  0  0  0
    9.3467   47.9378  130.5433 C   0  0  0  0  0  0  0  0  0  0  0  0
    9.7922   46.8058  131.2040 C   0  0  0  0  0  0  0  0  0  0  0  0
    9.5169   46.7425  132.5553 F   0  0  0  0  0  0  0  0  0  0  0  0
    8.6288   48.9648  131.2079 N   0  0  0  0  0  0  0  0  0  0  0  0
    9.0389   49.3936  132.0567 H   0  0  0  0  0  0  0  0  0  0  0  0
    7.3366   49.4305  130.7299 C   0  0  0  0  0  0  0  0  0  0  0  0
    7.4688   49.9831  129.3264 C   0  0  0  0  0  0  0  0  0  0  0  0
    7.2888   48.9853  128.3132 N   0  0  0  0  0  0  0  0  0  0  0  0
    7.8111   49.1811  127.4489 H   0  0  0  0  0  0  0  0  0  0  0  0
    5.9381   48.5599  128.1210 C   0  0  0  0  0  0  0  0  0  0  0  0
    5.1957   48.2617  129.4053 C   0  0  0  0  0  0  0  0  0  0  0  0
    5.2652   46.7571  129.5982 C   0  0  0  0  0  0  0  0  0  0  0  0
    6.5330   46.3973  130.0038 F   0  0  0  0  0  0  0  0  0  0  0  0
   12.6102   45.9726  132.4221 C   0  0  0  0  0  0  0  0  0  0  0  0
   12.3275   46.8926  133.5833 C   0  0  0  0  0  0  0  0  0  0  0  0
   11.8929   48.1435  133.2174 F   0  0  0  0  0  0  0  0  0  0  0  0
   13.4794   47.0952  134.3495 F   0  0  0  0  0  0  0  0  0  0  0  0
   11.4071   46.3171  134.4613 F   0  0  0  0  0  0  0  0  0  0  0  0
  1  2  1  0  0  0
  2  3  1  0  0  0
  3  4  1  0  0  0
  4  5  2  0  0  0
  5  6  1  0  0  0
  6  7  1  0  0  0
  7  8  2  0  0  0
  8  9  1  0  0  0
  9 10  2  0  0  0
 10 11  1  0  0  0
 11 12  2  0  0  0
  5 13  1  0  0  0
 13 14  1  0  0  0
 14 34  1  0  0  0
 34 35  1  0  0  0
 35 36  1  0  0  0
 35 37  1  0  0  0
 35 38  1  0  0  0
 13 16  1  0  0  0
 16 17  2  0  0  0
 17 18  1  0  0  0
 17 19  1  0  0  0
 19 20  2  0  0  0
 20 21  1  0  0  0
 21 24  1  0  0  0
 24 26  1  0  0  0
 26 27  1  0  0  0
 27 28  1  0  0  0
 28 30  1  0  0  0
 30 31  1  0  0  0
 31 32  1  0  0  0
 32 33  1  0  0  0
 21 22  2  0  0  0
 22 23  1  0  0  0
 14  2  1  0  0  0
 22 16  1  0  0  0
 12  4  1  0  0  0
 12  7  1  0  0  0
  6 15  1  0  0  0
 24 25  1  0  0  0
 28 29  1  0  0  0
M  END
> <minimizedAffinity>
6.71348

> <CNNscore>
0.3954440355

> <CNNaffinity>
8.0938253403

> <CNN_VS>
3.2006549835

> <CNNaffinity_variance>
0.7529156208

$$$$
[H]c1c([H])c(N([H])C([H])([H])C([H])([H])N([H])C([H])([H])C([H])([H])C([H])([H])F)c(F)c([C@]2([H])c3c(c4c([H])c([H])c([H])c([H])c4n3[H])C([H])([H])[C@@]([H])(C([H])([H])[H])N2C([H])([H])C(F)(F)F)c1F


 38 41  0  0  0  0  0  0  0  0999 V2000
   12.9139   45.6608  132.9466 C   0  0  0  0  0  0  0  0  0  0  0  0
   11.4384   45.8456  133.2014 C   0  0  0  0  0  0  0  0  0  0  0  0
   10.8091   44.4661  133.4850 C   0  0  0  0  0  0  0  0  0  0  0  0
   10.7434   43.7737  132.1880 C   0  0  0  0  0  0  0  0  0  0  0  0
   10.6955   44.4309  130.9725 C   0  0  0  0  0  0  0  0  0  0  0  0
   10.6421   43.5083  129.9982 N   0  0  0  0  0  0  0  0  0  0  0  0
   10.6528   42.2569  130.5324 C   0  0  0  0  0  0  0  0  0  0  0  0
   10.6115   41.0082  129.9551 C   0  0  0  0  0  0  0  0  0  0  0  0
   10.6350   39.9067  130.7750 C   0  0  0  0  0  0  0  0  0  0  0  0
   10.6990   40.0559  132.1565 C   0  0  0  0  0  0  0  0  0  0  0  0
   10.7400   41.3111  132.7244 C   0  0  0  0  0  0  0  0  0  0  0  0
   10.7162   42.4247  131.9043 C   0  0  0  0  0  0  0  0  0  0  0  0
   10.7030   45.9238  130.9284 C   0  0  0  0  0  0  0  0  0  0  0  0
   10.7891   46.5412  132.1825 N   0  0  0  0  0  0  0  0  0  0  0  0
   10.5962   43.6469  128.9597 H   0  0  0  0  0  0  0  0  0  0  0  0
    9.6247   46.4558  130.0523 C   0  0  0  0  0  0  0  0  0  0  0  0
    9.9324   47.0906  128.8739 C   0  0  0  0  0  0  0  0  0  0  0  0
   11.2026   47.2679  128.4673 F   0  0  0  0  0  0  0  0  0  0  0  0
    8.9290   47.5692  128.0659 C   0  0  0  0  0  0  0  0  0  0  0  0
    7.6024   47.4251  128.4145 C   0  0  0  0  0  0  0  0  0  0  0  0
    7.2533   46.7950  129.5870 C   0  0  0  0  0  0  0  0  0  0  0  0
    8.2931   46.3280  130.3727 C   0  0  0  0  0  0  0  0  0  0  0  0
    7.9326   45.6983  131.5471 F   0  0  0  0  0  0  0  0  0  0  0  0
    5.8943   46.6188  129.9530 N   0  0  0  0  0  0  0  0  0  0  0  0
    5.6126   45.7410  130.4247 H   0  0  0  0  0  0  0  0  0  0  0  0
    4.8895   47.6354  129.6845 C   0  0  0  0  0  0  0  0  0  0  0  0
    5.3076   48.9554  130.2973 C   0  0  0  0  0  0  0  0  0  0  0  0
    5.6219   49.9526  129.3167 N   0  0  0  0  0  0  0  0  0  0  0  0
    5.3069   49.7074  128.3686 H   0  0  0  0  0  0  0  0  0  0  0  0
    6.9483   50.4783  129.3968 C   0  0  0  0  0  0  0  0  0  0  0  0
    7.7443   49.9687  130.5784 C   0  0  0  0  0  0  0  0  0  0  0  0
    8.6722   51.0993  130.9866 C   0  0  0  0  0  0  0  0  0  0  0  0
    9.3765   50.7393  132.1161 F   0  0  0  0  0  0  0  0  0  0  0  0
   10.3159   47.8181  132.4157 C   0  0  0  0  0  0  0  0  0  0  0  0
    9.5850   47.9655  133.7267 C   0  0  0  0  0  0  0  0  0  0  0  0
    8.7097   46.9428  134.0012 F   0  0  0  0  0  0  0  0  0  0  0  0
    8.8231   49.1377  133.7426 F   0  0  0  0  0  0  0  0  0  0  0  0
   10.4849   48.1062  134.7849 F   0  0  0  0  0  0  0  0  0  0  0  0
  1  2  1  0  0  0
  2  3  1  0  0  0
  3  4  1  0  0  0
  4  5  2  0  0  0
  5  6  1  0  0  0
  6  7  1  0  0  0
  7  8  2  0  0  0
  8  9  1  0  0  0
  9 10  2  0  0  0
 10 11  1  0  0  0
 11 12  2  0  0  0
  5 13  1  0  0  0
 13 14  1  0  0  0
 14 34  1  0  0  0
 34 35  1  0  0  0
 35 36  1  0  0  0
 35 37  1  0  0  0
 35 38  1  0  0  0
 13 16  1  0  0  0
 16 17  2  0  0  0
 17 18  1  0  0  0
 17 19  1  0  0  0
 19 20  2  0  0  0
 20 21  1  0  0  0
 21 24  1  0  0  0
 24 26  1  0  0  0
 26 27  1  0  0  0
 27 28  1  0  0  0
 28 30  1  0  0  0
 30 31  1  0  0  0
 31 32  1  0  0  0
 32 33  1  0  0  0
 21 22  2  0  0  0
 22 23  1  0  0  0
 14  2  1  0  0  0
 22 16  1  0  0  0
 12  4  1  0  0  0
 12  7  1  0  0  0
  6 15  1  0  0  0
 24 25  1  0  0  0
 28 29  1  0  0  0
M  END
> <minimizedAffinity>
7.59526

> <CNNscore>
0.3942725658

> <CNNaffinity>
8.0007648468

> <CNN_VS>
3.1544821262

> <CNNaffinity_variance>
0.5526667833

$$$$
[H]c1c([H])c(N([H])C([H])([H])C([H])([H])N([H])C([H])([H])C([H])([H])C([H])([H])F)c(F)c([C@]2([H])c3c(c4c([H])c([H])c([H])c([H])c4n3[H])C([H])([H])[C@@]([H])(C([H])([H])[H])N2C([H])([H])C(F)(F)F)c1F


 38 41  0  0  0  0  0  0  0  0999 V2000
   12.3902   43.1529  131.4743 C   0  0  0  0  0  0  0  0  0  0  0  0
   12.3005   43.9697  132.7395 C   0  0  0  0  0  0  0  0  0  0  0  0
   11.4913   43.1749  133.7848 C   0  0  0  0  0  0  0  0  0  0  0  0
   10.0862   43.2468  133.3532 C   0  0  0  0  0  0  0  0  0  0  0  0
    9.5795   44.2650  132.5670 C   0  0  0  0  0  0  0  0  0  0  0  0
    8.2744   44.0260  132.3602 N   0  0  0  0  0  0  0  0  0  0  0  0
    7.8999   42.8779  132.9872 C   0  0  0  0  0  0  0  0  0  0  0  0
    6.6905   42.2265  133.0717 C   0  0  0  0  0  0  0  0  0  0  0  0
    6.6235   41.0615  133.7958 C   0  0  0  0  0  0  0  0  0  0  0  0
    7.7553   40.5565  134.4274 C   0  0  0  0  0  0  0  0  0  0  0  0
    8.9617   41.2169  134.3364 C   0  0  0  0  0  0  0  0  0  0  0  0
    9.0359   42.3909  133.6089 C   0  0  0  0  0  0  0  0  0  0  0  0
   10.4707   45.3747  132.1140 C   0  0  0  0  0  0  0  0  0  0  0  0
   11.8032   45.2548  132.5282 N   0  0  0  0  0  0  0  0  0  0  0  0
    7.5790   44.5884  131.8124 H   0  0  0  0  0  0  0  0  0  0  0  0
    9.8640   46.7091  132.3683 C   0  0  0  0  0  0  0  0  0  0  0  0
    9.4641   47.0642  133.6333 C   0  0  0  0  0  0  0  0  0  0  0  0
    9.5901   46.2326  134.6834 F   0  0  0  0  0  0  0  0  0  0  0  0
    8.9146   48.3033  133.8605 C   0  0  0  0  0  0  0  0  0  0  0  0
    8.7532   49.2111  132.8348 C   0  0  0  0  0  0  0  0  0  0  0  0
    9.1415   48.8929  131.5535 C   0  0  0  0  0  0  0  0  0  0  0  0
    9.6897   47.6355  131.3666 C   0  0  0  0  0  0  0  0  0  0  0  0
   10.0751   47.3256  130.0777 F   0  0  0  0  0  0  0  0  0  0  0  0
    9.0028   49.8203  130.4893 N   0  0  0  0  0  0  0  0  0  0  0  0
    9.8525   50.1454  129.9946 H   0  0  0  0  0  0  0  0  0  0  0  0
    7.7029   50.3248  130.0758 C   0  0  0  0  0  0  0  0  0  0  0  0
    7.3809   49.8478  128.6752 C   0  0  0  0  0  0  0  0  0  0  0  0
    7.2280   48.4251  128.5902 N   0  0  0  0  0  0  0  0  0  0  0  0
    7.8774   47.9829  127.9261 H   0  0  0  0  0  0  0  0  0  0  0  0
    5.8761   47.9690  128.5096 C   0  0  0  0  0  0  0  0  0  0  0  0
    5.5088   46.9378  129.5542 C   0  0  0  0  0  0  0  0  0  0  0  0
    6.8045   46.5512  130.2455 C   0  0  0  0  0  0  0  0  0  0  0  0
    7.4567   45.5864  129.5072 F   0  0  0  0  0  0  0  0  0  0  0  0
   12.6386   46.3465  132.6679 C   0  0  0  0  0  0  0  0  0  0  0  0
   12.8341   46.7831  134.0981 C   0  0  0  0  0  0  0  0  0  0  0  0
   12.1418   47.9196  134.4394 F   0  0  0  0  0  0  0  0  0  0  0  0
   14.1801   47.0621  134.3536 F   0  0  0  0  0  0  0  0  0  0  0  0
   12.5054   45.7535  134.9820 F   0  0  0  0  0  0  0  0  0  0  0  0
  1  2  1  0  0  0
  2  3  1  0  0  0
  3  4  1  0  0  0
  4  5  2  0  0  0
  5  6  1  0  0  0
  6  7  1  0  0  0
  7  8  2  0  0  0
  8  9  1  0  0  0
  9 10  2  0  0  0
 10 11  1  0  0  0
 11 12  2  0  0  0
  5 13  1  0  0  0
 13 14  1  0  0  0
 14 34  1  0  0  0
 34 35  1  0  0  0
 35 36  1  0  0  0
 35 37  1  0  0  0
 35 38  1  0  0  0
 13 16  1  0  0  0
 16 17  2  0  0  0
 17 18  1  0  0  0
 17 19  1  0  0  0
 19 20  2  0  0  0
 20 21  1  0  0  0
 21 24  1  0  0  0
 24 26  1  0  0  0
 26 27  1  0  0  0
 27 28  1  0  0  0
 28 30  1  0  0  0
 30 31  1  0  0  0
 31 32  1  0  0  0
 32 33  1  0  0  0
 21 22  2  0  0  0
 22 23  1  0  0  0
 14  2  1  0  0  0
 22 16  1  0  0  0
 12  4  1  0  0  0
 12  7  1  0  0  0
  6 15  1  0  0  0
 24 25  1  0  0  0
 28 29  1  0  0  0
M  END
> <minimizedAffinity>
7.48891

> <CNNscore>
0.3635982573

> <CNNaffinity>
8.0035161972

> <CNN_VS>
2.9100644588

> <CNNaffinity_variance>
0.4169925749

$$$$
[H]c1c([H])c(N([H])C([H])([H])C([H])([H])N([H])C([H])([H])C([H])([H])C([H])([H])F)c(F)c([C@]2([H])c3c(c4c([H])c([H])c([H])c([H])c4n3[H])C([H])([H])[C@@]([H])(C([H])([H])[H])N2C([H])([H])C(F)(F)F)c1F


 38 41  0  0  0  0  0  0  0  0999 V2000
   12.2345   42.8471  131.5220 C   0  0  0  0  0  0  0  0  0  0  0  0
   11.9854   43.8806  132.5925 C   0  0  0  0  0  0  0  0  0  0  0  0
   11.0989   43.2537  133.6881 C   0  0  0  0  0  0  0  0  0  0  0  0
    9.7449   43.1685  133.1177 C   0  0  0  0  0  0  0  0  0  0  0  0
    9.2888   43.9930  132.1058 C   0  0  0  0  0  0  0  0  0  0  0  0
    8.0214   43.6502  131.8242 N   0  0  0  0  0  0  0  0  0  0  0  0
    7.6227   42.6216  132.6208 C   0  0  0  0  0  0  0  0  0  0  0  0
    6.4340   41.9340  132.7119 C   0  0  0  0  0  0  0  0  0  0  0  0
    6.3313   40.9235  133.6362 C   0  0  0  0  0  0  0  0  0  0  0  0
    7.4074   40.6068  134.4587 C   0  0  0  0  0  0  0  0  0  0  0  0
    8.5935   41.3017  134.3592 C   0  0  0  0  0  0  0  0  0  0  0  0
    8.7034   42.3210  133.4306 C   0  0  0  0  0  0  0  0  0  0  0  0
   10.1842   45.0440  131.5363 C   0  0  0  0  0  0  0  0  0  0  0  0
   11.4694   45.0750  132.0918 N   0  0  0  0  0  0  0  0  0  0  0  0
    7.3683   44.0621  131.1145 H   0  0  0  0  0  0  0  0  0  0  0  0
    9.5092   46.3681  131.4705 C   0  0  0  0  0  0  0  0  0  0  0  0
    9.2070   47.0554  132.6205 C   0  0  0  0  0  0  0  0  0  0  0  0
    9.4928   46.5677  133.8414 F   0  0  0  0  0  0  0  0  0  0  0  0
    8.5932   48.2829  132.5493 C   0  0  0  0  0  0  0  0  0  0  0  0
    8.2691   48.8491  131.3341 C   0  0  0  0  0  0  0  0  0  0  0  0
    8.5554   48.1920  130.1594 C   0  0  0  0  0  0  0  0  0  0  0  0
    9.1732   46.9585  130.2743 C   0  0  0  0  0  0  0  0  0  0  0  0
    9.4553   46.3070  129.0903 F   0  0  0  0  0  0  0  0  0  0  0  0
    8.2488   48.7668  128.8995 N   0  0  0  0  0  0  0  0  0  0  0  0
    8.8160   48.4988  128.0755 H   0  0  0  0  0  0  0  0  0  0  0  0
    7.1619   49.7192  128.7348 C   0  0  0  0  0  0  0  0  0  0  0  0
    7.2233   50.7722  129.8210 C   0  0  0  0  0  0  0  0  0  0  0  0
    7.2020   52.1095  129.3054 N   0  0  0  0  0  0  0  0  0  0  0  0
    6.6684   52.7653  129.8914 H   0  0  0  0  0  0  0  0  0  0  0  0
    6.9505   52.2093  127.9022 C   0  0  0  0  0  0  0  0  0  0  0  0
    7.7359   53.3018  127.2101 C   0  0  0  0  0  0  0  0  0  0  0  0
    6.8834   54.5560  127.2906 C   0  0  0  0  0  0  0  0  0  0  0  0
    6.0838   54.6486  126.1711 F   0  0  0  0  0  0  0  0  0  0  0  0
   12.2480   46.2164  132.0993 C   0  0  0  0  0  0  0  0  0  0  0  0
   12.6264   46.6850  133.4819 C   0  0  0  0  0  0  0  0  0  0  0  0
   12.0033   47.8452  133.8732 F   0  0  0  0  0  0  0  0  0  0  0  0
   13.9987   46.9401  133.5626 F   0  0  0  0  0  0  0  0  0  0  0  0
   12.3892   45.6861  134.4281 F   0  0  0  0  0  0  0  0  0  0  0  0
  1  2  1  0  0  0
  2  3  1  0  0  0
  3  4  1  0  0  0
  4  5  2  0  0  0
  5  6  1  0  0  0
  6  7  1  0  0  0
  7  8  2  0  0  0
  8  9  1  0  0  0
  9 10  2  0  0  0
 10 11  1  0  0  0
 11 12  2  0  0  0
  5 13  1  0  0  0
 13 14  1  0  0  0
 14 34  1  0  0  0
 34 35  1  0  0  0
 35 36  1  0  0  0
 35 37  1  0  0  0
 35 38  1  0  0  0
 13 16  1  0  0  0
 16 17  2  0  0  0
 17 18  1  0  0  0
 17 19  1  0  0  0
 19 20  2  0  0  0
 20 21  1  0  0  0
 21 24  1  0  0  0
 24 26  1  0  0  0
 26 27  1  0  0  0
 27 28  1  0  0  0
 28 30  1  0  0  0
 30 31  1  0  0  0
 31 32  1  0  0  0
 32 33  1  0  0  0
 21 22  2  0  0  0
 22 23  1  0  0  0
 14  2  1  0  0  0
 22 16  1  0  0  0
 12  4  1  0  0  0
 12  7  1  0  0  0
  6 15  1  0  0  0
 24 25  1  0  0  0
 28 29  1  0  0  0
M  END
> <minimizedAffinity>
10.08496

> <CNNscore>
0.3406192362

> <CNNaffinity>
7.8610396385

> <CNN_VS>
2.6776213646

> <CNNaffinity_variance>
1.1291596889

$$$$
[H]c1c([H])c(N([H])C([H])([H])C([H])([H])N([H])C([H])([H])C([H])([H])C([H])([H])F)c(F)c([C@]2([H])c3c(c4c([H])c([H])c([H])c([H])c4n3[H])C([H])([H])[C@@]([H])(C([H])([H])[H])N2C([H])([H])C(F)(F)F)c1F


 38 41  0  0  0  0  0  0  0  0999 V2000
    8.6155   42.4281  130.6908 C   0  0  0  0  0  0  0  0  0  0  0  0
    9.5688   43.4788  130.1776 C   0  0  0  0  0  0  0  0  0  0  0  0
   10.5933   43.8001  131.2850 C   0  0  0  0  0  0  0  0  0  0  0  0
    9.8720   44.6002  132.2878 C   0  0  0  0  0  0  0  0  0  0  0  0
    8.7544   45.3611  131.9983 C   0  0  0  0  0  0  0  0  0  0  0  0
    8.3487   45.9586  133.1302 N   0  0  0  0  0  0  0  0  0  0  0  0
    9.1655   45.6165  134.1634 C   0  0  0  0  0  0  0  0  0  0  0  0
    9.1637   45.9667  135.4943 C   0  0  0  0  0  0  0  0  0  0  0  0
   10.1412   45.4495  136.3087 C   0  0  0  0  0  0  0  0  0  0  0  0
   11.1083   44.5922  135.7944 C   0  0  0  0  0  0  0  0  0  0  0  0
   11.1009   44.2479  134.4598 C   0  0  0  0  0  0  0  0  0  0  0  0
   10.1194   44.7655  133.6340 C   0  0  0  0  0  0  0  0  0  0  0  0
    8.2205   45.4059  130.6041 C   0  0  0  0  0  0  0  0  0  0  0  0
    8.9227   44.6129  129.6878 N   0  0  0  0  0  0  0  0  0  0  0  0
    7.5371   46.6056  133.2809 H   0  0  0  0  0  0  0  0  0  0  0  0
    7.9762   46.8016  130.1509 C   0  0  0  0  0  0  0  0  0  0  0  0
    8.9989   47.7181  130.1311 C   0  0  0  0  0  0  0  0  0  0  0  0
   10.2472   47.4057  130.5238 F   0  0  0  0  0  0  0  0  0  0  0  0
    8.7660   49.0023  129.7006 C   0  0  0  0  0  0  0  0  0  0  0  0
    7.5128   49.3982  129.2819 C   0  0  0  0  0  0  0  0  0  0  0  0
    6.4623   48.5094  129.2868 C   0  0  0  0  0  0  0  0  0  0  0  0
    6.7381   47.2265  129.7280 C   0  0  0  0  0  0  0  0  0  0  0  0
    5.6774   46.3429  129.7301 F   0  0  0  0  0  0  0  0  0  0  0  0
    5.1712   48.8916  128.8407 N   0  0  0  0  0  0  0  0  0  0  0  0
    4.5854   48.1947  128.3472 H   0  0  0  0  0  0  0  0  0  0  0  0
    4.6500   50.2319  129.0579 C   0  0  0  0  0  0  0  0  0  0  0  0
    3.2502   50.3443  128.4918 C   0  0  0  0  0  0  0  0  0  0  0  0
    3.1218   51.3915  127.5214 N   0  0  0  0  0  0  0  0  0  0  0  0
    3.5349   52.2833  127.8250 H   0  0  0  0  0  0  0  0  0  0  0  0
    1.8310   51.4969  126.9173 C   0  0  0  0  0  0  0  0  0  0  0  0
    1.4011   52.9174  126.6228 C   0  0  0  0  0  0  0  0  0  0  0  0
    2.5546   53.5662  125.8781 C   0  0  0  0  0  0  0  0  0  0  0  0
    2.5199   53.1950  124.5506 F   0  0  0  0  0  0  0  0  0  0  0  0
    8.9392   44.8817  128.3327 C   0  0  0  0  0  0  0  0  0  0  0  0
   10.3263   45.0214  127.7575 C   0  0  0  0  0  0  0  0  0  0  0  0
   11.1986   45.7214  128.5553 F   0  0  0  0  0  0  0  0  0  0  0  0
   10.2925   45.7015  126.5364 F   0  0  0  0  0  0  0  0  0  0  0  0
   10.8691   43.7703  127.4584 F   0  0  0  0  0  0  0  0  0  0  0  0
  1  2  1  0  0  0
  2  3  1  0  0  0
  3  4  1  0  0  0
  4  5  2  0  0  0
  5  6  1  0  0  0
  6  7  1  0  0  0
  7  8  2  0  0  0
  8  9  1  0  0  0
  9 10  2  0  0  0
 10 11  1  0  0  0
 11 12  2  0  0  0
  5 13  1  0  0  0
 13 14  1  0  0  0
 14 34  1  0  0  0
 34 35  1  0  0  0
 35 36  1  0  0  0
 35 37  1  0  0  0
 35 38  1  0  0  0
 13 16  1  0  0  0
 16 17  2  0  0  0
 17 18  1  0  0  0
 17 19  1  0  0  0
 19 20  2  0  0  0
 20 21  1  0  0  0
 21 24  1  0  0  0
 24 26  1  0  0  0
 26 27  1  0  0  0
 27 28  1  0  0  0
 28 30  1  0  0  0
 30 31  1  0  0  0
 31 32  1  0  0  0
 32 33  1  0  0  0
 21 22  2  0  0  0
 22 23  1  0  0  0
 14  2  1  0  0  0
 22 16  1  0  0  0
 12  4  1  0  0  0
 12  7  1  0  0  0
  6 15  1  0  0  0
 24 25  1  0  0  0
 28 29  1  0  0  0
M  END
> <minimizedAffinity>
-0.12203

> <CNNscore>
0.3343218267

> <CNNaffinity>
7.5718817711

> <CNN_VS>
2.5314452648

> <CNNaffinity_variance>
0.2280450612

$$$$
[H]c1c([H])c(N([H])C([H])([H])C([H])([H])N([H])C([H])([H])C([H])([H])C([H])([H])F)c(F)c([C@]2([H])c3c(c4c([H])c([H])c([H])c([H])c4n3[H])C([H])([H])[C@@]([H])(C([H])([H])[H])N2C([H])([H])C(F)(F)F)c1F


 38 41  0  0  0  0  0  0  0  0999 V2000
   10.7294   46.7793  135.0399 C   0  0  0  0  0  0  0  0  0  0  0  0
    9.4294   46.8453  134.2771 C   0  0  0  0  0  0  0  0  0  0  0  0
    8.8031   45.4360  134.2449 C   0  0  0  0  0  0  0  0  0  0  0  0
    9.6035   44.6560  133.2873 C   0  0  0  0  0  0  0  0  0  0  0  0
   10.3280   45.2242  132.2558 C   0  0  0  0  0  0  0  0  0  0  0  0
   10.9372   44.2381  131.5779 N   0  0  0  0  0  0  0  0  0  0  0  0
   10.6374   43.0310  132.1298 C   0  0  0  0  0  0  0  0  0  0  0  0
   11.0105   41.7483  131.7987 C   0  0  0  0  0  0  0  0  0  0  0  0
   10.5333   40.7103  132.5608 C   0  0  0  0  0  0  0  0  0  0  0  0
    9.6923   40.9558  133.6413 C   0  0  0  0  0  0  0  0  0  0  0  0
    9.3249   42.2444  133.9643 C   0  0  0  0  0  0  0  0  0  0  0  0
    9.8018   43.2944  133.2006 C   0  0  0  0  0  0  0  0  0  0  0  0
   10.3208   46.7053  132.0637 C   0  0  0  0  0  0  0  0  0  0  0  0
    9.5656   47.4097  133.0097 N   0  0  0  0  0  0  0  0  0  0  0  0
   11.5641   44.3028  130.7397 H   0  0  0  0  0  0  0  0  0  0  0  0
   10.0410   47.0776  130.6508 C   0  0  0  0  0  0  0  0  0  0  0  0
   10.7717   46.5274  129.6263 C   0  0  0  0  0  0  0  0  0  0  0  0
   11.7657   45.6483  129.8482 F   0  0  0  0  0  0  0  0  0  0  0  0
   10.4986   46.8692  128.3234 C   0  0  0  0  0  0  0  0  0  0  0  0
    9.4945   47.7634  128.0158 C   0  0  0  0  0  0  0  0  0  0  0  0
    8.7401   48.3361  129.0140 C   0  0  0  0  0  0  0  0  0  0  0  0
    9.0469   47.9661  130.3123 C   0  0  0  0  0  0  0  0  0  0  0  0
    8.2851   48.5469  131.3063 F   0  0  0  0  0  0  0  0  0  0  0  0
    7.6898   49.2418  128.7168 N   0  0  0  0  0  0  0  0  0  0  0  0
    7.3137   49.2733  127.7524 H   0  0  0  0  0  0  0  0  0  0  0  0
    7.1285   50.1242  129.7276 C   0  0  0  0  0  0  0  0  0  0  0  0
    5.6823   50.4340  129.4033 C   0  0  0  0  0  0  0  0  0  0  0  0
    4.8496   49.2673  129.3911 N   0  0  0  0  0  0  0  0  0  0  0  0
    4.2382   49.1926  130.2150 H   0  0  0  0  0  0  0  0  0  0  0  0
    5.5137   48.0581  129.0185 C   0  0  0  0  0  0  0  0  0  0  0  0
    5.1081   46.8528  129.8385 C   0  0  0  0  0  0  0  0  0  0  0  0
    6.3970   46.2229  130.3366 C   0  0  0  0  0  0  0  0  0  0  0  0
    7.1955   45.8854  129.2643 F   0  0  0  0  0  0  0  0  0  0  0  0
    9.0179   48.6509  132.7478 C   0  0  0  0  0  0  0  0  0  0  0  0
   10.0122   49.7823  132.8235 C   0  0  0  0  0  0  0  0  0  0  0  0
   10.9545   49.6383  133.8128 F   0  0  0  0  0  0  0  0  0  0  0  0
    9.3668   50.9954  133.0816 F   0  0  0  0  0  0  0  0  0  0  0  0
   10.6497   49.9674  131.5953 F   0  0  0  0  0  0  0  0  0  0  0  0
  1  2  1  0  0  0
  2  3  1  0  0  0
  3  4  1  0  0  0
  4  5  2  0  0  0
  5  6  1  0  0  0
  6  7  1  0  0  0
  7  8  2  0  0  0
  8  9  1  0  0  0
  9 10  2  0  0  0
 10 11  1  0  0  0
 11 12  2  0  0  0
  5 13  1  0  0  0
 13 14  1  0  0  0
 14 34  1  0  0  0
 34 35  1  0  0  0
 35 36  1  0  0  0
 35 37  1  0  0  0
 35 38  1  0  0  0
 13 16  1  0  0  0
 16 17  2  0  0  0
 17 18  1  0  0  0
 17 19  1  0  0  0
 19 20  2  0  0  0
 20 21  1  0  0  0
 21 24  1  0  0  0
 24 26  1  0  0  0
 26 27  1  0  0  0
 27 28  1  0  0  0
 28 30  1  0  0  0
 30 31  1  0  0  0
 31 32  1  0  0  0
 32 33  1  0  0  0
 21 22  2  0  0  0
 22 23  1  0  0  0
 14  2  1  0  0  0
 22 16  1  0  0  0
 12  4  1  0  0  0
 12  7  1  0  0  0
  6 15  1  0  0  0
 24 25  1  0  0  0
 28 29  1  0  0  0
M  END
> <minimizedAffinity>
3.77463

> <CNNscore>
0.3272807896

> <CNNaffinity>
7.9015517235

> <CNN_VS>
2.5860261917

> <CNNaffinity_variance>
0.3641756177

$$$$
[H]Oc1c([H])c([H])c2c(c1[H])C([H])([H])C([H])([H])[C@@]([H])(c1c([H])c([H])c([H])c([H])c1[H])[C@@]2([H])c1c([H])c([H])c(N([H])C([H])([H])C([H])([H])N2C([H])([H])C([H])([H])[C@@]([H])(C([H])([H])F)C2([H])[H])c([H])c1[H]


 35 39  0  0  0  0  0  0  0  0999 V2000
   10.7590   42.6317  126.6865 O   0  0  0  0  0  0  0  0  0  0  0  0
   10.3080   43.4636  127.7141 C   0  0  0  0  0  0  0  0  0  0  0  0
    8.9682   43.6912  127.8982 C   0  0  0  0  0  0  0  0  0  0  0  0
    8.5649   44.5149  128.9196 C   0  0  0  0  0  0  0  0  0  0  0  0
    9.4845   45.1263  129.7750 C   0  0  0  0  0  0  0  0  0  0  0  0
    8.9788   46.0071  130.8701 C   0  0  0  0  0  0  0  0  0  0  0  0
    9.9207   45.9401  132.0343 C   0  0  0  0  0  0  0  0  0  0  0  0
   11.3626   46.1074  131.7249 C   0  0  0  0  0  0  0  0  0  0  0  0
   11.8351   45.5092  130.4493 C   0  0  0  0  0  0  0  0  0  0  0  0
   10.8055   44.9066  129.5994 C   0  0  0  0  0  0  0  0  0  0  0  0
   11.2084   44.0656  128.5557 C   0  0  0  0  0  0  0  0  0  0  0  0
   10.8857   41.6334  126.8357 H   0  0  0  0  0  0  0  0  0  0  0  0
    9.4836   46.6829  133.2143 C   0  0  0  0  0  0  0  0  0  0  0  0
    8.4455   46.1575  134.0073 C   0  0  0  0  0  0  0  0  0  0  0  0
    8.0062   46.8088  135.1357 C   0  0  0  0  0  0  0  0  0  0  0  0
    8.5749   48.0015  135.5227 C   0  0  0  0  0  0  0  0  0  0  0  0
    9.5861   48.5178  134.7544 C   0  0  0  0  0  0  0  0  0  0  0  0
   10.0440   47.8666  133.6032 C   0  0  0  0  0  0  0  0  0  0  0  0
    8.5099   47.3051  130.4406 C   0  0  0  0  0  0  0  0  0  0  0  0
    7.1824   47.4528  130.0347 C   0  0  0  0  0  0  0  0  0  0  0  0
    6.7127   48.6762  129.6083 C   0  0  0  0  0  0  0  0  0  0  0  0
    7.5378   49.7755  129.5734 C   0  0  0  0  0  0  0  0  0  0  0  0
    8.8320   49.6436  129.9660 C   0  0  0  0  0  0  0  0  0  0  0  0
    9.3156   48.4052  130.3995 C   0  0  0  0  0  0  0  0  0  0  0  0
    7.0084   51.0085  129.1261 N   0  0  0  0  0  0  0  0  0  0  0  0
    6.2740   51.5142  129.7039 H   0  0  0  0  0  0  0  0  0  0  0  0
    7.4233   51.6339  127.8881 C   0  0  0  0  0  0  0  0  0  0  0  0
    6.7759   52.9653  127.7573 C   0  0  0  0  0  0  0  0  0  0  0  0
    7.4916   53.8973  126.9445 N   0  0  0  0  0  0  0  0  0  0  0  0
    8.5154   53.3428  126.1194 C   0  0  0  0  0  0  0  0  0  0  0  0
    8.6615   54.4407  125.0560 C   0  0  0  0  0  0  0  0  0  0  0  0
    7.1981   54.6614  124.7039 C   0  0  0  0  0  0  0  0  0  0  0  0
    6.5434   54.5620  126.0518 C   0  0  0  0  0  0  0  0  0  0  0  0
    6.6966   53.6048  123.7477 C   0  0  0  0  0  0  0  0  0  0  0  0
    5.5636   54.0557  123.1076 F   0  0  0  0  0  0  0  0  0  0  0  0
  1  2  1  0  0  0
  2  3  2  0  0  0
  3  4  1  0  0  0
  4  5  2  0  0  0
  5  6  1  0  0  0
  6  7  1  0  0  0
  7  8  1  0  0  0
  8  9  1  0  0  0
  9 10  1  0  0  0
 10 11  2  0  0  0
  7 13  1  0  0  0
 13 14  2  0  0  0
 14 15  1  0  0  0
 15 16  2  0  0  0
 16 17  1  0  0  0
 17 18  2  0  0  0
  6 19  1  0  0  0
 19 20  2  0  0  0
 20 21  1  0  0  0
 21 22  2  0  0  0
 22 25  1  0  0  0
 25 27  1  0  0  0
 27 28  1  0  0  0
 28 29  1  0  0  0
 29 30  1  0  0  0
 30 31  1  0  0  0
 31 32  1  0  0  0
 32 34  1  0  0  0
 34 35  1  0  0  0
 32 33  1  0  0  0
 22 23  1  0  0  0
 23 24  2  0  0  0
 11  2  1  0  0  0
 18 13  1  0  0  0
 24 19  1  0  0  0
 10  5  1  0  0  0
 33 29  1  0  0  0
  1 12  1  0  0  0
 25 26  1  0  0  0
M  END
> <minimizedAffinity>
1.55232

> <CNNscore>
0.4151237011

> <CNNaffinity>
7.3494286537

> <CNN_VS>
3.0509219170

> <CNNaffinity_variance>
0.5335137248

$$$$
[H]Oc1c([H])c([H])c2c(c1[H])C([H])([H])C([H])([H])[C@@]([H])(c1c([H])c([H])c([H])c([H])c1[H])[C@@]2([H])c1c([H])c([H])c(N([H])C([H])([H])C([H])([H])N2C([H])([H])C([H])([H])[C@@]([H])(C([H])([H])F)C2([H])[H])c([H])c1[H]


 35 39  0  0  0  0  0  0  0  0999 V2000
   15.6398   44.9298  128.7904 O   0  0  0  0  0  0  0  0  0  0  0  0
   14.3295   44.6243  129.1662 C   0  0  0  0  0  0  0  0  0  0  0  0
   13.3798   44.3223  128.2241 C   0  0  0  0  0  0  0  0  0  0  0  0
   12.1031   44.0273  128.6335 C   0  0  0  0  0  0  0  0  0  0  0  0
   11.7481   44.0272  129.9844 C   0  0  0  0  0  0  0  0  0  0  0  0
   10.3426   43.6920  130.3628 C   0  0  0  0  0  0  0  0  0  0  0  0
   10.3360   43.0326  131.7090 C   0  0  0  0  0  0  0  0  0  0  0  0
   11.1176   43.7064  132.7757 C   0  0  0  0  0  0  0  0  0  0  0  0
   12.3896   44.3480  132.3534 C   0  0  0  0  0  0  0  0  0  0  0  0
   12.6783   44.3238  130.9175 C   0  0  0  0  0  0  0  0  0  0  0  0
   13.9775   44.6235  130.4918 C   0  0  0  0  0  0  0  0  0  0  0  0
   16.3453   44.2020  128.7047 H   0  0  0  0  0  0  0  0  0  0  0  0
    9.0247   42.5626  132.1500 C   0  0  0  0  0  0  0  0  0  0  0  0
    8.1195   42.0645  131.1935 C   0  0  0  0  0  0  0  0  0  0  0  0
    6.8787   41.5966  131.5567 C   0  0  0  0  0  0  0  0  0  0  0  0
    6.4860   41.6029  132.8764 C   0  0  0  0  0  0  0  0  0  0  0  0
    7.3633   42.0866  133.8122 C   0  0  0  0  0  0  0  0  0  0  0  0
    8.6296   42.5663  133.4578 C   0  0  0  0  0  0  0  0  0  0  0  0
    9.3767   44.7359  130.1053 C   0  0  0  0  0  0  0  0  0  0  0  0
    9.6125   45.6466  129.0739 C   0  0  0  0  0  0  0  0  0  0  0  0
    8.7144   46.6594  128.8152 C   0  0  0  0  0  0  0  0  0  0  0  0
    7.5695   46.7954  129.5643 C   0  0  0  0  0  0  0  0  0  0  0  0
    7.3296   45.9149  130.5711 C   0  0  0  0  0  0  0  0  0  0  0  0
    8.2366   44.8850  130.8395 C   0  0  0  0  0  0  0  0  0  0  0  0
    6.6802   47.8525  129.2604 N   0  0  0  0  0  0  0  0  0  0  0  0
    5.6805   47.6409  128.9693 H   0  0  0  0  0  0  0  0  0  0  0  0
    7.0710   49.2450  129.3241 C   0  0  0  0  0  0  0  0  0  0  0  0
    7.1521   49.6786  130.7434 C   0  0  0  0  0  0  0  0  0  0  0  0
    8.4668   50.0204  131.1866 N   0  0  0  0  0  0  0  0  0  0  0  0
    8.6893   49.9340  132.5936 C   0  0  0  0  0  0  0  0  0  0  0  0
   10.2193   49.8152  132.6416 C   0  0  0  0  0  0  0  0  0  0  0  0
   10.4312   48.7306  131.5961 C   0  0  0  0  0  0  0  0  0  0  0  0
    9.4232   49.1151  130.5514 C   0  0  0  0  0  0  0  0  0  0  0  0
   10.1652   47.3570  132.1661 C   0  0  0  0  0  0  0  0  0  0  0  0
    9.0914   47.4097  133.0267 F   0  0  0  0  0  0  0  0  0  0  0  0
  1  2  1  0  0  0
  2  3  2  0  0  0
  3  4  1  0  0  0
  4  5  2  0  0  0
  5  6  1  0  0  0
  6  7  1  0  0  0
  7  8  1  0  0  0
  8  9  1  0  0  0
  9 10  1  0  0  0
 10 11  2  0  0  0
  7 13  1  0  0  0
 13 14  2  0  0  0
 14 15  1  0  0  0
 15 16  2  0  0  0
 16 17  1  0  0  0
 17 18  2  0  0  0
  6 19  1  0  0  0
 19 20  2  0  0  0
 20 21  1  0  0  0
 21 22  2  0  0  0
 22 25  1  0  0  0
 25 27  1  0  0  0
 27 28  1  0  0  0
 28 29  1  0  0  0
 29 30  1  0  0  0
 30 31  1  0  0  0
 31 32  1  0  0  0
 32 34  1  0  0  0
 34 35  1  0  0  0
 32 33  1  0  0  0
 22 23  1  0  0  0
 23 24  2  0  0  0
 11  2  1  0  0  0
 18 13  1  0  0  0
 24 19  1  0  0  0
 10  5  1  0  0  0
 33 29  1  0  0  0
  1 12  1  0  0  0
 25 26  1  0  0  0
M  END
> <minimizedAffinity>
4.35643

> <CNNscore>
0.4040862024

> <CNNaffinity>
7.9090909958

> <CNN_VS>
3.1959545612

> <CNNaffinity_variance>
0.5620514750

$$$$
[H]Oc1c([H])c([H])c2c(c1[H])C([H])([H])C([H])([H])[C@@]([H])(c1c([H])c([H])c([H])c([H])c1[H])[C@@]2([H])c1c([H])c([H])c(N([H])C([H])([H])C([H])([H])N2C([H])([H])C([H])([H])[C@@]([H])(C([H])([H])F)C2([H])[H])c([H])c1[H]


 35 39  0  0  0  0  0  0  0  0999 V2000
    8.8760   41.3885  129.8379 O   0  0  0  0  0  0  0  0  0  0  0  0
    9.2704   42.4624  130.6395 C   0  0  0  0  0  0  0  0  0  0  0  0
    8.3905   43.0488  131.5128 C   0  0  0  0  0  0  0  0  0  0  0  0
    8.8163   44.1019  132.2836 C   0  0  0  0  0  0  0  0  0  0  0  0
   10.1223   44.5903  132.2003 C   0  0  0  0  0  0  0  0  0  0  0  0
   10.5229   45.7358  133.0712 C   0  0  0  0  0  0  0  0  0  0  0  0
   11.9809   45.6216  133.4000 C   0  0  0  0  0  0  0  0  0  0  0  0
   12.8949   45.3656  132.2589 C   0  0  0  0  0  0  0  0  0  0  0  0
   12.3794   44.4691  131.1918 C   0  0  0  0  0  0  0  0  0  0  0  0
   10.9941   44.0177  131.3424 C   0  0  0  0  0  0  0  0  0  0  0  0
   10.5520   42.9446  130.5601 C   0  0  0  0  0  0  0  0  0  0  0  0
    8.9752   40.4284  130.1593 H   0  0  0  0  0  0  0  0  0  0  0  0
   12.4754   46.6317  134.3329 C   0  0  0  0  0  0  0  0  0  0  0  0
   13.8206   46.5813  134.7455 C   0  0  0  0  0  0  0  0  0  0  0  0
   14.3402   47.5155  135.6103 C   0  0  0  0  0  0  0  0  0  0  0  0
   13.5518   48.5330  136.0991 C   0  0  0  0  0  0  0  0  0  0  0  0
   12.2412   48.5871  135.7007 C   0  0  0  0  0  0  0  0  0  0  0  0
   11.6980   47.6435  134.8212 C   0  0  0  0  0  0  0  0  0  0  0  0
   10.0113   47.0231  132.6585 C   0  0  0  0  0  0  0  0  0  0  0  0
   10.4551   47.5830  131.4592 C   0  0  0  0  0  0  0  0  0  0  0  0
    9.9933   48.8147  131.0485 C   0  0  0  0  0  0  0  0  0  0  0  0
    9.0879   49.5178  131.8077 C   0  0  0  0  0  0  0  0  0  0  0  0
    8.6491   48.9828  132.9772 C   0  0  0  0  0  0  0  0  0  0  0  0
    9.1135   47.7335  133.4004 C   0  0  0  0  0  0  0  0  0  0  0  0
    8.6459   50.7786  131.3436 N   0  0  0  0  0  0  0  0  0  0  0  0
    8.8570   51.6566  131.9034 H   0  0  0  0  0  0  0  0  0  0  0  0
    7.8988   50.9406  130.1141 C   0  0  0  0  0  0  0  0  0  0  0  0
    6.5833   50.2594  130.2333 C   0  0  0  0  0  0  0  0  0  0  0  0
    6.3151   49.3005  129.2085 N   0  0  0  0  0  0  0  0  0  0  0  0
    7.4559   48.8029  128.5104 C   0  0  0  0  0  0  0  0  0  0  0  0
    6.9008   47.4896  127.9405 C   0  0  0  0  0  0  0  0  0  0  0  0
    6.2491   46.9161  129.1897 C   0  0  0  0  0  0  0  0  0  0  0  0
    5.6523   48.1455  129.8123 C   0  0  0  0  0  0  0  0  0  0  0  0
    7.2687   46.2591  130.0903 C   0  0  0  0  0  0  0  0  0  0  0  0
    6.8294   46.2944  131.3950 F   0  0  0  0  0  0  0  0  0  0  0  0
  1  2  1  0  0  0
  2  3  2  0  0  0
  3  4  1  0  0  0
  4  5  2  0  0  0
  5  6  1  0  0  0
  6  7  1  0  0  0
  7  8  1  0  0  0
  8  9  1  0  0  0
  9 10  1  0  0  0
 10 11  2  0  0  0
  7 13  1  0  0  0
 13 14  2  0  0  0
 14 15  1  0  0  0
 15 16  2  0  0  0
 16 17  1  0  0  0
 17 18  2  0  0  0
  6 19  1  0  0  0
 19 20  2  0  0  0
 20 21  1  0  0  0
 21 22  2  0  0  0
 22 25  1  0  0  0
 25 27  1  0  0  0
 27 28  1  0  0  0
 28 29  1  0  0  0
 29 30  1  0  0  0
 30 31  1  0  0  0
 31 32  1  0  0  0
 32 34  1  0  0  0
 34 35  1  0  0  0
 32 33  1  0  0  0
 22 23  1  0  0  0
 23 24  2  0  0  0
 11  2  1  0  0  0
 18 13  1  0  0  0
 24 19  1  0  0  0
 10  5  1  0  0  0
 33 29  1  0  0  0
  1 12  1  0  0  0
 25 26  1  0  0  0
M  END
> <minimizedAffinity>
5.46072

> <CNNscore>
0.3981233239

> <CNNaffinity>
7.9411191940

> <CNN_VS>
3.1615447998

> <CNNaffinity_variance>
0.2791866362

$$$$
[H]Oc1c([H])c([H])c2c(c1[H])C([H])([H])C([H])([H])[C@@]([H])(c1c([H])c([H])c([H])c([H])c1[H])[C@@]2([H])c1c([H])c([H])c(N([H])C([H])([H])C([H])([H])N2C([H])([H])C([H])([H])[C@@]([H])(C([H])([H])F)C2([H])[H])c([H])c1[H]


 35 39  0  0  0  0  0  0  0  0999 V2000
    6.4331   51.3723  128.6289 O   0  0  0  0  0  0  0  0  0  0  0  0
    7.1323   50.4650  129.4285 C   0  0  0  0  0  0  0  0  0  0  0  0
    8.4040   50.7426  129.8605 C   0  0  0  0  0  0  0  0  0  0  0  0
    9.0578   49.8253  130.6451 C   0  0  0  0  0  0  0  0  0  0  0  0
    8.4606   48.6177  131.0138 C   0  0  0  0  0  0  0  0  0  0  0  0
    9.2253   47.6656  131.8739 C   0  0  0  0  0  0  0  0  0  0  0  0
    8.2675   46.8926  132.7296 C   0  0  0  0  0  0  0  0  0  0  0  0
    7.0997   46.2948  132.0355 C   0  0  0  0  0  0  0  0  0  0  0  0
    6.5107   47.0953  130.9308 C   0  0  0  0  0  0  0  0  0  0  0  0
    7.2085   48.3378  130.5918 C   0  0  0  0  0  0  0  0  0  0  0  0
    6.5488   49.2782  129.7923 C   0  0  0  0  0  0  0  0  0  0  0  0
    5.8450   52.0924  129.0419 H   0  0  0  0  0  0  0  0  0  0  0  0
    8.9004   45.9948  133.6931 C   0  0  0  0  0  0  0  0  0  0  0  0
    9.0352   44.6309  133.3707 C   0  0  0  0  0  0  0  0  0  0  0  0
    9.6357   43.7462  134.2351 C   0  0  0  0  0  0  0  0  0  0  0  0
   10.1252   44.1750  135.4486 C   0  0  0  0  0  0  0  0  0  0  0  0
    9.9969   45.5020  135.7678 C   0  0  0  0  0  0  0  0  0  0  0  0
    9.3880   46.4144  134.8984 C   0  0  0  0  0  0  0  0  0  0  0  0
   10.2775   46.9425  131.1964 C   0  0  0  0  0  0  0  0  0  0  0  0
   10.2892   46.8998  129.8011 C   0  0  0  0  0  0  0  0  0  0  0  0
   11.2734   46.2069  129.1301 C   0  0  0  0  0  0  0  0  0  0  0  0
   12.2631   45.5443  129.8171 C   0  0  0  0  0  0  0  0  0  0  0  0
   12.2617   45.5786  131.1755 C   0  0  0  0  0  0  0  0  0  0  0  0
   11.2659   46.2795  131.8631 C   0  0  0  0  0  0  0  0  0  0  0  0
   13.2496   44.8460  129.0824 N   0  0  0  0  0  0  0  0  0  0  0  0
   14.2757   45.0974  129.1953 H   0  0  0  0  0  0  0  0  0  0  0  0
   12.9266   43.7798  128.1578 C   0  0  0  0  0  0  0  0  0  0  0  0
   11.4738   43.8099  127.8455 C   0  0  0  0  0  0  0  0  0  0  0  0
   10.6849   42.8845  128.5959 N   0  0  0  0  0  0  0  0  0  0  0  0
   10.8070   42.9730  130.0149 C   0  0  0  0  0  0  0  0  0  0  0  0
    9.5051   42.2941  130.4639 C   0  0  0  0  0  0  0  0  0  0  0  0
    8.5102   43.0155  129.5672 C   0  0  0  0  0  0  0  0  0  0  0  0
    9.2753   43.1086  128.2784 C   0  0  0  0  0  0  0  0  0  0  0  0
    8.1573   44.3766  130.1198 C   0  0  0  0  0  0  0  0  0  0  0  0
    7.9523   45.2610  129.0843 F   0  0  0  0  0  0  0  0  0  0  0  0
  1  2  1  0  0  0
  2  3  2  0  0  0
  3  4  1  0  0  0
  4  5  2  0  0  0
  5  6  1  0  0  0
  6  7  1  0  0  0
  7  8  1  0  0  0
  8  9  1  0  0  0
  9 10  1  0  0  0
 10 11  2  0  0  0
  7 13  1  0  0  0
 13 14  2  0  0  0
 14 15  1  0  0  0
 15 16  2  0  0  0
 16 17  1  0  0  0
 17 18  2  0  0  0
  6 19  1  0  0  0
 19 20  2  0  0  0
 20 21  1  0  0  0
 21 22  2  0  0  0
 22 25  1  0  0  0
 25 27  1  0  0  0
 27 28  1  0  0  0
 28 29  1  0  0  0
 29 30  1  0  0  0
 30 31  1  0  0  0
 31 32  1  0  0  0
 32 34  1  0  0  0
 34 35  1  0  0  0
 32 33  1  0  0  0
 22 23  1  0  0  0
 23 24  2  0  0  0
 11  2  1  0  0  0
 18 13  1  0  0  0
 24 19  1  0  0  0
 10  5  1  0  0  0
 33 29  1  0  0  0
  1 12  1  0  0  0
 25 26  1  0  0  0
M  END
> <minimizedAffinity>
2.80799

> <CNNscore>
0.3938972950

> <CNNaffinity>
8.1811952591

> <CNN_VS>
3.2225506306

> <CNNaffinity_variance>
1.0717735291

$$$$
[H]Oc1c([H])c([H])c2c(c1[H])C([H])([H])C([H])([H])[C@@]([H])(c1c([H])c([H])c([H])c([H])c1[H])[C@@]2([H])c1c([H])c([H])c(N([H])C([H])([H])C([H])([H])N2C([H])([H])C([H])([H])[C@@]([H])(C([H])([H])F)C2([H])[H])c([H])c1[H]


 35 39  0  0  0  0  0  0  0  0999 V2000
    6.6439   52.1904  128.3259 O   0  0  0  0  0  0  0  0  0  0  0  0
    7.0508   51.0193  128.9698 C   0  0  0  0  0  0  0  0  0  0  0  0
    8.1299   51.0204  129.8161 C   0  0  0  0  0  0  0  0  0  0  0  0
    8.4982   49.8491  130.4301 C   0  0  0  0  0  0  0  0  0  0  0  0
    7.8018   48.6577  130.2142 C   0  0  0  0  0  0  0  0  0  0  0  0
    8.2517   47.4193  130.9178 C   0  0  0  0  0  0  0  0  0  0  0  0
    7.0672   46.5370  131.1734 C   0  0  0  0  0  0  0  0  0  0  0  0
    6.1640   46.2972  130.0203 C   0  0  0  0  0  0  0  0  0  0  0  0
    5.9550   47.4444  129.0992 C   0  0  0  0  0  0  0  0  0  0  0  0
    6.7382   48.6494  129.3819 C   0  0  0  0  0  0  0  0  0  0  0  0
    6.3693   49.8477  128.7599 C   0  0  0  0  0  0  0  0  0  0  0  0
    5.9657   52.8167  128.7533 H   0  0  0  0  0  0  0  0  0  0  0  0
    7.3605   45.3341  131.9493 C   0  0  0  0  0  0  0  0  0  0  0  0
    7.7228   44.1545  131.2713 C   0  0  0  0  0  0  0  0  0  0  0  0
    8.0229   42.9992  131.9537 C   0  0  0  0  0  0  0  0  0  0  0  0
    7.9765   42.9657  133.3294 C   0  0  0  0  0  0  0  0  0  0  0  0
    7.6245   44.1113  133.9949 C   0  0  0  0  0  0  0  0  0  0  0  0
    7.3163   45.2948  133.3142 C   0  0  0  0  0  0  0  0  0  0  0  0
    9.4531   46.8180  130.3848 C   0  0  0  0  0  0  0  0  0  0  0  0
   10.5597   46.6462  131.2183 C   0  0  0  0  0  0  0  0  0  0  0  0
   11.7220   46.0873  130.7325 C   0  0  0  0  0  0  0  0  0  0  0  0
   11.8178   45.6873  129.4205 C   0  0  0  0  0  0  0  0  0  0  0  0
   10.7471   45.8499  128.5998 C   0  0  0  0  0  0  0  0  0  0  0  0
    9.5646   46.4165  129.0858 C   0  0  0  0  0  0  0  0  0  0  0  0
   13.0330   45.1210  128.9698 N   0  0  0  0  0  0  0  0  0  0  0  0
   13.4489   45.4224  128.0398 H   0  0  0  0  0  0  0  0  0  0  0  0
   13.7586   44.1235  129.7278 C   0  0  0  0  0  0  0  0  0  0  0  0
   12.8166   43.3709  130.5968 C   0  0  0  0  0  0  0  0  0  0  0  0
   13.0975   43.4594  131.9950 N   0  0  0  0  0  0  0  0  0  0  0  0
   13.3027   44.7765  132.5045 C   0  0  0  0  0  0  0  0  0  0  0  0
   13.0249   44.5593  133.9989 C   0  0  0  0  0  0  0  0  0  0  0  0
   11.7175   43.7863  133.9130 C   0  0  0  0  0  0  0  0  0  0  0  0
   11.9708   42.8915  132.7339 C   0  0  0  0  0  0  0  0  0  0  0  0
   10.5450   44.7113  133.6848 C   0  0  0  0  0  0  0  0  0  0  0  0
   10.3856   45.5389  134.7739 F   0  0  0  0  0  0  0  0  0  0  0  0
  1  2  1  0  0  0
  2  3  2  0  0  0
  3  4  1  0  0  0
  4  5  2  0  0  0
  5  6  1  0  0  0
  6  7  1  0  0  0
  7  8  1  0  0  0
  8  9  1  0  0  0
  9 10  1  0  0  0
 10 11  2  0  0  0
  7 13  1  0  0  0
 13 14  2  0  0  0
 14 15  1  0  0  0
 15 16  2  0  0  0
 16 17  1  0  0  0
 17 18  2  0  0  0
  6 19  1  0  0  0
 19 20  2  0  0  0
 20 21  1  0  0  0
 21 22  2  0  0  0
 22 25  1  0  0  0
 25 27  1  0  0  0
 27 28  1  0  0  0
 28 29  1  0  0  0
 29 30  1  0  0  0
 30 31  1  0  0  0
 31 32  1  0  0  0
 32 34  1  0  0  0
 34 35  1  0  0  0
 32 33  1  0  0  0
 22 23  1  0  0  0
 23 24  2  0  0  0
 11  2  1  0  0  0
 18 13  1  0  0  0
 24 19  1  0  0  0
 10  5  1  0  0  0
 33 29  1  0  0  0
  1 12  1  0  0  0
 25 26  1  0  0  0
M  END
> <minimizedAffinity>
1.70819

> <CNNscore>
0.3746361434

> <CNNaffinity>
7.6918387413

> <CNN_VS>
2.8816409111

> <CNNaffinity_variance>
0.4469113946

$$$$
[H]Oc1c([H])c([H])c2c(c1[H])C([H])([H])C([H])([H])[C@@]([H])(c1c([H])c([H])c([H])c([H])c1[H])[C@@]2([H])c1c([H])c([H])c(N([H])C([H])([H])C([H])([H])N2C([H])([H])C([H])([H])[C@@]([H])(C([H])([H])F)C2([H])[H])c([H])c1[H]


 35 39  0  0  0  0  0  0  0  0999 V2000
    6.0016   51.8738  128.6843 O   0  0  0  0  0  0  0  0  0  0  0  0
    6.8928   50.9149  129.1721 C   0  0  0  0  0  0  0  0  0  0  0  0
    7.7377   50.2445  128.3252 C   0  0  0  0  0  0  0  0  0  0  0  0
    8.5992   49.3096  128.8433 C   0  0  0  0  0  0  0  0  0  0  0  0
    8.6361   49.0247  130.2103 C   0  0  0  0  0  0  0  0  0  0  0  0
    9.6011   47.9998  130.7095 C   0  0  0  0  0  0  0  0  0  0  0  0
   10.0219   48.3537  132.1041 C   0  0  0  0  0  0  0  0  0  0  0  0
    8.9329   48.6899  133.0548 C   0  0  0  0  0  0  0  0  0  0  0  0
    7.7799   49.4417  132.4948 C   0  0  0  0  0  0  0  0  0  0  0  0
    7.8067   49.6812  131.0500 C   0  0  0  0  0  0  0  0  0  0  0  0
    6.9316   50.6327  130.5138 C   0  0  0  0  0  0  0  0  0  0  0  0
    6.2696   52.8525  128.6132 H   0  0  0  0  0  0  0  0  0  0  0  0
   11.0468   47.4799  132.6708 C   0  0  0  0  0  0  0  0  0  0  0  0
   11.1178   47.3263  134.0685 C   0  0  0  0  0  0  0  0  0  0  0  0
   12.0535   46.5053  134.6524 C   0  0  0  0  0  0  0  0  0  0  0  0
   12.9527   45.8061  133.8787 C   0  0  0  0  0  0  0  0  0  0  0  0
   12.8881   45.9518  132.5172 C   0  0  0  0  0  0  0  0  0  0  0  0
   11.9415   46.7838  131.9083 C   0  0  0  0  0  0  0  0  0  0  0  0
    9.2339   46.6300  130.4303 C   0  0  0  0  0  0  0  0  0  0  0  0
   10.1343   45.8048  129.7541 C   0  0  0  0  0  0  0  0  0  0  0  0
    9.8046   44.4987  129.4638 C   0  0  0  0  0  0  0  0  0  0  0  0
    8.5856   43.9800  129.8323 C   0  0  0  0  0  0  0  0  0  0  0  0
    7.7011   44.7741  130.4908 C   0  0  0  0  0  0  0  0  0  0  0  0
    8.0287   46.1005  130.7885 C   0  0  0  0  0  0  0  0  0  0  0  0
    8.2942   42.6342  129.5096 N   0  0  0  0  0  0  0  0  0  0  0  0
    7.6678   42.4083  128.6817 H   0  0  0  0  0  0  0  0  0  0  0  0
    8.8162   41.5178  130.2694 C   0  0  0  0  0  0  0  0  0  0  0  0
   10.2393   41.7692  130.6165 C   0  0  0  0  0  0  0  0  0  0  0  0
   10.4984   41.8849  132.0169 N   0  0  0  0  0  0  0  0  0  0  0  0
   11.4343   42.8942  132.3935 C   0  0  0  0  0  0  0  0  0  0  0  0
   11.0606   43.1049  133.8678 C   0  0  0  0  0  0  0  0  0  0  0  0
    9.5504   43.2351  133.7397 C   0  0  0  0  0  0  0  0  0  0  0  0
    9.2434   42.1968  132.6992 C   0  0  0  0  0  0  0  0  0  0  0  0
    9.1534   44.6230  133.2940 C   0  0  0  0  0  0  0  0  0  0  0  0
    8.5148   45.2781  134.3234 F   0  0  0  0  0  0  0  0  0  0  0  0
  1  2  1  0  0  0
  2  3  2  0  0  0
  3  4  1  0  0  0
  4  5  2  0  0  0
  5  6  1  0  0  0
  6  7  1  0  0  0
  7  8  1  0  0  0
  8  9  1  0  0  0
  9 10  1  0  0  0
 10 11  2  0  0  0
  7 13  1  0  0  0
 13 14  2  0  0  0
 14 15  1  0  0  0
 15 16  2  0  0  0
 16 17  1  0  0  0
 17 18  2  0  0  0
  6 19  1  0  0  0
 19 20  2  0  0  0
 20 21  1  0  0  0
 21 22  2  0  0  0
 22 25  1  0  0  0
 25 27  1  0  0  0
 27 28  1  0  0  0
 28 29  1  0  0  0
 29 30  1  0  0  0
 30 31  1  0  0  0
 31 32  1  0  0  0
 32 34  1  0  0  0
 34 35  1  0  0  0
 32 33  1  0  0  0
 22 23  1  0  0  0
 23 24  2  0  0  0
 11  2  1  0  0  0
 18 13  1  0  0  0
 24 19  1  0  0  0
 10  5  1  0  0  0
 33 29  1  0  0  0
  1 12  1  0  0  0
 25 26  1  0  0  0
M  END
> <minimizedAffinity>
2.40321

> <CNNscore>
0.3736345172

> <CNNaffinity>
7.9412927628

> <CNN_VS>
2.9671411514

> <CNNaffinity_variance>
0.7475399375

$$$$
[H]Oc1c([H])c([H])c2c(c1[H])C([H])([H])C([H])([H])[C@@]([H])(c1c([H])c([H])c([H])c([H])c1[H])[C@@]2([H])c1c([H])c([H])c(N([H])C([H])([H])C([H])([H])N2C([H])([H])C([H])([H])[C@@]([H])(C([H])([H])F)C2([H])[H])c([H])c1[H]


 35 39  0  0  0  0  0  0  0  0999 V2000
   14.9775   43.8150  128.3304 O   0  0  0  0  0  0  0  0  0  0  0  0
   13.8640   44.2210  129.0698 C   0  0  0  0  0  0  0  0  0  0  0  0
   12.6295   44.3261  128.4819 C   0  0  0  0  0  0  0  0  0  0  0  0
   11.5597   44.7282  129.2425 C   0  0  0  0  0  0  0  0  0  0  0  0
   11.6975   45.0326  130.5987 C   0  0  0  0  0  0  0  0  0  0  0  0
   10.4918   45.4591  131.3704 C   0  0  0  0  0  0  0  0  0  0  0  0
   10.6363   45.0210  132.7966 C   0  0  0  0  0  0  0  0  0  0  0  0
   11.9304   45.3328  133.4531 C   0  0  0  0  0  0  0  0  0  0  0  0
   13.1420   45.2330  132.5986 C   0  0  0  0  0  0  0  0  0  0  0  0
   12.9104   44.9313  131.1841 C   0  0  0  0  0  0  0  0  0  0  0  0
   13.9959   44.5207  130.4017 C   0  0  0  0  0  0  0  0  0  0  0  0
   15.2288   42.8321  128.2555 H   0  0  0  0  0  0  0  0  0  0  0  0
    9.4718   45.2909  133.6370 C   0  0  0  0  0  0  0  0  0  0  0  0
    9.5966   46.1961  134.7082 C   0  0  0  0  0  0  0  0  0  0  0  0
    8.5288   46.4964  135.5206 C   0  0  0  0  0  0  0  0  0  0  0  0
    7.2994   45.9148  135.3057 C   0  0  0  0  0  0  0  0  0  0  0  0
    7.1719   45.0327  134.2641 C   0  0  0  0  0  0  0  0  0  0  0  0
    8.2497   44.7170  133.4287 C   0  0  0  0  0  0  0  0  0  0  0  0
   10.0472   46.8093  131.1088 C   0  0  0  0  0  0  0  0  0  0  0  0
    9.9421   47.7121  132.1684 C   0  0  0  0  0  0  0  0  0  0  0  0
    9.5084   49.0016  131.9490 C   0  0  0  0  0  0  0  0  0  0  0  0
    9.1707   49.4271  130.6859 C   0  0  0  0  0  0  0  0  0  0  0  0
    9.2688   48.5570  129.6468 C   0  0  0  0  0  0  0  0  0  0  0  0
    9.7078   47.2468  129.8620 C   0  0  0  0  0  0  0  0  0  0  0  0
    8.7294   50.7597  130.5132 N   0  0  0  0  0  0  0  0  0  0  0  0
    9.2358   51.5563  131.0010 H   0  0  0  0  0  0  0  0  0  0  0  0
    7.5922   51.1053  129.6866 C   0  0  0  0  0  0  0  0  0  0  0  0
    6.3792   50.4058  130.1849 C   0  0  0  0  0  0  0  0  0  0  0  0
    5.7914   49.4969  129.2520 N   0  0  0  0  0  0  0  0  0  0  0  0
    6.6768   48.9522  128.2744 C   0  0  0  0  0  0  0  0  0  0  0  0
    5.9066   47.6934  127.8505 C   0  0  0  0  0  0  0  0  0  0  0  0
    5.5635   47.1227  129.2183 C   0  0  0  0  0  0  0  0  0  0  0  0
    5.2317   48.3666  129.9915 C   0  0  0  0  0  0  0  0  0  0  0  0
    6.7351   46.3774  129.8135 C   0  0  0  0  0  0  0  0  0  0  0  0
    6.4902   46.1091  131.1419 F   0  0  0  0  0  0  0  0  0  0  0  0
  1  2  1  0  0  0
  2  3  2  0  0  0
  3  4  1  0  0  0
  4  5  2  0  0  0
  5  6  1  0  0  0
  6  7  1  0  0  0
  7  8  1  0  0  0
  8  9  1  0  0  0
  9 10  1  0  0  0
 10 11  2  0  0  0
  7 13  1  0  0  0
 13 14  2  0  0  0
 14 15  1  0  0  0
 15 16  2  0  0  0
 16 17  1  0  0  0
 17 18  2  0  0  0
  6 19  1  0  0  0
 19 20  2  0  0  0
 20 21  1  0  0  0
 21 22  2  0  0  0
 22 25  1  0  0  0
 25 27  1  0  0  0
 27 28  1  0  0  0
 28 29  1  0  0  0
 29 30  1  0  0  0
 30 31  1  0  0  0
 31 32  1  0  0  0
 32 34  1  0  0  0
 34 35  1  0  0  0
 32 33  1  0  0  0
 22 23  1  0  0  0
 23 24  2  0  0  0
 11  2  1  0  0  0
 18 13  1  0  0  0
 24 19  1  0  0  0
 10  5  1  0  0  0
 33 29  1  0  0  0
  1 12  1  0  0  0
 25 26  1  0  0  0
M  END
> <minimizedAffinity>
1.95890

> <CNNscore>
0.3630778491

> <CNNaffinity>
7.8424530029

> <CNN_VS>
2.8474209309

> <CNNaffinity_variance>
0.6790186167

$$$$
[H]Oc1c([H])c([H])c2c(c1[H])C([H])([H])C([H])([H])[C@@]([H])(c1c([H])c([H])c([H])c([H])c1[H])[C@@]2([H])c1c([H])c([H])c(N([H])C([H])([H])C([H])([H])N2C([H])([H])C([H])([H])[C@@]([H])(C([H])([H])F)C2([H])[H])c([H])c1[H]


 35 39  0  0  0  0  0  0  0  0999 V2000
    9.6328   47.0013  137.0071 O   0  0  0  0  0  0  0  0  0  0  0  0
    9.7202   46.7147  135.6427 C   0  0  0  0  0  0  0  0  0  0  0  0
   10.0051   47.7012  134.7335 C   0  0  0  0  0  0  0  0  0  0  0  0
   10.0827   47.3794  133.4013 C   0  0  0  0  0  0  0  0  0  0  0  0
    9.8787   46.0735  132.9494 C   0  0  0  0  0  0  0  0  0  0  0  0
    9.9828   45.7898  131.4866 C   0  0  0  0  0  0  0  0  0  0  0  0
   10.4736   44.3875  131.2879 C   0  0  0  0  0  0  0  0  0  0  0  0
    9.7863   43.3321  132.0732 C   0  0  0  0  0  0  0  0  0  0  0  0
    9.3684   43.7038  133.4499 C   0  0  0  0  0  0  0  0  0  0  0  0
    9.5977   45.0972  133.8392 C   0  0  0  0  0  0  0  0  0  0  0  0
    9.5204   45.4335  135.1956 C   0  0  0  0  0  0  0  0  0  0  0  0
   10.4507   46.9455  137.6094 H   0  0  0  0  0  0  0  0  0  0  0  0
   10.7153   44.0190  129.8948 C   0  0  0  0  0  0  0  0  0  0  0  0
   11.8961   44.4583  129.2661 C   0  0  0  0  0  0  0  0  0  0  0  0
   12.1790   44.1278  127.9618 C   0  0  0  0  0  0  0  0  0  0  0  0
   11.3075   43.3521  127.2306 C   0  0  0  0  0  0  0  0  0  0  0  0
   10.1563   42.9214  127.8375 C   0  0  0  0  0  0  0  0  0  0  0  0
    9.8545   43.2496  129.1643 C   0  0  0  0  0  0  0  0  0  0  0  0
    8.8601   46.2424  130.6968 C   0  0  0  0  0  0  0  0  0  0  0  0
    7.5630   45.9428  131.1171 C   0  0  0  0  0  0  0  0  0  0  0  0
    6.4752   46.3510  130.3762 C   0  0  0  0  0  0  0  0  0  0  0  0
    6.6417   47.0603  129.2101 C   0  0  0  0  0  0  0  0  0  0  0  0
    7.8997   47.3573  128.7909 C   0  0  0  0  0  0  0  0  0  0  0  0
    9.0083   46.9462  129.5375 C   0  0  0  0  0  0  0  0  0  0  0  0
    5.4934   47.4547  128.4848 N   0  0  0  0  0  0  0  0  0  0  0  0
    4.9476   46.7389  127.9204 H   0  0  0  0  0  0  0  0  0  0  0  0
    5.0104   48.8194  128.4680 C   0  0  0  0  0  0  0  0  0  0  0  0
    4.7088   49.2616  129.8546 C   0  0  0  0  0  0  0  0  0  0  0  0
    5.7350   50.0465  130.4649 N   0  0  0  0  0  0  0  0  0  0  0  0
    7.0724   49.6027  130.2396 C   0  0  0  0  0  0  0  0  0  0  0  0
    7.8601   50.8895  130.5244 C   0  0  0  0  0  0  0  0  0  0  0  0
    7.0544   51.8791  129.6961 C   0  0  0  0  0  0  0  0  0  0  0  0
    5.6497   51.4108  129.9458 C   0  0  0  0  0  0  0  0  0  0  0  0
    7.4280   51.8057  128.2341 C   0  0  0  0  0  0  0  0  0  0  0  0
    6.8507   52.8540  127.5526 F   0  0  0  0  0  0  0  0  0  0  0  0
  1  2  1  0  0  0
  2  3  2  0  0  0
  3  4  1  0  0  0
  4  5  2  0  0  0
  5  6  1  0  0  0
  6  7  1  0  0  0
  7  8  1  0  0  0
  8  9  1  0  0  0
  9 10  1  0  0  0
 10 11  2  0  0  0
  7 13  1  0  0  0
 13 14  2  0  0  0
 14 15  1  0  0  0
 15 16  2  0  0  0
 16 17  1  0  0  0
 17 18  2  0  0  0
  6 19  1  0  0  0
 19 20  2  0  0  0
 20 21  1  0  0  0
 21 22  2  0  0  0
 22 25  1  0  0  0
 25 27  1  0  0  0
 27 28  1  0  0  0
 28 29  1  0  0  0
 29 30  1  0  0  0
 30 31  1  0  0  0
 31 32  1  0  0  0
 32 34  1  0  0  0
 34 35  1  0  0  0
 32 33  1  0  0  0
 22 23  1  0  0  0
 23 24  2  0  0  0
 11  2  1  0  0  0
 18 13  1  0  0  0
 24 19  1  0  0  0
 10  5  1  0  0  0
 33 29  1  0  0  0
  1 12  1  0  0  0
 25 26  1  0  0  0
M  END
> <minimizedAffinity>
3.25242

> <CNNscore>
0.3494264185

> <CNNaffinity>
7.9424448013

> <CNN_VS>
2.7753000259

> <CNNaffinity_variance>
0.8891868591

$$$$
[H]Oc1c([H])c([H])c2c(c1[H])C([H])([H])C([H])([H])[C@@]([H])(c1c([H])c([H])c([H])c([H])c1[H])[C@@]2([H])c1c([H])c([H])c(N([H])C([H])([H])C([H])([H])N2C([H])([H])C([H])([H])[C@@]([H])(C([H])([H])F)C2([H])[H])c([H])c1[H]


 35 39  0  0  0  0  0  0  0  0999 V2000
   10.4098   51.9996  134.1782 O   0  0  0  0  0  0  0  0  0  0  0  0
   10.3970   50.7343  133.5863 C   0  0  0  0  0  0  0  0  0  0  0  0
   10.5389   50.5907  132.2299 C   0  0  0  0  0  0  0  0  0  0  0  0
   10.5213   49.3302  131.6863 C   0  0  0  0  0  0  0  0  0  0  0  0
   10.3625   48.1918  132.4798 C   0  0  0  0  0  0  0  0  0  0  0  0
   10.3575   46.8491  131.8256 C   0  0  0  0  0  0  0  0  0  0  0  0
   10.9175   45.8334  132.7752 C   0  0  0  0  0  0  0  0  0  0  0  0
   10.3692   45.8492  134.1543 C   0  0  0  0  0  0  0  0  0  0  0  0
   10.0491   47.1857  134.7195 C   0  0  0  0  0  0  0  0  0  0  0  0
   10.2221   48.3259  133.8164 C   0  0  0  0  0  0  0  0  0  0  0  0
   10.2411   49.6143  134.3627 C   0  0  0  0  0  0  0  0  0  0  0  0
   11.2787   52.4221  134.4968 H   0  0  0  0  0  0  0  0  0  0  0  0
   11.0608   44.4912  132.2158 C   0  0  0  0  0  0  0  0  0  0  0  0
   10.3766   43.4208  132.8228 C   0  0  0  0  0  0  0  0  0  0  0  0
   10.4654   42.1410  132.3281 C   0  0  0  0  0  0  0  0  0  0  0  0
   11.2322   41.8709  131.2168 C   0  0  0  0  0  0  0  0  0  0  0  0
   11.9006   42.9093  130.6215 C   0  0  0  0  0  0  0  0  0  0  0  0
   11.8199   44.2171  131.1135 C   0  0  0  0  0  0  0  0  0  0  0  0
    9.1443   46.5242  131.1103 C   0  0  0  0  0  0  0  0  0  0  0  0
    7.9437   46.4151  131.8143 C   0  0  0  0  0  0  0  0  0  0  0  0
    6.7747   46.0938  131.1591 C   0  0  0  0  0  0  0  0  0  0  0  0
    6.7640   45.8744  129.8017 C   0  0  0  0  0  0  0  0  0  0  0  0
    7.9267   45.9776  129.1062 C   0  0  0  0  0  0  0  0  0  0  0  0
    9.1169   46.3029  129.7644 C   0  0  0  0  0  0  0  0  0  0  0  0
    5.5388   45.5457  129.1762 N   0  0  0  0  0  0  0  0  0  0  0  0
    5.3576   44.5513  128.8487 H   0  0  0  0  0  0  0  0  0  0  0  0
    4.4911   46.5189  128.9500 C   0  0  0  0  0  0  0  0  0  0  0  0
    5.0534   47.7101  128.2617 C   0  0  0  0  0  0  0  0  0  0  0  0
    6.3459   48.1084  128.7227 N   0  0  0  0  0  0  0  0  0  0  0  0
    6.9689   49.1620  127.9890 C   0  0  0  0  0  0  0  0  0  0  0  0
    7.9841   49.6763  129.0197 C   0  0  0  0  0  0  0  0  0  0  0  0
    7.0823   49.7962  130.2390 C   0  0  0  0  0  0  0  0  0  0  0  0
    6.2263   48.5697  130.1050 C   0  0  0  0  0  0  0  0  0  0  0  0
    6.2669   51.0674  130.1978 C   0  0  0  0  0  0  0  0  0  0  0  0
    4.9245   50.7601  130.2014 F   0  0  0  0  0  0  0  0  0  0  0  0
  1  2  1  0  0  0
  2  3  2  0  0  0
  3  4  1  0  0  0
  4  5  2  0  0  0
  5  6  1  0  0  0
  6  7  1  0  0  0
  7  8  1  0  0  0
  8  9  1  0  0  0
  9 10  1  0  0  0
 10 11  2  0  0  0
  7 13  1  0  0  0
 13 14  2  0  0  0
 14 15  1  0  0  0
 15 16  2  0  0  0
 16 17  1  0  0  0
 17 18  2  0  0  0
  6 19  1  0  0  0
 19 20  2  0  0  0
 20 21  1  0  0  0
 21 22  2  0  0  0
 22 25  1  0  0  0
 25 27  1  0  0  0
 27 28  1  0  0  0
 28 29  1  0  0  0
 29 30  1  0  0  0
 30 31  1  0  0  0
 31 32  1  0  0  0
 32 34  1  0  0  0
 34 35  1  0  0  0
 32 33  1  0  0  0
 22 23  1  0  0  0
 23 24  2  0  0  0
 11  2  1  0  0  0
 18 13  1  0  0  0
 24 19  1  0  0  0
 10  5  1  0  0  0
 33 29  1  0  0  0
  1 12  1  0  0  0
 25 26  1  0  0  0
M  END
> <minimizedAffinity>
12.55855

> <CNNscore>
0.3485925794

> <CNNaffinity>
7.7873368263

> <CNN_VS>
2.7146077156

> <CNNaffinity_variance>
0.8151022196

$$$$
[H]Oc1c([H])c([H])c(Oc2c(-c3c([H])c([H])c(F)c([H])c3[H])sc3c([H])c(O[H])c([H])c([H])c23)c([H])c1[H]


 27 30  0  0  0  0  0  0  0  0999 V2000
    8.4326   47.0121  131.0062 C   0  0  0  0  0  0  0  0  0  0  0  0
    9.2740   47.2274  132.0521 C   0  0  0  0  0  0  0  0  0  0  0  0
    9.4229   48.9643  132.0643 S   0  0  0  0  0  0  0  0  0  0  0  0
    8.4139   49.3292  130.7520 C   0  0  0  0  0  0  0  0  0  0  0  0
    8.0343   50.5332  130.1523 C   0  0  0  0  0  0  0  0  0  0  0  0
    7.1785   50.5392  129.0699 C   0  0  0  0  0  0  0  0  0  0  0  0
    6.7661   51.6848  128.4345 O   0  0  0  0  0  0  0  0  0  0  0  0
    6.7434   49.2972  128.6439 C   0  0  0  0  0  0  0  0  0  0  0  0
    7.1091   48.1184  129.2234 C   0  0  0  0  0  0  0  0  0  0  0  0
    7.9862   48.1121  130.3327 C   0  0  0  0  0  0  0  0  0  0  0  0
    7.0707   52.5961  128.7288 H   0  0  0  0  0  0  0  0  0  0  0  0
    9.9666   46.3695  133.0017 C   0  0  0  0  0  0  0  0  0  0  0  0
    9.2738   45.9097  134.1337 C   0  0  0  0  0  0  0  0  0  0  0  0
    9.8518   45.0671  135.0570 C   0  0  0  0  0  0  0  0  0  0  0  0
   11.1571   44.6496  134.8801 C   0  0  0  0  0  0  0  0  0  0  0  0
   11.7607   43.8254  135.7609 F   0  0  0  0  0  0  0  0  0  0  0  0
   11.8587   45.0812  133.7847 C   0  0  0  0  0  0  0  0  0  0  0  0
   11.2364   45.9402  132.8626 C   0  0  0  0  0  0  0  0  0  0  0  0
    8.0708   45.6708  130.6667 O   0  0  0  0  0  0  0  0  0  0  0  0
   11.3145   41.3723  131.8841 O   0  0  0  0  0  0  0  0  0  0  0  0
   10.5049   42.4678  131.5608 C   0  0  0  0  0  0  0  0  0  0  0  0
   10.8887   43.3164  130.5364 C   0  0  0  0  0  0  0  0  0  0  0  0
   10.0796   44.3879  130.2333 C   0  0  0  0  0  0  0  0  0  0  0  0
    8.9193   44.6148  130.9262 C   0  0  0  0  0  0  0  0  0  0  0  0
    8.5733   43.7490  131.9364 C   0  0  0  0  0  0  0  0  0  0  0  0
    9.3461   42.6584  132.2837 C   0  0  0  0  0  0  0  0  0  0  0  0
   12.0466   41.4684  132.5744 H   0  0  0  0  0  0  0  0  0  0  0  0
 20 21  1  0  0  0
 21 22  2  0  0  0
 22 23  1  0  0  0
 23 24  2  0  0  0
 24 19  1  0  0  0
 19  1  1  0  0  0
  1  2  2  0  0  0
  2  3  1  0  0  0
  3  4  1  0  0  0
  4  5  2  0  0  0
  5  6  1  0  0  0
  6  7  1  0  0  0
  6  8  2  0  0  0
  8  9  1  0  0  0
  9 10  2  0  0  0
  2 12  1  0  0  0
 12 13  2  0  0  0
 13 14  1  0  0  0
 14 15  2  0  0  0
 15 16  1  0  0  0
 15 17  1  0  0  0
 17 18  2  0  0  0
 24 25  1  0  0  0
 25 26  2  0  0  0
 26 21  1  0  0  0
 10  1  1  0  0  0
 18 12  1  0  0  0
 10  4  1  0  0  0
 20 27  1  0  0  0
  7 11  1  0  0  0
M  END
> <minimizedAffinity>
-8.70922

> <CNNscore>
0.6823483706

> <CNNaffinity>
8.0267477036

> <CNN_VS>
5.4770383835

> <CNNaffinity_variance>
0.7289063334

$$$$
[H]Oc1c([H])c([H])c(Oc2c(-c3c([H])c([H])c(F)c([H])c3[H])sc3c([H])c(O[H])c([H])c([H])c23)c([H])c1[H]


 27 30  0  0  0  0  0  0  0  0999 V2000
    9.5411   47.3332  131.1423 C   0  0  0  0  0  0  0  0  0  0  0  0
    9.2221   46.0910  130.6917 C   0  0  0  0  0  0  0  0  0  0  0  0
    7.9582   46.4222  129.5376 S   0  0  0  0  0  0  0  0  0  0  0  0
    7.8998   48.1102  129.6807 C   0  0  0  0  0  0  0  0  0  0  0  0
    7.1206   49.0895  129.0585 C   0  0  0  0  0  0  0  0  0  0  0  0
    7.2867   50.4228  129.3720 C   0  0  0  0  0  0  0  0  0  0  0  0
    6.5554   51.4344  128.7989 O   0  0  0  0  0  0  0  0  0  0  0  0
    8.2552   50.6987  130.3203 C   0  0  0  0  0  0  0  0  0  0  0  0
    9.0193   49.7492  130.9318 C   0  0  0  0  0  0  0  0  0  0  0  0
    8.8491   48.3826  130.6106 C   0  0  0  0  0  0  0  0  0  0  0  0
    5.8478   51.2546  128.1084 H   0  0  0  0  0  0  0  0  0  0  0  0
    9.6892   44.7445  130.9854 C   0  0  0  0  0  0  0  0  0  0  0  0
   10.9060   44.3114  130.4335 C   0  0  0  0  0  0  0  0  0  0  0  0
   11.4290   43.0644  130.6948 C   0  0  0  0  0  0  0  0  0  0  0  0
   10.7469   42.1963  131.5259 C   0  0  0  0  0  0  0  0  0  0  0  0
   11.2238   40.9663  131.8069 F   0  0  0  0  0  0  0  0  0  0  0  0
    9.5570   42.5910  132.0798 C   0  0  0  0  0  0  0  0  0  0  0  0
    9.0538   43.8712  131.7914 C   0  0  0  0  0  0  0  0  0  0  0  0
   10.5598   47.4744  132.1361 O   0  0  0  0  0  0  0  0  0  0  0  0
   11.4984   43.4136  135.7568 O   0  0  0  0  0  0  0  0  0  0  0  0
   11.2783   44.4398  134.8301 C   0  0  0  0  0  0  0  0  0  0  0  0
   12.2449   44.7121  133.8770 C   0  0  0  0  0  0  0  0  0  0  0  0
   12.0104   45.7246  132.9745 C   0  0  0  0  0  0  0  0  0  0  0  0
   10.8484   46.4501  133.0136 C   0  0  0  0  0  0  0  0  0  0  0  0
    9.9136   46.1487  133.9754 C   0  0  0  0  0  0  0  0  0  0  0  0
   10.0953   45.1444  134.9057 C   0  0  0  0  0  0  0  0  0  0  0  0
   11.9535   43.6135  136.6369 H   0  0  0  0  0  0  0  0  0  0  0  0
 20 21  1  0  0  0
 21 22  2  0  0  0
 22 23  1  0  0  0
 23 24  2  0  0  0
 24 19  1  0  0  0
 19  1  1  0  0  0
  1  2  2  0  0  0
  2  3  1  0  0  0
  3  4  1  0  0  0
  4  5  2  0  0  0
  5  6  1  0  0  0
  6  7  1  0  0  0
  6  8  2  0  0  0
  8  9  1  0  0  0
  9 10  2  0  0  0
  2 12  1  0  0  0
 12 13  2  0  0  0
 13 14  1  0  0  0
 14 15  2  0  0  0
 15 16  1  0  0  0
 15 17  1  0  0  0
 17 18  2  0  0  0
 24 25  1  0  0  0
 25 26  2  0  0  0
 26 21  1  0  0  0
 10  1  1  0  0  0
 18 12  1  0  0  0
 10  4  1  0  0  0
 20 27  1  0  0  0
  7 11  1  0  0  0
M  END
> <minimizedAffinity>
-8.42650

> <CNNscore>
0.6583360434

> <CNNaffinity>
7.9077048302

> <CNN_VS>
5.2059268951

> <CNNaffinity_variance>
0.4952872396

$$$$
[H]Oc1c([H])c([H])c(Oc2c(-c3c([H])c([H])c(F)c([H])c3[H])sc3c([H])c(O[H])c([H])c([H])c23)c([H])c1[H]


 27 30  0  0  0  0  0  0  0  0999 V2000
    8.4656   47.0149  131.1781 C   0  0  0  0  0  0  0  0  0  0  0  0
    9.5871   47.1292  131.9379 C   0  0  0  0  0  0  0  0  0  0  0  0
    9.9355   48.8346  131.8407 S   0  0  0  0  0  0  0  0  0  0  0  0
    8.6470   49.3156  130.8499 C   0  0  0  0  0  0  0  0  0  0  0  0
    8.2570   50.5546  130.3342 C   0  0  0  0  0  0  0  0  0  0  0  0
    7.1374   50.6615  129.5349 C   0  0  0  0  0  0  0  0  0  0  0  0
    6.6993   51.8466  128.9964 O   0  0  0  0  0  0  0  0  0  0  0  0
    6.4576   49.4808  129.2959 C   0  0  0  0  0  0  0  0  0  0  0  0
    6.8315   48.2683  129.7952 C   0  0  0  0  0  0  0  0  0  0  0  0
    7.9791   48.1586  130.6143 C   0  0  0  0  0  0  0  0  0  0  0  0
    7.1790   52.7146  129.1583 H   0  0  0  0  0  0  0  0  0  0  0  0
   10.4143   46.1964  132.6883 C   0  0  0  0  0  0  0  0  0  0  0  0
   11.5636   45.6654  132.0800 C   0  0  0  0  0  0  0  0  0  0  0  0
   12.4133   44.8052  132.7393 C   0  0  0  0  0  0  0  0  0  0  0  0
   12.1415   44.4409  134.0443 C   0  0  0  0  0  0  0  0  0  0  0  0
   12.9473   43.6007  134.7255 F   0  0  0  0  0  0  0  0  0  0  0  0
   11.0274   44.9433  134.6647 C   0  0  0  0  0  0  0  0  0  0  0  0
   10.1831   45.8193  133.9612 C   0  0  0  0  0  0  0  0  0  0  0  0
    7.8684   45.7269  131.0054 O   0  0  0  0  0  0  0  0  0  0  0  0
   10.2858   42.0705  127.6487 O   0  0  0  0  0  0  0  0  0  0  0  0
    9.6674   42.9827  128.5123 C   0  0  0  0  0  0  0  0  0  0  0  0
    9.0558   42.5187  129.6645 C   0  0  0  0  0  0  0  0  0  0  0  0
    8.4532   43.4308  130.5010 C   0  0  0  0  0  0  0  0  0  0  0  0
    8.4555   44.7689  130.2055 C   0  0  0  0  0  0  0  0  0  0  0  0
    9.0736   45.1894  129.0518 C   0  0  0  0  0  0  0  0  0  0  0  0
    9.6934   44.3198  128.1762 C   0  0  0  0  0  0  0  0  0  0  0  0
    9.7590   41.6446  126.8985 H   0  0  0  0  0  0  0  0  0  0  0  0
 20 21  1  0  0  0
 21 22  2  0  0  0
 22 23  1  0  0  0
 23 24  2  0  0  0
 24 19  1  0  0  0
 19  1  1  0  0  0
  1  2  2  0  0  0
  2  3  1  0  0  0
  3  4  1  0  0  0
  4  5  2  0  0  0
  5  6  1  0  0  0
  6  7  1  0  0  0
  6  8  2  0  0  0
  8  9  1  0  0  0
  9 10  2  0  0  0
  2 12  1  0  0  0
 12 13  2  0  0  0
 13 14  1  0  0  0
 14 15  2  0  0  0
 15 16  1  0  0  0
 15 17  1  0  0  0
 17 18  2  0  0  0
 24 25  1  0  0  0
 25 26  2  0  0  0
 26 21  1  0  0  0
 10  1  1  0  0  0
 18 12  1  0  0  0
 10  4  1  0  0  0
 20 27  1  0  0  0
  7 11  1  0  0  0
M  END
> <minimizedAffinity>
-7.66947

> <CNNscore>
0.6389893889

> <CNNaffinity>
7.9336805344

> <CNN_VS>
5.0695376396

> <CNNaffinity_variance>
0.9571020007

$$$$
[H]Oc1c([H])c([H])c(Oc2c(-c3c([H])c([H])c(F)c([H])c3[H])sc3c([H])c(O[H])c([H])c([H])c23)c([H])c1[H]


 27 30  0  0  0  0  0  0  0  0999 V2000
    9.0580   47.1247  131.2780 C   0  0  0  0  0  0  0  0  0  0  0  0
    8.9329   45.8573  130.8025 C   0  0  0  0  0  0  0  0  0  0  0  0
    7.6497   46.0187  129.6336 S   0  0  0  0  0  0  0  0  0  0  0  0
    7.3397   47.6766  129.8027 C   0  0  0  0  0  0  0  0  0  0  0  0
    6.4324   48.5409  129.1837 C   0  0  0  0  0  0  0  0  0  0  0  0
    6.3947   49.8782  129.5210 C   0  0  0  0  0  0  0  0  0  0  0  0
    5.5294   50.7806  128.9524 O   0  0  0  0  0  0  0  0  0  0  0  0
    7.2986   50.2771  130.4891 C   0  0  0  0  0  0  0  0  0  0  0  0
    8.1867   49.4403  131.0977 C   0  0  0  0  0  0  0  0  0  0  0  0
    8.2254   48.0696  130.7520 C   0  0  0  0  0  0  0  0  0  0  0  0
    4.8657   50.5106  128.2479 H   0  0  0  0  0  0  0  0  0  0  0  0
    9.5905   44.5898  131.0823 C   0  0  0  0  0  0  0  0  0  0  0  0
    8.9926   43.6990  131.9888 C   0  0  0  0  0  0  0  0  0  0  0  0
    9.5375   42.4674  132.2767 C   0  0  0  0  0  0  0  0  0  0  0  0
   10.7123   42.0779  131.6621 C   0  0  0  0  0  0  0  0  0  0  0  0
   11.2794   40.8808  131.9164 F   0  0  0  0  0  0  0  0  0  0  0  0
   11.3189   42.9257  130.7723 C   0  0  0  0  0  0  0  0  0  0  0  0
   10.7339   44.1747  130.5023 C   0  0  0  0  0  0  0  0  0  0  0  0
   10.0310   47.3971  132.2902 O   0  0  0  0  0  0  0  0  0  0  0  0
   11.7209   43.3993  135.7025 O   0  0  0  0  0  0  0  0  0  0  0  0
   11.3100   44.4121  134.8274 C   0  0  0  0  0  0  0  0  0  0  0  0
   12.1673   44.8312  133.8242 C   0  0  0  0  0  0  0  0  0  0  0  0
   11.7454   45.8279  132.9738 C   0  0  0  0  0  0  0  0  0  0  0  0
   10.5062   46.3963  133.1119 C   0  0  0  0  0  0  0  0  0  0  0  0
    9.6846   45.9522  134.1206 C   0  0  0  0  0  0  0  0  0  0  0  0
   10.0550   44.9561  135.0025 C   0  0  0  0  0  0  0  0  0  0  0  0
   12.2055   43.6335  136.5580 H   0  0  0  0  0  0  0  0  0  0  0  0
 20 21  1  0  0  0
 21 22  2  0  0  0
 22 23  1  0  0  0
 23 24  2  0  0  0
 24 19  1  0  0  0
 19  1  1  0  0  0
  1  2  2  0  0  0
  2  3  1  0  0  0
  3  4  1  0  0  0
  4  5  2  0  0  0
  5  6  1  0  0  0
  6  7  1  0  0  0
  6  8  2  0  0  0
  8  9  1  0  0  0
  9 10  2  0  0  0
  2 12  1  0  0  0
 12 13  2  0  0  0
 13 14  1  0  0  0
 14 15  2  0  0  0
 15 16  1  0  0  0
 15 17  1  0  0  0
 17 18  2  0  0  0
 24 25  1  0  0  0
 25 26  2  0  0  0
 26 21  1  0  0  0
 10  1  1  0  0  0
 18 12  1  0  0  0
 10  4  1  0  0  0
 20 27  1  0  0  0
  7 11  1  0  0  0
M  END
> <minimizedAffinity>
-7.41679

> <CNNscore>
0.6076291203

> <CNNaffinity>
7.8024511337

> <CNN_VS>
4.7409963608

> <CNNaffinity_variance>
0.3534671664

$$$$
[H]Oc1c([H])c([H])c(Oc2c(-c3c([H])c([H])c(F)c([H])c3[H])sc3c([H])c(O[H])c([H])c([H])c23)c([H])c1[H]


 27 30  0  0  0  0  0  0  0  0999 V2000
    9.5817   47.1133  131.2809 C   0  0  0  0  0  0  0  0  0  0  0  0
   10.1923   46.1090  131.9641 C   0  0  0  0  0  0  0  0  0  0  0  0
   10.8061   46.9313  133.3734 S   0  0  0  0  0  0  0  0  0  0  0  0
   10.2582   48.4981  133.0297 C   0  0  0  0  0  0  0  0  0  0  0  0
   10.3690   49.7135  133.7109 C   0  0  0  0  0  0  0  0  0  0  0  0
    9.8139   50.8639  133.1891 C   0  0  0  0  0  0  0  0  0  0  0  0
    9.8860   52.0890  133.8057 O   0  0  0  0  0  0  0  0  0  0  0  0
    9.1617   50.7178  131.9780 C   0  0  0  0  0  0  0  0  0  0  0  0
    9.0493   49.5359  131.3074 C   0  0  0  0  0  0  0  0  0  0  0  0
    9.6181   48.3568  131.8420 C   0  0  0  0  0  0  0  0  0  0  0  0
   10.3551   52.2155  134.6853 H   0  0  0  0  0  0  0  0  0  0  0  0
   10.3906   44.6863  131.7319 C   0  0  0  0  0  0  0  0  0  0  0  0
   11.3432   43.9980  132.5010 C   0  0  0  0  0  0  0  0  0  0  0  0
   11.5614   42.6453  132.3625 C   0  0  0  0  0  0  0  0  0  0  0  0
   10.8272   41.9243  131.4401 C   0  0  0  0  0  0  0  0  0  0  0  0
   11.0101   40.5985  131.2726 F   0  0  0  0  0  0  0  0  0  0  0  0
    9.8898   42.5684  130.6752 C   0  0  0  0  0  0  0  0  0  0  0  0
    9.6937   43.9498  130.8442 C   0  0  0  0  0  0  0  0  0  0  0  0
    8.9512   46.8234  130.0303 O   0  0  0  0  0  0  0  0  0  0  0  0
    4.2678   49.3110  128.4948 O   0  0  0  0  0  0  0  0  0  0  0  0
    5.4659   48.6967  128.8789 C   0  0  0  0  0  0  0  0  0  0  0  0
    6.6565   49.3915  128.7499 C   0  0  0  0  0  0  0  0  0  0  0  0
    7.8238   48.7707  129.1328 C   0  0  0  0  0  0  0  0  0  0  0  0
    7.8141   47.4943  129.6313 C   0  0  0  0  0  0  0  0  0  0  0  0
    6.6112   46.8384  129.7438 C   0  0  0  0  0  0  0  0  0  0  0  0
    5.4100   47.4114  129.3754 C   0  0  0  0  0  0  0  0  0  0  0  0
    3.9305   49.2170  127.5466 H   0  0  0  0  0  0  0  0  0  0  0  0
 20 21  1  0  0  0
 21 22  2  0  0  0
 22 23  1  0  0  0
 23 24  2  0  0  0
 24 19  1  0  0  0
 19  1  1  0  0  0
  1  2  2  0  0  0
  2  3  1  0  0  0
  3  4  1  0  0  0
  4  5  2  0  0  0
  5  6  1  0  0  0
  6  7  1  0  0  0
  6  8  2  0  0  0
  8  9  1  0  0  0
  9 10  2  0  0  0
  2 12  1  0  0  0
 12 13  2  0  0  0
 13 14  1  0  0  0
 14 15  2  0  0  0
 15 16  1  0  0  0
 15 17  1  0  0  0
 17 18  2  0  0  0
 24 25  1  0  0  0
 25 26  2  0  0  0
 26 21  1  0  0  0
 10  1  1  0  0  0
 18 12  1  0  0  0
 10  4  1  0  0  0
 20 27  1  0  0  0
  7 11  1  0  0  0
M  END
> <minimizedAffinity>
-0.98644

> <CNNscore>
0.5083823800

> <CNNaffinity>
7.5165586472

> <CNN_VS>
3.8212859631

> <CNNaffinity_variance>
1.6348053217

$$$$
[H]Oc1c([H])c([H])c(Oc2c(-c3c([H])c([H])c(F)c([H])c3[H])sc3c([H])c(O[H])c([H])c([H])c23)c([H])c1[H]


 27 30  0  0  0  0  0  0  0  0999 V2000
    9.5695   45.8344  131.1837 C   0  0  0  0  0  0  0  0  0  0  0  0
   10.7295   45.9491  131.8831 C   0  0  0  0  0  0  0  0  0  0  0  0
   11.7756   44.8196  131.0652 S   0  0  0  0  0  0  0  0  0  0  0  0
   10.6970   44.2637  129.8816 C   0  0  0  0  0  0  0  0  0  0  0  0
   10.8211   43.3342  128.8453 C   0  0  0  0  0  0  0  0  0  0  0  0
    9.7559   43.0680  128.0096 C   0  0  0  0  0  0  0  0  0  0  0  0
    9.8100   42.1678  126.9737 O   0  0  0  0  0  0  0  0  0  0  0  0
    8.5962   43.7738  128.2747 C   0  0  0  0  0  0  0  0  0  0  0  0
    8.4671   44.6821  129.2835 C   0  0  0  0  0  0  0  0  0  0  0  0
    9.5587   44.9549  130.1401 C   0  0  0  0  0  0  0  0  0  0  0  0
   10.6428   41.6456  126.7651 H   0  0  0  0  0  0  0  0  0  0  0  0
   11.1592   46.7336  133.0309 C   0  0  0  0  0  0  0  0  0  0  0  0
   12.2758   46.3056  133.7675 C   0  0  0  0  0  0  0  0  0  0  0  0
   12.7620   47.0143  134.8437 C   0  0  0  0  0  0  0  0  0  0  0  0
   12.1426   48.1888  135.2262 C   0  0  0  0  0  0  0  0  0  0  0  0
   12.5863   48.9126  136.2744 F   0  0  0  0  0  0  0  0  0  0  0  0
   11.0508   48.6323  134.5262 C   0  0  0  0  0  0  0  0  0  0  0  0
   10.5827   47.8835  133.4329 C   0  0  0  0  0  0  0  0  0  0  0  0
    8.4395   46.6198  131.5733 O   0  0  0  0  0  0  0  0  0  0  0  0
    6.9995   51.1514  128.7677 O   0  0  0  0  0  0  0  0  0  0  0  0
    7.3766   50.0135  129.4910 C   0  0  0  0  0  0  0  0  0  0  0  0
    8.2657   50.1428  130.5444 C   0  0  0  0  0  0  0  0  0  0  0  0
    8.6244   49.0126  131.2435 C   0  0  0  0  0  0  0  0  0  0  0  0
    8.1162   47.7847  130.9092 C   0  0  0  0  0  0  0  0  0  0  0  0
    7.2360   47.6984  129.8568 C   0  0  0  0  0  0  0  0  0  0  0  0
    6.8410   48.7979  129.1205 C   0  0  0  0  0  0  0  0  0  0  0  0
    7.5312   51.4366  127.9567 H   0  0  0  0  0  0  0  0  0  0  0  0
 20 21  1  0  0  0
 21 22  2  0  0  0
 22 23  1  0  0  0
 23 24  2  0  0  0
 24 19  1  0  0  0
 19  1  1  0  0  0
  1  2  2  0  0  0
  2  3  1  0  0  0
  3  4  1  0  0  0
  4  5  2  0  0  0
  5  6  1  0  0  0
  6  7  1  0  0  0
  6  8  2  0  0  0
  8  9  1  0  0  0
  9 10  2  0  0  0
  2 12  1  0  0  0
 12 13  2  0  0  0
 13 14  1  0  0  0
 14 15  2  0  0  0
 15 16  1  0  0  0
 15 17  1  0  0  0
 17 18  2  0  0  0
 24 25  1  0  0  0
 25 26  2  0  0  0
 26 21  1  0  0  0
 10  1  1  0  0  0
 18 12  1  0  0  0
 10  4  1  0  0  0
 20 27  1  0  0  0
  7 11  1  0  0  0
M  END
> <minimizedAffinity>
1.35145

> <CNNscore>
0.4831218123

> <CNNaffinity>
7.7084412575

> <CNN_VS>
3.7241160870

> <CNNaffinity_variance>
2.2979636192

$$$$
[H]Oc1c([H])c([H])c(Oc2c(-c3c([H])c([H])c(F)c([H])c3[H])sc3c([H])c(O[H])c([H])c([H])c23)c([H])c1[H]


 27 30  0  0  0  0  0  0  0  0999 V2000
    9.6344   46.5185  131.7003 C   0  0  0  0  0  0  0  0  0  0  0  0
    9.7387   45.1957  131.4047 C   0  0  0  0  0  0  0  0  0  0  0  0
    9.7491   44.4567  132.9836 S   0  0  0  0  0  0  0  0  0  0  0  0
    9.6181   45.8538  133.9346 C   0  0  0  0  0  0  0  0  0  0  0  0
    9.5622   46.0605  135.3157 C   0  0  0  0  0  0  0  0  0  0  0  0
    9.4526   47.3358  135.8309 C   0  0  0  0  0  0  0  0  0  0  0  0
    9.3930   47.6089  137.1756 O   0  0  0  0  0  0  0  0  0  0  0  0
    9.4043   48.3561  134.8981 C   0  0  0  0  0  0  0  0  0  0  0  0
    9.4582   48.1627  133.5494 C   0  0  0  0  0  0  0  0  0  0  0  0
    9.5706   46.8557  133.0213 C   0  0  0  0  0  0  0  0  0  0  0  0
    9.4265   46.8819  137.8685 H   0  0  0  0  0  0  0  0  0  0  0  0
    9.8388   44.4271  130.1732 C   0  0  0  0  0  0  0  0  0  0  0  0
   10.6917   44.8829  129.1546 C   0  0  0  0  0  0  0  0  0  0  0  0
   10.8649   44.1908  127.9766 C   0  0  0  0  0  0  0  0  0  0  0  0
   10.1842   43.0057  127.7723 C   0  0  0  0  0  0  0  0  0  0  0  0
   10.3250   42.2976  126.6329 F   0  0  0  0  0  0  0  0  0  0  0  0
    9.3450   42.5353  128.7485 C   0  0  0  0  0  0  0  0  0  0  0  0
    9.1933   43.2677  129.9383 C   0  0  0  0  0  0  0  0  0  0  0  0
    9.6049   47.4713  130.6342 O   0  0  0  0  0  0  0  0  0  0  0  0
    4.8476   49.8561  129.1640 O   0  0  0  0  0  0  0  0  0  0  0  0
    6.0607   49.2691  129.5437 C   0  0  0  0  0  0  0  0  0  0  0  0
    7.0360   50.0511  130.1389 C   0  0  0  0  0  0  0  0  0  0  0  0
    8.2218   49.4560  130.5052 C   0  0  0  0  0  0  0  0  0  0  0  0
    8.4380   48.1203  130.2884 C   0  0  0  0  0  0  0  0  0  0  0  0
    7.4446   47.3783  129.6947 C   0  0  0  0  0  0  0  0  0  0  0  0
    6.2359   47.9220  129.3068 C   0  0  0  0  0  0  0  0  0  0  0  0
    4.7422   50.2507  128.2394 H   0  0  0  0  0  0  0  0  0  0  0  0
 20 21  1  0  0  0
 21 22  2  0  0  0
 22 23  1  0  0  0
 23 24  2  0  0  0
 24 19  1  0  0  0
 19  1  1  0  0  0
  1  2  2  0  0  0
  2  3  1  0  0  0
  3  4  1  0  0  0
  4  5  2  0  0  0
  5  6  1  0  0  0
  6  7  1  0  0  0
  6  8  2  0  0  0
  8  9  1  0  0  0
  9 10  2  0  0  0
  2 12  1  0  0  0
 12 13  2  0  0  0
 13 14  1  0  0  0
 14 15  2  0  0  0
 15 16  1  0  0  0
 15 17  1  0  0  0
 17 18  2  0  0  0
 24 25  1  0  0  0
 25 26  2  0  0  0
 26 21  1  0  0  0
 10  1  1  0  0  0
 18 12  1  0  0  0
 10  4  1  0  0  0
 20 27  1  0  0  0
  7 11  1  0  0  0
M  END
> <minimizedAffinity>
-1.59228

> <CNNscore>
0.4815080464

> <CNNaffinity>
7.8710470200

> <CNN_VS>
3.7899725437

> <CNNaffinity_variance>
1.6393945217

$$$$
[H]Oc1c([H])c([H])c(Oc2c(-c3c([H])c([H])c(F)c([H])c3[H])sc3c([H])c(O[H])c([H])c([H])c23)c([H])c1[H]


 27 30  0  0  0  0  0  0  0  0999 V2000
   10.0913   45.8503  130.9839 C   0  0  0  0  0  0  0  0  0  0  0  0
    9.7408   45.3999  132.2177 C   0  0  0  0  0  0  0  0  0  0  0  0
    9.3912   43.7182  131.9193 S   0  0  0  0  0  0  0  0  0  0  0  0
    9.7084   43.6696  130.2549 C   0  0  0  0  0  0  0  0  0  0  0  0
    9.6483   42.6448  129.3064 C   0  0  0  0  0  0  0  0  0  0  0  0
    9.9685   42.8898  127.9869 C   0  0  0  0  0  0  0  0  0  0  0  0
    9.9305   41.9296  127.0055 O   0  0  0  0  0  0  0  0  0  0  0  0
   10.3410   44.1890  127.6925 C   0  0  0  0  0  0  0  0  0  0  0  0
   10.4021   45.1941  128.6119 C   0  0  0  0  0  0  0  0  0  0  0  0
   10.0739   44.9432  129.9643 C   0  0  0  0  0  0  0  0  0  0  0  0
    9.6628   40.9807  127.1991 H   0  0  0  0  0  0  0  0  0  0  0  0
    9.6204   46.0093  133.5336 C   0  0  0  0  0  0  0  0  0  0  0  0
    8.7813   47.1244  133.6924 C   0  0  0  0  0  0  0  0  0  0  0  0
    8.5900   47.7323  134.9132 C   0  0  0  0  0  0  0  0  0  0  0  0
    9.2378   47.2421  136.0312 C   0  0  0  0  0  0  0  0  0  0  0  0
    9.0784   47.8083  137.2450 F   0  0  0  0  0  0  0  0  0  0  0  0
   10.0628   46.1546  135.9076 C   0  0  0  0  0  0  0  0  0  0  0  0
   10.2338   45.5593  134.6460 C   0  0  0  0  0  0  0  0  0  0  0  0
   10.4464   47.2258  130.8184 O   0  0  0  0  0  0  0  0  0  0  0  0
    6.7660   51.1562  129.5986 O   0  0  0  0  0  0  0  0  0  0  0  0
    7.6909   50.1475  129.8940 C   0  0  0  0  0  0  0  0  0  0  0  0
    7.6359   48.9515  129.1985 C   0  0  0  0  0  0  0  0  0  0  0  0
    8.5538   47.9720  129.5031 C   0  0  0  0  0  0  0  0  0  0  0  0
    9.5028   48.1702  130.4715 C   0  0  0  0  0  0  0  0  0  0  0  0
    9.5241   49.3716  131.1393 C   0  0  0  0  0  0  0  0  0  0  0  0
    8.6287   50.3894  130.8758 C   0  0  0  0  0  0  0  0  0  0  0  0
    5.8851   51.1975  130.0927 H   0  0  0  0  0  0  0  0  0  0  0  0
 20 21  1  0  0  0
 21 22  2  0  0  0
 22 23  1  0  0  0
 23 24  2  0  0  0
 24 19  1  0  0  0
 19  1  1  0  0  0
  1  2  2  0  0  0
  2  3  1  0  0  0
  3  4  1  0  0  0
  4  5  2  0  0  0
  5  6  1  0  0  0
  6  7  1  0  0  0
  6  8  2  0  0  0
  8  9  1  0  0  0
  9 10  2  0  0  0
  2 12  1  0  0  0
 12 13  2  0  0  0
 13 14  1  0  0  0
 14 15  2  0  0  0
 15 16  1  0  0  0
 15 17  1  0  0  0
 17 18  2  0  0  0
 24 25  1  0  0  0
 25 26  2  0  0  0
 26 21  1  0  0  0
 10  1  1  0  0  0
 18 12  1  0  0  0
 10  4  1  0  0  0
 20 27  1  0  0  0
  7 11  1  0  0  0
M  END
> <minimizedAffinity>
-3.04557

> <CNNscore>
0.4520514309

> <CNNaffinity>
7.7584543228

> <CNN_VS>
3.5072202682

> <CNNaffinity_variance>
1.8042857647

$$$$
[H]Oc1c([H])c([H])c(Oc2c(-c3c([H])c([H])c(F)c([H])c3[H])sc3c([H])c(O[H])c([H])c([H])c23)c([H])c1[H]


 27 30  0  0  0  0  0  0  0  0999 V2000
    8.9963   44.9546  131.0555 C   0  0  0  0  0  0  0  0  0  0  0  0
    9.4090   46.0851  131.6878 C   0  0  0  0  0  0  0  0  0  0  0  0
   10.6522   46.6809  130.6208 S   0  0  0  0  0  0  0  0  0  0  0  0
   10.5849   45.4754  129.4310 C   0  0  0  0  0  0  0  0  0  0  0  0
   11.2936   45.2728  128.2435 C   0  0  0  0  0  0  0  0  0  0  0  0
   11.0275   44.1794  127.4451 C   0  0  0  0  0  0  0  0  0  0  0  0
   11.6857   43.9210  126.2676 O   0  0  0  0  0  0  0  0  0  0  0  0
   10.0354   43.3311  127.9027 C   0  0  0  0  0  0  0  0  0  0  0  0
    9.3397   43.5218  129.0598 C   0  0  0  0  0  0  0  0  0  0  0  0
    9.6123   44.6423  129.8783 C   0  0  0  0  0  0  0  0  0  0  0  0
   12.4090   44.5249  125.9183 H   0  0  0  0  0  0  0  0  0  0  0  0
    9.0407   46.7588  132.9239 C   0  0  0  0  0  0  0  0  0  0  0  0
    9.0186   48.1629  132.9526 C   0  0  0  0  0  0  0  0  0  0  0  0
    8.6466   48.8693  134.0747 C   0  0  0  0  0  0  0  0  0  0  0  0
    8.2794   48.1902  135.2208 C   0  0  0  0  0  0  0  0  0  0  0  0
    7.9091   48.8437  136.3411 F   0  0  0  0  0  0  0  0  0  0  0  0
    8.2905   46.8196  135.2231 C   0  0  0  0  0  0  0  0  0  0  0  0
    8.6753   46.1318  134.0594 C   0  0  0  0  0  0  0  0  0  0  0  0
    7.9638   44.1616  131.6475 O   0  0  0  0  0  0  0  0  0  0  0  0
    9.3845   40.2328  135.2568 O   0  0  0  0  0  0  0  0  0  0  0  0
    9.0049   41.2232  134.3428 C   0  0  0  0  0  0  0  0  0  0  0  0
    7.6719   41.3452  133.9890 C   0  0  0  0  0  0  0  0  0  0  0  0
    7.3183   42.3249  133.0892 C   0  0  0  0  0  0  0  0  0  0  0  0
    8.2597   43.1635  132.5522 C   0  0  0  0  0  0  0  0  0  0  0  0
    9.5728   43.0099  132.9292 C   0  0  0  0  0  0  0  0  0  0  0  0
    9.9848   42.0452  133.8273 C   0  0  0  0  0  0  0  0  0  0  0  0
    9.6458   39.3130  134.9290 H   0  0  0  0  0  0  0  0  0  0  0  0
 20 21  1  0  0  0
 21 22  2  0  0  0
 22 23  1  0  0  0
 23 24  2  0  0  0
 24 19  1  0  0  0
 19  1  1  0  0  0
  1  2  2  0  0  0
  2  3  1  0  0  0
  3  4  1  0  0  0
  4  5  2  0  0  0
  5  6  1  0  0  0
  6  7  1  0  0  0
  6  8  2  0  0  0
  8  9  1  0  0  0
  9 10  2  0  0  0
  2 12  1  0  0  0
 12 13  2  0  0  0
 13 14  1  0  0  0
 14 15  2  0  0  0
 15 16  1  0  0  0
 15 17  1  0  0  0
 17 18  2  0  0  0
 24 25  1  0  0  0
 25 26  2  0  0  0
 26 21  1  0  0  0
 10  1  1  0  0  0
 18 12  1  0  0  0
 10  4  1  0  0  0
 20 27  1  0  0  0
  7 11  1  0  0  0
M  END
> <minimizedAffinity>
12.82420

> <CNNscore>
0.4338365495

> <CNNaffinity>
7.0288057327

> <CNN_VS>
3.0493528843

> <CNNaffinity_variance>
1.9985042810

$$$$
[H]Oc1c([H])c([H])c(-c2sc3c([H])c(O[H])c([H])c([H])c3c2C(=O)c2c([H])c([H])c(OC([H])([H])C([H])([H])N([H])C([H])([H])C([H])([H])C([H])([H])C([H])([H])C([H])([H])C([H])([H])C([H])([H])C([H])([H])C([H])([H])C([H])([H])C([H])([H])C([H])([H])C([H])([H])C([H])([H])C([H])([H])C([H])([H])[H])c([H])c2[H])c([H])c1[H]


 48 51  0  0  0  0  0  0  0  0999 V2000
   11.3711   44.1886  135.2777 C   0  0  0  0  0  0  0  0  0  0  0  0
   10.0947   44.7877  135.4176 C   0  0  0  0  0  0  0  0  0  0  0  0
    9.7341   45.7940  134.5707 C   0  0  0  0  0  0  0  0  0  0  0  0
   10.5329   46.2844  133.5645 C   0  0  0  0  0  0  0  0  0  0  0  0
   11.7617   45.7008  133.4402 C   0  0  0  0  0  0  0  0  0  0  0  0
   12.1750   44.6622  134.2898 C   0  0  0  0  0  0  0  0  0  0  0  0
   10.0074   47.2905  132.7184 C   0  0  0  0  0  0  0  0  0  0  0  0
   10.2042   48.5133  133.1126 O   0  0  0  0  0  0  0  0  0  0  0  0
    9.2618   47.1407  131.4232 C   0  0  0  0  0  0  0  0  0  0  0  0
    9.0930   45.9499  130.7908 C   0  0  0  0  0  0  0  0  0  0  0  0
    8.1779   46.3863  129.3794 S   0  0  0  0  0  0  0  0  0  0  0  0
    8.0392   48.0570  129.6480 C   0  0  0  0  0  0  0  0  0  0  0  0
    7.4057   49.0875  128.9338 C   0  0  0  0  0  0  0  0  0  0  0  0
    7.4429   50.3930  129.4284 C   0  0  0  0  0  0  0  0  0  0  0  0
    6.8085   51.3913  128.7078 O   0  0  0  0  0  0  0  0  0  0  0  0
    8.1123   50.5796  130.6009 C   0  0  0  0  0  0  0  0  0  0  0  0
    8.7250   49.5683  131.2874 C   0  0  0  0  0  0  0  0  0  0  0  0
    8.7021   48.2431  130.8145 C   0  0  0  0  0  0  0  0  0  0  0  0
    7.2710   51.9117  128.0053 H   0  0  0  0  0  0  0  0  0  0  0  0
    9.5222   44.5748  131.0804 C   0  0  0  0  0  0  0  0  0  0  0  0
    8.8642   43.6597  131.8145 C   0  0  0  0  0  0  0  0  0  0  0  0
    9.4287   42.4271  132.0681 C   0  0  0  0  0  0  0  0  0  0  0  0
   10.6646   42.0664  131.6000 C   0  0  0  0  0  0  0  0  0  0  0  0
   11.2166   40.8242  131.8666 O   0  0  0  0  0  0  0  0  0  0  0  0
   11.3391   43.0102  130.8438 C   0  0  0  0  0  0  0  0  0  0  0  0
   10.7895   44.2385  130.5850 C   0  0  0  0  0  0  0  0  0  0  0  0
   11.0592   40.0299  131.2453 H   0  0  0  0  0  0  0  0  0  0  0  0
   11.6527   43.2116  136.1482 O   0  0  0  0  0  0  0  0  0  0  0  0
   12.2108   43.0525  137.3794 C   0  0  0  0  0  0  0  0  0  0  0  0
   13.5611   42.3611  137.3238 C   0  0  0  0  0  0  0  0  0  0  0  0
   14.3143   42.2443  138.4948 N   0  0  0  0  0  0  0  0  0  0  0  0
   14.1133   42.8880  139.2511 H   0  0  0  0  0  0  0  0  0  0  0  0
   15.6517   41.8243  138.4476 C   0  0  0  0  0  0  0  0  0  0  0  0
   16.6432   42.4786  139.2990 C   0  0  0  0  0  0  0  0  0  0  0  0
   16.3617   43.5295  140.2671 C   0  0  0  0  0  0  0  0  0  0  0  0
   17.3940   44.4183  140.7831 C   0  0  0  0  0  0  0  0  0  0  0  0
   18.1669   44.0703  142.0047 C   0  0  0  0  0  0  0  0  0  0  0  0
   19.6380   43.8558  141.6676 C   0  0  0  0  0  0  0  0  0  0  0  0
   19.8771   42.4257  141.3208 C   0  0  0  0  0  0  0  0  0  0  0  0
   19.1340   41.5056  142.2477 C   0  0  0  0  0  0  0  0  0  0  0  0
   18.5602   40.3371  141.5181 C   0  0  0  0  0  0  0  0  0  0  0  0
   19.6480   39.3957  141.0991 C   0  0  0  0  0  0  0  0  0  0  0  0
   19.2643   38.5375  139.9472 C   0  0  0  0  0  0  0  0  0  0  0  0
   18.4576   39.2727  138.8833 C   0  0  0  0  0  0  0  0  0  0  0  0
   19.2141   39.4395  137.6227 C   0  0  0  0  0  0  0  0  0  0  0  0
   20.5980   39.9169  137.6921 C   0  0  0  0  0  0  0  0  0  0  0  0
   19.8234   42.3223  137.6818 C   0  0  0  0  0  0  0  0  0  0  0  0
   20.8878   41.3433  137.9295 C   0  0  0  0  0  0  0  0  0  0  0  0
 47 48  1  0  0  0
 48 46  1  0  0  0
 46 45  1  0  0  0
 45 44  1  0  0  0
 44 43  1  0  0  0
 43 42  1  0  0  0
 42 41  1  0  0  0
 41 40  1  0  0  0
 40 39  1  0  0  0
 39 38  1  0  0  0
 38 37  1  0  0  0
 37 36  1  0  0  0
 36 35  1  0  0  0
 35 34  1  0  0  0
 34 33  1  0  0  0
 33 31  1  0  0  0
 31 30  1  0  0  0
 30 29  1  0  0  0
 29 28  1  0  0  0
 28  1  1  0  0  0
  1  2  2  0  0  0
  2  3  1  0  0  0
  3  4  2  0  0  0
  4  5  1  0  0  0
  5  6  2  0  0  0
  4  7  1  0  0  0
  7  8  2  0  0  0
  7  9  1  0  0  0
  9 10  2  0  0  0
 10 11  1  0  0  0
 11 12  1  0  0  0
 12 13  2  0  0  0
 13 14  1  0  0  0
 14 15  1  0  0  0
 14 16  2  0  0  0
 16 17  1  0  0  0
 17 18  2  0  0  0
 10 20  1  0  0  0
 20 21  2  0  0  0
 21 22  1  0  0  0
 22 23  2  0  0  0
 23 24  1  0  0  0
 23 25  1  0  0  0
 25 26  2  0  0  0
  6  1  1  0  0  0
 18  9  1  0  0  0
 26 20  1  0  0  0
 18 12  1  0  0  0
 31 32  1  0  0  0
 15 19  1  0  0  0
 24 27  1  0  0  0
M  END
> <minimizedAffinity>
-0.05098

> <CNNscore>
0.3732392490

> <CNNaffinity>
7.9855055809

> <CNN_VS>
2.9805040359

> <CNNaffinity_variance>
0.5503157377

$$$$
[H]Oc1c([H])c([H])c(-c2sc3c([H])c(O[H])c([H])c([H])c3c2C(=O)c2c([H])c([H])c(OC([H])([H])C([H])([H])N([H])C([H])([H])C([H])([H])C([H])([H])C([H])([H])C([H])([H])C([H])([H])C([H])([H])C([H])([H])C([H])([H])C([H])([H])C([H])([H])C([H])([H])C([H])([H])C([H])([H])C([H])([H])C([H])([H])[H])c([H])c2[H])c([H])c1[H]


 48 51  0  0  0  0  0  0  0  0999 V2000
   11.3943   44.2738  135.2625 C   0  0  0  0  0  0  0  0  0  0  0  0
   10.0734   44.7854  135.2962 C   0  0  0  0  0  0  0  0  0  0  0  0
    9.7261   45.7913  134.4433 C   0  0  0  0  0  0  0  0  0  0  0  0
   10.5797   46.3615  133.5283 C   0  0  0  0  0  0  0  0  0  0  0  0
   11.8508   45.8618  133.5059 C   0  0  0  0  0  0  0  0  0  0  0  0
   12.2523   44.8269  134.3657 C   0  0  0  0  0  0  0  0  0  0  0  0
   10.0685   47.3566  132.6606 C   0  0  0  0  0  0  0  0  0  0  0  0
   10.3170   48.5842  133.0077 O   0  0  0  0  0  0  0  0  0  0  0  0
    9.2864   47.1898  131.3892 C   0  0  0  0  0  0  0  0  0  0  0  0
    9.1046   45.9916  130.7746 C   0  0  0  0  0  0  0  0  0  0  0  0
    8.1470   46.4090  129.3858 S   0  0  0  0  0  0  0  0  0  0  0  0
    8.0089   48.0819  129.6405 C   0  0  0  0  0  0  0  0  0  0  0  0
    7.3505   49.1022  128.9341 C   0  0  0  0  0  0  0  0  0  0  0  0
    7.3963   50.4130  129.4135 C   0  0  0  0  0  0  0  0  0  0  0  0
    6.7369   51.4009  128.7009 O   0  0  0  0  0  0  0  0  0  0  0  0
    8.0985   50.6150  130.5640 C   0  0  0  0  0  0  0  0  0  0  0  0
    8.7352   49.6136  131.2432 C   0  0  0  0  0  0  0  0  0  0  0  0
    8.7045   48.2833  130.7853 C   0  0  0  0  0  0  0  0  0  0  0  0
    7.1766   51.9156  127.9799 H   0  0  0  0  0  0  0  0  0  0  0  0
    9.5479   44.6214  131.0663 C   0  0  0  0  0  0  0  0  0  0  0  0
    8.8553   43.6678  131.7143 C   0  0  0  0  0  0  0  0  0  0  0  0
    9.4322   42.4448  131.9860 C   0  0  0  0  0  0  0  0  0  0  0  0
   10.7155   42.1324  131.6221 C   0  0  0  0  0  0  0  0  0  0  0  0
   11.2792   40.8992  131.9054 O   0  0  0  0  0  0  0  0  0  0  0  0
   11.4257   43.1159  130.9544 C   0  0  0  0  0  0  0  0  0  0  0  0
   10.8641   44.3352  130.6787 C   0  0  0  0  0  0  0  0  0  0  0  0
   11.2022   40.1187  131.2522 H   0  0  0  0  0  0  0  0  0  0  0  0
   11.6590   43.2913  136.1322 O   0  0  0  0  0  0  0  0  0  0  0  0
   12.1168   43.1315  137.4040 C   0  0  0  0  0  0  0  0  0  0  0  0
   13.3315   42.2241  137.4779 C   0  0  0  0  0  0  0  0  0  0  0  0
   14.3383   42.5092  138.4038 N   0  0  0  0  0  0  0  0  0  0  0  0
   14.5238   43.4829  138.6141 H   0  0  0  0  0  0  0  0  0  0  0  0
   15.4640   41.6800  138.5164 C   0  0  0  0  0  0  0  0  0  0  0  0
   16.8009   42.2635  138.4267 C   0  0  0  0  0  0  0  0  0  0  0  0
   17.9836   41.5874  137.9119 C   0  0  0  0  0  0  0  0  0  0  0  0
   19.2883   42.2316  137.8429 C   0  0  0  0  0  0  0  0  0  0  0  0
   20.5363   41.4698  138.1127 C   0  0  0  0  0  0  0  0  0  0  0  0
   20.3894   40.0203  137.6642 C   0  0  0  0  0  0  0  0  0  0  0  0
   21.5055   39.2011  138.2173 C   0  0  0  0  0  0  0  0  0  0  0  0
   21.5159   39.2326  139.7197 C   0  0  0  0  0  0  0  0  0  0  0  0
   20.3265   38.5363  140.2918 C   0  0  0  0  0  0  0  0  0  0  0  0
   19.8974   39.1948  141.5674 C   0  0  0  0  0  0  0  0  0  0  0  0
   18.4654   39.5947  141.5639 C   0  0  0  0  0  0  0  0  0  0  0  0
   18.2558   41.1045  141.5546 C   0  0  0  0  0  0  0  0  0  0  0  0
   19.5343   41.8476  141.6032 C   0  0  0  0  0  0  0  0  0  0  0  0
   19.4986   43.3115  141.5405 C   0  0  0  0  0  0  0  0  0  0  0  0
   17.4806   44.6697  140.8558 C   0  0  0  0  0  0  0  0  0  0  0  0
   18.2784   44.0483  141.9188 C   0  0  0  0  0  0  0  0  0  0  0  0
 47 48  1  0  0  0
 48 46  1  0  0  0
 46 45  1  0  0  0
 45 44  1  0  0  0
 44 43  1  0  0  0
 43 42  1  0  0  0
 42 41  1  0  0  0
 41 40  1  0  0  0
 40 39  1  0  0  0
 39 38  1  0  0  0
 38 37  1  0  0  0
 37 36  1  0  0  0
 36 35  1  0  0  0
 35 34  1  0  0  0
 34 33  1  0  0  0
 33 31  1  0  0  0
 31 30  1  0  0  0
 30 29  1  0  0  0
 29 28  1  0  0  0
 28  1  1  0  0  0
  1  2  2  0  0  0
  2  3  1  0  0  0
  3  4  2  0  0  0
  4  5  1  0  0  0
  5  6  2  0  0  0
  4  7  1  0  0  0
  7  8  2  0  0  0
  7  9  1  0  0  0
  9 10  2  0  0  0
 10 11  1  0  0  0
 11 12  1  0  0  0
 12 13  2  0  0  0
 13 14  1  0  0  0
 14 15  1  0  0  0
 14 16  2  0  0  0
 16 17  1  0  0  0
 17 18  2  0  0  0
 10 20  1  0  0  0
 20 21  2  0  0  0
 21 22  1  0  0  0
 22 23  2  0  0  0
 23 24  1  0  0  0
 23 25  1  0  0  0
 25 26  2  0  0  0
  6  1  1  0  0  0
 18  9  1  0  0  0
 26 20  1  0  0  0
 18 12  1  0  0  0
 31 32  1  0  0  0
 15 19  1  0  0  0
 24 27  1  0  0  0
M  END
> <minimizedAffinity>
0.06990

> <CNNscore>
0.3680220246

> <CNNaffinity>
7.9475617409

> <CNN_VS>
2.9248776436

> <CNNaffinity_variance>
0.5485274196

$$$$
[H]Oc1c([H])c([H])c(-c2sc3c([H])c(O[H])c([H])c([H])c3c2C(=O)c2c([H])c([H])c(OC([H])([H])C([H])([H])N([H])C([H])([H])C([H])([H])C([H])([H])C([H])([H])C([H])([H])C([H])([H])C([H])([H])C([H])([H])C([H])([H])C([H])([H])C([H])([H])C([H])([H])C([H])([H])C([H])([H])C([H])([H])C([H])([H])[H])c([H])c2[H])c([H])c1[H]


 48 51  0  0  0  0  0  0  0  0999 V2000
   11.4720   44.2085  135.2317 C   0  0  0  0  0  0  0  0  0  0  0  0
   10.1809   44.7751  135.3724 C   0  0  0  0  0  0  0  0  0  0  0  0
    9.8012   45.7843  134.5375 C   0  0  0  0  0  0  0  0  0  0  0  0
   10.5936   46.3075  133.5428 C   0  0  0  0  0  0  0  0  0  0  0  0
   11.8366   45.7550  133.4176 C   0  0  0  0  0  0  0  0  0  0  0  0
   12.2698   44.7147  134.2551 C   0  0  0  0  0  0  0  0  0  0  0  0
   10.0490   47.3126  132.7077 C   0  0  0  0  0  0  0  0  0  0  0  0
   10.2402   48.5354  133.1046 O   0  0  0  0  0  0  0  0  0  0  0  0
    9.2885   47.1618  131.4213 C   0  0  0  0  0  0  0  0  0  0  0  0
    9.1105   45.9703  130.7928 C   0  0  0  0  0  0  0  0  0  0  0  0
    8.1803   46.4058  129.3912 S   0  0  0  0  0  0  0  0  0  0  0  0
    8.0475   48.0771  129.6583 C   0  0  0  0  0  0  0  0  0  0  0  0
    7.4078   49.1076  128.9495 C   0  0  0  0  0  0  0  0  0  0  0  0
    7.4528   50.4138  129.4414 C   0  0  0  0  0  0  0  0  0  0  0  0
    6.8120   51.4120  128.7262 O   0  0  0  0  0  0  0  0  0  0  0  0
    8.1357   50.6013  130.6059 C   0  0  0  0  0  0  0  0  0  0  0  0
    8.7544   49.5901  131.2872 C   0  0  0  0  0  0  0  0  0  0  0  0
    8.7239   48.2642  130.8170 C   0  0  0  0  0  0  0  0  0  0  0  0
    7.2674   51.9303  128.0176 H   0  0  0  0  0  0  0  0  0  0  0  0
    9.5406   44.5949  131.0800 C   0  0  0  0  0  0  0  0  0  0  0  0
    8.8782   43.6746  131.8035 C   0  0  0  0  0  0  0  0  0  0  0  0
    9.4434   42.4423  132.0566 C   0  0  0  0  0  0  0  0  0  0  0  0
   10.6847   42.0871  131.5986 C   0  0  0  0  0  0  0  0  0  0  0  0
   11.2375   40.8450  131.8646 O   0  0  0  0  0  0  0  0  0  0  0  0
   11.3639   43.0362  130.8534 C   0  0  0  0  0  0  0  0  0  0  0  0
   10.8134   44.2643  130.5951 C   0  0  0  0  0  0  0  0  0  0  0  0
   11.0881   40.0533  131.2381 H   0  0  0  0  0  0  0  0  0  0  0  0
   11.7719   43.2263  136.0902 O   0  0  0  0  0  0  0  0  0  0  0  0
   12.2500   43.0682  137.3547 C   0  0  0  0  0  0  0  0  0  0  0  0
   13.5417   42.2717  137.3957 C   0  0  0  0  0  0  0  0  0  0  0  0
   14.3445   42.3358  138.5374 N   0  0  0  0  0  0  0  0  0  0  0  0
   14.3059   43.1813  139.0943 H   0  0  0  0  0  0  0  0  0  0  0  0
   15.5874   41.6868  138.5766 C   0  0  0  0  0  0  0  0  0  0  0  0
   16.8020   42.4361  138.2621 C   0  0  0  0  0  0  0  0  0  0  0  0
   17.7962   42.8766  139.2310 C   0  0  0  0  0  0  0  0  0  0  0  0
   19.2021   42.5077  139.1359 C   0  0  0  0  0  0  0  0  0  0  0  0
   19.8160   42.1511  137.8295 C   0  0  0  0  0  0  0  0  0  0  0  0
   21.0336   41.2570  138.0334 C   0  0  0  0  0  0  0  0  0  0  0  0
   20.7532   39.8890  137.5113 C   0  0  0  0  0  0  0  0  0  0  0  0
   19.9475   39.0832  138.4910 C   0  0  0  0  0  0  0  0  0  0  0  0
   18.5826   38.7858  137.9663 C   0  0  0  0  0  0  0  0  0  0  0  0
   18.6530   37.7647  136.8720 C   0  0  0  0  0  0  0  0  0  0  0  0
   19.1842   36.4541  137.3310 C   0  0  0  0  0  0  0  0  0  0  0  0
   18.3537   35.8156  138.4382 C   0  0  0  0  0  0  0  0  0  0  0  0
   16.9495   35.5941  138.0281 C   0  0  0  0  0  0  0  0  0  0  0  0
   15.9427   35.3608  139.0674 C   0  0  0  0  0  0  0  0  0  0  0  0
   15.0422   37.7010  138.7538 C   0  0  0  0  0  0  0  0  0  0  0  0
   14.8897   36.3597  139.3284 C   0  0  0  0  0  0  0  0  0  0  0  0
 47 48  1  0  0  0
 48 46  1  0  0  0
 46 45  1  0  0  0
 45 44  1  0  0  0
 44 43  1  0  0  0
 43 42  1  0  0  0
 42 41  1  0  0  0
 41 40  1  0  0  0
 40 39  1  0  0  0
 39 38  1  0  0  0
 38 37  1  0  0  0
 37 36  1  0  0  0
 36 35  1  0  0  0
 35 34  1  0  0  0
 34 33  1  0  0  0
 33 31  1  0  0  0
 31 30  1  0  0  0
 30 29  1  0  0  0
 29 28  1  0  0  0
 28  1  1  0  0  0
  1  2  2  0  0  0
  2  3  1  0  0  0
  3  4  2  0  0  0
  4  5  1  0  0  0
  5  6  2  0  0  0
  4  7  1  0  0  0
  7  8  2  0  0  0
  7  9  1  0  0  0
  9 10  2  0  0  0
 10 11  1  0  0  0
 11 12  1  0  0  0
 12 13  2  0  0  0
 13 14  1  0  0  0
 14 15  1  0  0  0
 14 16  2  0  0  0
 16 17  1  0  0  0
 17 18  2  0  0  0
 10 20  1  0  0  0
 20 21  2  0  0  0
 21 22  1  0  0  0
 22 23  2  0  0  0
 23 24  1  0  0  0
 23 25  1  0  0  0
 25 26  2  0  0  0
  6  1  1  0  0  0
 18  9  1  0  0  0
 26 20  1  0  0  0
 18 12  1  0  0  0
 31 32  1  0  0  0
 15 19  1  0  0  0
 24 27  1  0  0  0
M  END
> <minimizedAffinity>
-0.14730

> <CNNscore>
0.3576304913

> <CNNaffinity>
8.0763683319

> <CNN_VS>
2.8883554935

> <CNNaffinity_variance>
0.6776002049

$$$$
[H]Oc1c([H])c([H])c(-c2sc3c([H])c(O[H])c([H])c([H])c3c2C(=O)c2c([H])c([H])c(OC([H])([H])C([H])([H])N([H])C([H])([H])C([H])([H])C([H])([H])C([H])([H])C([H])([H])C([H])([H])C([H])([H])C([H])([H])C([H])([H])C([H])([H])C([H])([H])C([H])([H])C([H])([H])C([H])([H])C([H])([H])C([H])([H])[H])c([H])c2[H])c([H])c1[H]


 48 51  0  0  0  0  0  0  0  0999 V2000
   11.4940   44.1794  135.1695 C   0  0  0  0  0  0  0  0  0  0  0  0
   10.1959   44.7233  135.3336 C   0  0  0  0  0  0  0  0  0  0  0  0
    9.7922   45.7416  134.5213 C   0  0  0  0  0  0  0  0  0  0  0  0
   10.5662   46.2950  133.5285 C   0  0  0  0  0  0  0  0  0  0  0  0
   11.8161   45.7641  133.3806 C   0  0  0  0  0  0  0  0  0  0  0  0
   12.2737   44.7155  134.1944 C   0  0  0  0  0  0  0  0  0  0  0  0
    9.9976   47.3066  132.7175 C   0  0  0  0  0  0  0  0  0  0  0  0
   10.1689   48.5244  133.1383 O   0  0  0  0  0  0  0  0  0  0  0  0
    9.2317   47.1680  131.4330 C   0  0  0  0  0  0  0  0  0  0  0  0
    9.0496   45.9822  130.7949 C   0  0  0  0  0  0  0  0  0  0  0  0
    8.1142   46.4310  129.4009 S   0  0  0  0  0  0  0  0  0  0  0  0
    7.9846   48.1002  129.6832 C   0  0  0  0  0  0  0  0  0  0  0  0
    7.3434   49.1376  128.9860 C   0  0  0  0  0  0  0  0  0  0  0  0
    7.3921   50.4394  129.4891 C   0  0  0  0  0  0  0  0  0  0  0  0
    6.7496   51.4446  128.7852 O   0  0  0  0  0  0  0  0  0  0  0  0
    8.0800   50.6159  130.6523 C   0  0  0  0  0  0  0  0  0  0  0  0
    8.7002   49.5980  131.3223 C   0  0  0  0  0  0  0  0  0  0  0  0
    8.6660   48.2763  130.8407 C   0  0  0  0  0  0  0  0  0  0  0  0
    7.2028   51.9685  128.0793 H   0  0  0  0  0  0  0  0  0  0  0  0
    9.4790   44.6038  131.0683 C   0  0  0  0  0  0  0  0  0  0  0  0
    8.8193   43.6788  131.7881 C   0  0  0  0  0  0  0  0  0  0  0  0
    9.3840   42.4434  132.0279 C   0  0  0  0  0  0  0  0  0  0  0  0
   10.6220   42.0900  131.5598 C   0  0  0  0  0  0  0  0  0  0  0  0
   11.1743   40.8450  131.8124 O   0  0  0  0  0  0  0  0  0  0  0  0
   11.2984   43.0441  130.8184 C   0  0  0  0  0  0  0  0  0  0  0  0
   10.7485   44.2752  130.5734 C   0  0  0  0  0  0  0  0  0  0  0  0
   11.0199   40.0586  131.1803 H   0  0  0  0  0  0  0  0  0  0  0  0
   11.8177   43.1864  136.0068 O   0  0  0  0  0  0  0  0  0  0  0  0
   12.2807   43.0124  137.2748 C   0  0  0  0  0  0  0  0  0  0  0  0
   13.7160   42.5195  137.3103 C   0  0  0  0  0  0  0  0  0  0  0  0
   14.2333   42.0168  138.5068 N   0  0  0  0  0  0  0  0  0  0  0  0
   13.7707   42.2812  139.3687 H   0  0  0  0  0  0  0  0  0  0  0  0
   15.6087   41.7818  138.6502 C   0  0  0  0  0  0  0  0  0  0  0  0
   16.1360   40.4356  138.4370 C   0  0  0  0  0  0  0  0  0  0  0  0
   15.9438   39.3028  139.3319 C   0  0  0  0  0  0  0  0  0  0  0  0
   16.9969   38.8069  140.2076 C   0  0  0  0  0  0  0  0  0  0  0  0
   17.3556   39.5238  141.4599 C   0  0  0  0  0  0  0  0  0  0  0  0
   18.6573   38.9796  142.0372 C   0  0  0  0  0  0  0  0  0  0  0  0
   19.7924   39.8691  141.6593 C   0  0  0  0  0  0  0  0  0  0  0  0
   19.3937   41.3171  141.7086 C   0  0  0  0  0  0  0  0  0  0  0  0
   20.1962   42.1404  140.7573 C   0  0  0  0  0  0  0  0  0  0  0  0
   19.3342   42.6334  139.6352 C   0  0  0  0  0  0  0  0  0  0  0  0
   19.3686   41.7480  138.4413 C   0  0  0  0  0  0  0  0  0  0  0  0
   20.7782   41.3469  138.0222 C   0  0  0  0  0  0  0  0  0  0  0  0
   20.9100   39.8862  137.8266 C   0  0  0  0  0  0  0  0  0  0  0  0
   19.7345   39.0392  138.0478 C   0  0  0  0  0  0  0  0  0  0  0  0
   20.1785   37.8253  135.8763 C   0  0  0  0  0  0  0  0  0  0  0  0
   19.2844   38.0955  137.0078 C   0  0  0  0  0  0  0  0  0  0  0  0
 47 48  1  0  0  0
 48 46  1  0  0  0
 46 45  1  0  0  0
 45 44  1  0  0  0
 44 43  1  0  0  0
 43 42  1  0  0  0
 42 41  1  0  0  0
 41 40  1  0  0  0
 40 39  1  0  0  0
 39 38  1  0  0  0
 38 37  1  0  0  0
 37 36  1  0  0  0
 36 35  1  0  0  0
 35 34  1  0  0  0
 34 33  1  0  0  0
 33 31  1  0  0  0
 31 30  1  0  0  0
 30 29  1  0  0  0
 29 28  1  0  0  0
 28  1  1  0  0  0
  1  2  2  0  0  0
  2  3  1  0  0  0
  3  4  2  0  0  0
  4  5  1  0  0  0
  5  6  2  0  0  0
  4  7  1  0  0  0
  7  8  2  0  0  0
  7  9  1  0  0  0
  9 10  2  0  0  0
 10 11  1  0  0  0
 11 12  1  0  0  0
 12 13  2  0  0  0
 13 14  1  0  0  0
 14 15  1  0  0  0
 14 16  2  0  0  0
 16 17  1  0  0  0
 17 18  2  0  0  0
 10 20  1  0  0  0
 20 21  2  0  0  0
 21 22  1  0  0  0
 22 23  2  0  0  0
 23 24  1  0  0  0
 23 25  1  0  0  0
 25 26  2  0  0  0
  6  1  1  0  0  0
 18  9  1  0  0  0
 26 20  1  0  0  0
 18 12  1  0  0  0
 31 32  1  0  0  0
 15 19  1  0  0  0
 24 27  1  0  0  0
M  END
> <minimizedAffinity>
0.47146

> <CNNscore>
0.3292768896

> <CNNaffinity>
7.9085669518

> <CNN_VS>
2.6041083336

> <CNNaffinity_variance>
0.6125865579

$$$$
[H]Oc1c([H])c([H])c(-c2sc3c([H])c(O[H])c([H])c([H])c3c2C(=O)c2c([H])c([H])c(OC([H])([H])C([H])([H])N([H])C([H])([H])C([H])([H])C([H])([H])C([H])([H])C([H])([H])C([H])([H])C([H])([H])C([H])([H])C([H])([H])C([H])([H])C([H])([H])C([H])([H])C([H])([H])C([H])([H])C([H])([H])C([H])([H])[H])c([H])c2[H])c([H])c1[H]


 48 51  0  0  0  0  0  0  0  0999 V2000
   15.5502   41.9126  138.2605 C   0  0  0  0  0  0  0  0  0  0  0  0
   16.5410   42.8560  138.6292 C   0  0  0  0  0  0  0  0  0  0  0  0
   17.7658   42.4130  139.0334 C   0  0  0  0  0  0  0  0  0  0  0  0
   18.1240   41.0876  139.1116 C   0  0  0  0  0  0  0  0  0  0  0  0
   17.1605   40.1871  138.7557 C   0  0  0  0  0  0  0  0  0  0  0  0
   15.8860   40.5980  138.3337 C   0  0  0  0  0  0  0  0  0  0  0  0
   19.4514   40.7707  139.4883 C   0  0  0  0  0  0  0  0  0  0  0  0
   20.3709   41.0985  138.6301 O   0  0  0  0  0  0  0  0  0  0  0  0
   19.9453   40.1163  140.7468 C   0  0  0  0  0  0  0  0  0  0  0  0
   19.9670   40.7386  141.9545 C   0  0  0  0  0  0  0  0  0  0  0  0
   20.6242   39.5215  143.0065 S   0  0  0  0  0  0  0  0  0  0  0  0
   20.8399   38.2711  141.8786 C   0  0  0  0  0  0  0  0  0  0  0  0
   21.3145   36.9540  141.9950 C   0  0  0  0  0  0  0  0  0  0  0  0
   21.3538   36.1330  140.8661 C   0  0  0  0  0  0  0  0  0  0  0  0
   21.8231   34.8374  141.0070 O   0  0  0  0  0  0  0  0  0  0  0  0
   20.9186   36.6845  139.6982 C   0  0  0  0  0  0  0  0  0  0  0  0
   20.4584   37.9681  139.5971 C   0  0  0  0  0  0  0  0  0  0  0  0
   20.4052   38.8175  140.7177 C   0  0  0  0  0  0  0  0  0  0  0  0
   22.7787   34.6066  140.8989 H   0  0  0  0  0  0  0  0  0  0  0  0
   19.5895   42.0826  142.4130 C   0  0  0  0  0  0  0  0  0  0  0  0
   18.5637   42.4029  143.2219 C   0  0  0  0  0  0  0  0  0  0  0  0
   18.2809   43.7226  143.5061 C   0  0  0  0  0  0  0  0  0  0  0  0
   19.0088   44.7643  142.9947 C   0  0  0  0  0  0  0  0  0  0  0  0
   18.7087   46.0841  143.2897 O   0  0  0  0  0  0  0  0  0  0  0  0
   20.0648   44.4314  142.1631 C   0  0  0  0  0  0  0  0  0  0  0  0
   20.3560   43.1242  141.8725 C   0  0  0  0  0  0  0  0  0  0  0  0
   19.1249   46.5553  144.0937 H   0  0  0  0  0  0  0  0  0  0  0  0
   14.3737   42.4249  137.8795 O   0  0  0  0  0  0  0  0  0  0  0  0
   13.0647   42.0608  137.7987 C   0  0  0  0  0  0  0  0  0  0  0  0
   12.1984   43.1325  137.1620 C   0  0  0  0  0  0  0  0  0  0  0  0
   12.1340   43.2163  135.7688 N   0  0  0  0  0  0  0  0  0  0  0  0
   12.9959   43.3939  135.2665 H   0  0  0  0  0  0  0  0  0  0  0  0
   10.9919   43.7260  135.1337 C   0  0  0  0  0  0  0  0  0  0  0  0
   11.1368   44.7595  134.1106 C   0  0  0  0  0  0  0  0  0  0  0  0
   12.3783   45.1082  133.4337 C   0  0  0  0  0  0  0  0  0  0  0  0
   12.4666   45.2656  131.9882 C   0  0  0  0  0  0  0  0  0  0  0  0
   12.3618   44.0931  131.0800 C   0  0  0  0  0  0  0  0  0  0  0  0
   11.0324   44.1074  130.3342 C   0  0  0  0  0  0  0  0  0  0  0  0
   11.2598   44.4248  128.8954 C   0  0  0  0  0  0  0  0  0  0  0  0
   10.6499   45.7466  128.5228 C   0  0  0  0  0  0  0  0  0  0  0  0
    9.8097   46.2946  129.6276 C   0  0  0  0  0  0  0  0  0  0  0  0
    8.3747   46.3751  129.2039 C   0  0  0  0  0  0  0  0  0  0  0  0
    7.6289   47.4713  129.8766 C   0  0  0  0  0  0  0  0  0  0  0  0
    8.0497   48.8630  129.4188 C   0  0  0  0  0  0  0  0  0  0  0  0
    8.0737   49.8357  130.5335 C   0  0  0  0  0  0  0  0  0  0  0  0
    9.2706   49.9087  131.3762 C   0  0  0  0  0  0  0  0  0  0  0  0
   10.0937   48.3300  133.1696 C   0  0  0  0  0  0  0  0  0  0  0  0
   10.0010   48.6829  131.7484 C   0  0  0  0  0  0  0  0  0  0  0  0
 47 48  1  0  0  0
 48 46  1  0  0  0
 46 45  1  0  0  0
 45 44  1  0  0  0
 44 43  1  0  0  0
 43 42  1  0  0  0
 42 41  1  0  0  0
 41 40  1  0  0  0
 40 39  1  0  0  0
 39 38  1  0  0  0
 38 37  1  0  0  0
 37 36  1  0  0  0
 36 35  1  0  0  0
 35 34  1  0  0  0
 34 33  1  0  0  0
 33 31  1  0  0  0
 31 30  1  0  0  0
 30 29  1  0  0  0
 29 28  1  0  0  0
 28  1  1  0  0  0
  1  2  2  0  0  0
  2  3  1  0  0  0
  3  4  2  0  0  0
  4  5  1  0  0  0
  5  6  2  0  0  0
  4  7  1  0  0  0
  7  8  2  0  0  0
  7  9  1  0  0  0
  9 10  2  0  0  0
 10 11  1  0  0  0
 11 12  1  0  0  0
 12 13  2  0  0  0
 13 14  1  0  0  0
 14 15  1  0  0  0
 14 16  2  0  0  0
 16 17  1  0  0  0
 17 18  2  0  0  0
 10 20  1  0  0  0
 20 21  2  0  0  0
 21 22  1  0  0  0
 22 23  2  0  0  0
 23 24  1  0  0  0
 23 25  1  0  0  0
 25 26  2  0  0  0
  6  1  1  0  0  0
 18  9  1  0  0  0
 26 20  1  0  0  0
 18 12  1  0  0  0
 31 32  1  0  0  0
 15 19  1  0  0  0
 24 27  1  0  0  0
M  END
> <minimizedAffinity>
0.30603

> <CNNscore>
0.3287208974

> <CNNaffinity>
6.8218345642

> <CNN_VS>
2.2424795628

> <CNNaffinity_variance>
0.3289876878

$$$$
[H]Oc1c([H])c([H])c(-c2sc3c([H])c(O[H])c([H])c([H])c3c2C(=O)c2c([H])c([H])c(OC([H])([H])C([H])([H])N([H])C([H])([H])C([H])([H])C([H])([H])C([H])([H])C([H])([H])C([H])([H])C([H])([H])C([H])([H])C([H])([H])C([H])([H])C([H])([H])C([H])([H])C([H])([H])C([H])([H])C([H])([H])C([H])([H])[H])c([H])c2[H])c([H])c1[H]


 48 51  0  0  0  0  0  0  0  0999 V2000
   11.4535   44.1631  135.3279 C   0  0  0  0  0  0  0  0  0  0  0  0
   10.1766   44.7616  135.4661 C   0  0  0  0  0  0  0  0  0  0  0  0
    9.8135   45.7621  134.6136 C   0  0  0  0  0  0  0  0  0  0  0  0
   10.6101   46.2471  133.6030 C   0  0  0  0  0  0  0  0  0  0  0  0
   11.8393   45.6641  133.4803 C   0  0  0  0  0  0  0  0  0  0  0  0
   12.2551   44.6313  134.3356 C   0  0  0  0  0  0  0  0  0  0  0  0
   10.0820   47.2473  132.7515 C   0  0  0  0  0  0  0  0  0  0  0  0
   10.3092   48.4732  133.1188 O   0  0  0  0  0  0  0  0  0  0  0  0
    9.3033   47.0878  131.4771 C   0  0  0  0  0  0  0  0  0  0  0  0
    9.1134   45.8916  130.8612 C   0  0  0  0  0  0  0  0  0  0  0  0
    8.1648   46.3179  129.4690 S   0  0  0  0  0  0  0  0  0  0  0  0
    8.0402   47.9918  129.7240 C   0  0  0  0  0  0  0  0  0  0  0  0
    7.3933   49.0181  129.0155 C   0  0  0  0  0  0  0  0  0  0  0  0
    7.4487   50.3282  129.4958 C   0  0  0  0  0  0  0  0  0  0  0  0
    6.8006   51.3221  128.7812 O   0  0  0  0  0  0  0  0  0  0  0  0
    8.1482   50.5236  130.6491 C   0  0  0  0  0  0  0  0  0  0  0  0
    8.7737   49.5164  131.3302 C   0  0  0  0  0  0  0  0  0  0  0  0
    8.7331   48.1866  130.8715 C   0  0  0  0  0  0  0  0  0  0  0  0
    7.2474   51.8333  128.0621 H   0  0  0  0  0  0  0  0  0  0  0  0
    9.5438   44.5175  131.1538 C   0  0  0  0  0  0  0  0  0  0  0  0
    8.8784   43.5977  131.8752 C   0  0  0  0  0  0  0  0  0  0  0  0
    9.4440   42.3667  132.1344 C   0  0  0  0  0  0  0  0  0  0  0  0
   10.6885   42.0125  131.6846 C   0  0  0  0  0  0  0  0  0  0  0  0
   11.2416   40.7719  131.9565 O   0  0  0  0  0  0  0  0  0  0  0  0
   11.3708   42.9611  130.9415 C   0  0  0  0  0  0  0  0  0  0  0  0
   10.8200   44.1878  130.6773 C   0  0  0  0  0  0  0  0  0  0  0  0
   11.0972   39.9786  131.3308 H   0  0  0  0  0  0  0  0  0  0  0  0
   11.7376   43.1918  136.2041 O   0  0  0  0  0  0  0  0  0  0  0  0
   12.2898   43.0421  137.4390 C   0  0  0  0  0  0  0  0  0  0  0  0
   13.6056   42.2859  137.4030 C   0  0  0  0  0  0  0  0  0  0  0  0
   14.4477   42.3324  138.5169 N   0  0  0  0  0  0  0  0  0  0  0  0
   14.6305   43.2382  138.9326 H   0  0  0  0  0  0  0  0  0  0  0  0
   15.5053   41.4213  138.6541 C   0  0  0  0  0  0  0  0  0  0  0  0
   16.7833   41.6967  138.0010 C   0  0  0  0  0  0  0  0  0  0  0  0
   17.7722   42.6641  138.4564 C   0  0  0  0  0  0  0  0  0  0  0  0
   19.2047   42.4601  138.2890 C   0  0  0  0  0  0  0  0  0  0  0  0
   19.7465   41.1516  137.8364 C   0  0  0  0  0  0  0  0  0  0  0  0
   21.2078   41.0040  138.2449 C   0  0  0  0  0  0  0  0  0  0  0  0
   21.2987   40.3466  139.5798 C   0  0  0  0  0  0  0  0  0  0  0  0
   21.5533   41.3504  140.6687 C   0  0  0  0  0  0  0  0  0  0  0  0
   21.0999   40.8457  141.9978 C   0  0  0  0  0  0  0  0  0  0  0  0
   19.8717   41.5781  142.4451 C   0  0  0  0  0  0  0  0  0  0  0  0
   18.6949   40.6875  142.6246 C   0  0  0  0  0  0  0  0  0  0  0  0
   17.9733   40.3632  141.3217 C   0  0  0  0  0  0  0  0  0  0  0  0
   18.1207   38.9416  140.9388 C   0  0  0  0  0  0  0  0  0  0  0  0
   17.7640   38.5411  139.5748 C   0  0  0  0  0  0  0  0  0  0  0  0
   19.5694   37.4468  138.1859 C   0  0  0  0  0  0  0  0  0  0  0  0
   18.3400   37.3222  138.9769 C   0  0  0  0  0  0  0  0  0  0  0  0
 47 48  1  0  0  0
 48 46  1  0  0  0
 46 45  1  0  0  0
 45 44  1  0  0  0
 44 43  1  0  0  0
 43 42  1  0  0  0
 42 41  1  0  0  0
 41 40  1  0  0  0
 40 39  1  0  0  0
 39 38  1  0  0  0
 38 37  1  0  0  0
 37 36  1  0  0  0
 36 35  1  0  0  0
 35 34  1  0  0  0
 34 33  1  0  0  0
 33 31  1  0  0  0
 31 30  1  0  0  0
 30 29  1  0  0  0
 29 28  1  0  0  0
 28  1  1  0  0  0
  1  2  2  0  0  0
  2  3  1  0  0  0
  3  4  2  0  0  0
  4  5  1  0  0  0
  5  6  2  0  0  0
  4  7  1  0  0  0
  7  8  2  0  0  0
  7  9  1  0  0  0
  9 10  2  0  0  0
 10 11  1  0  0  0
 11 12  1  0  0  0
 12 13  2  0  0  0
 13 14  1  0  0  0
 14 15  1  0  0  0
 14 16  2  0  0  0
 16 17  1  0  0  0
 17 18  2  0  0  0
 10 20  1  0  0  0
 20 21  2  0  0  0
 21 22  1  0  0  0
 22 23  2  0  0  0
 23 24  1  0  0  0
 23 25  1  0  0  0
 25 26  2  0  0  0
  6  1  1  0  0  0
 18  9  1  0  0  0
 26 20  1  0  0  0
 18 12  1  0  0  0
 31 32  1  0  0  0
 15 19  1  0  0  0
 24 27  1  0  0  0
M  END
> <minimizedAffinity>
0.41387

> <CNNscore>
0.3254090548

> <CNNaffinity>
7.8683290482

> <CNN_VS>
2.5604255199

> <CNNaffinity_variance>
0.5600073338

$$$$
[H]Oc1c([H])c([H])c(-c2sc3c([H])c(O[H])c([H])c([H])c3c2C(=O)c2c([H])c([H])c(OC([H])([H])C([H])([H])N([H])C([H])([H])C([H])([H])C([H])([H])C([H])([H])C([H])([H])C([H])([H])C([H])([H])C([H])([H])C([H])([H])C([H])([H])C([H])([H])C([H])([H])C([H])([H])C([H])([H])C([H])([H])C([H])([H])[H])c([H])c2[H])c([H])c1[H]


 48 51  0  0  0  0  0  0  0  0999 V2000
   11.2846   44.2329  135.4144 C   0  0  0  0  0  0  0  0  0  0  0  0
   11.9948   44.6300  134.2543 C   0  0  0  0  0  0  0  0  0  0  0  0
   11.4652   45.5911  133.4447 C   0  0  0  0  0  0  0  0  0  0  0  0
   10.2650   46.2224  133.6731 C   0  0  0  0  0  0  0  0  0  0  0  0
    9.5883   45.8305  134.7931 C   0  0  0  0  0  0  0  0  0  0  0  0
   10.0955   44.8449  135.6549 C   0  0  0  0  0  0  0  0  0  0  0  0
    9.8642   47.2476  132.7828 C   0  0  0  0  0  0  0  0  0  0  0  0
   10.1175   48.4608  133.1745 O   0  0  0  0  0  0  0  0  0  0  0  0
    9.1949   47.1270  131.4436 C   0  0  0  0  0  0  0  0  0  0  0  0
    9.0763   45.9530  130.7697 C   0  0  0  0  0  0  0  0  0  0  0  0
    8.2374   46.4198  129.3212 S   0  0  0  0  0  0  0  0  0  0  0  0
    8.0640   48.0807  129.6277 C   0  0  0  0  0  0  0  0  0  0  0  0
    7.4599   49.1246  128.9075 C   0  0  0  0  0  0  0  0  0  0  0  0
    7.4536   50.4158  129.4395 C   0  0  0  0  0  0  0  0  0  0  0  0
    6.8492   51.4277  128.7119 O   0  0  0  0  0  0  0  0  0  0  0  0
    8.0532   50.5760  130.6529 C   0  0  0  0  0  0  0  0  0  0  0  0
    8.6380   49.5518  131.3448 C   0  0  0  0  0  0  0  0  0  0  0  0
    8.6576   48.2405  130.8349 C   0  0  0  0  0  0  0  0  0  0  0  0
    7.3445   51.9724  128.0516 H   0  0  0  0  0  0  0  0  0  0  0  0
    9.5046   44.5746  131.0450 C   0  0  0  0  0  0  0  0  0  0  0  0
    8.8322   43.6431  131.7445 C   0  0  0  0  0  0  0  0  0  0  0  0
    9.3960   42.4085  131.9900 C   0  0  0  0  0  0  0  0  0  0  0  0
   10.6455   42.0622  131.5480 C   0  0  0  0  0  0  0  0  0  0  0  0
   11.1966   40.8177  131.8060 O   0  0  0  0  0  0  0  0  0  0  0  0
   11.3349   43.0229  130.8274 C   0  0  0  0  0  0  0  0  0  0  0  0
   10.7861   44.2534  130.5770 C   0  0  0  0  0  0  0  0  0  0  0  0
   11.0595   40.0344  131.1662 H   0  0  0  0  0  0  0  0  0  0  0  0
   11.8672   43.2823  136.1550 O   0  0  0  0  0  0  0  0  0  0  0  0
   12.2538   43.0657  137.4419 C   0  0  0  0  0  0  0  0  0  0  0  0
   13.4467   42.1325  137.5445 C   0  0  0  0  0  0  0  0  0  0  0  0
   14.4023   42.3566  138.5389 N   0  0  0  0  0  0  0  0  0  0  0  0
   14.3199   43.2029  139.0901 H   0  0  0  0  0  0  0  0  0  0  0  0
   15.7223   41.9108  138.3777 C   0  0  0  0  0  0  0  0  0  0  0  0
   16.1094   40.6011  138.8981 C   0  0  0  0  0  0  0  0  0  0  0  0
   16.3121   39.4016  138.0974 C   0  0  0  0  0  0  0  0  0  0  0  0
   17.5596   38.6497  138.1121 C   0  0  0  0  0  0  0  0  0  0  0  0
   18.4545   38.6696  139.2993 C   0  0  0  0  0  0  0  0  0  0  0  0
   19.8970   38.3945  138.8903 C   0  0  0  0  0  0  0  0  0  0  0  0
   20.1574   38.9573  137.5345 C   0  0  0  0  0  0  0  0  0  0  0  0
   21.4426   39.7353  137.5018 C   0  0  0  0  0  0  0  0  0  0  0  0
   21.3142   41.0381  138.2180 C   0  0  0  0  0  0  0  0  0  0  0  0
   20.1562   41.8209  137.6780 C   0  0  0  0  0  0  0  0  0  0  0  0
   19.2747   42.3675  138.7431 C   0  0  0  0  0  0  0  0  0  0  0  0
   19.8748   42.2657  140.1406 C   0  0  0  0  0  0  0  0  0  0  0  0
   18.9078   41.7374  141.1281 C   0  0  0  0  0  0  0  0  0  0  0  0
   17.7769   42.5813  141.5245 C   0  0  0  0  0  0  0  0  0  0  0  0
   17.0343   44.7231  140.4077 C   0  0  0  0  0  0  0  0  0  0  0  0
   17.8625   44.0494  141.4142 C   0  0  0  0  0  0  0  0  0  0  0  0
 47 48  1  0  0  0
 48 46  1  0  0  0
 46 45  1  0  0  0
 45 44  1  0  0  0
 44 43  1  0  0  0
 43 42  1  0  0  0
 42 41  1  0  0  0
 41 40  1  0  0  0
 40 39  1  0  0  0
 39 38  1  0  0  0
 38 37  1  0  0  0
 37 36  1  0  0  0
 36 35  1  0  0  0
 35 34  1  0  0  0
 34 33  1  0  0  0
 33 31  1  0  0  0
 31 30  1  0  0  0
 30 29  1  0  0  0
 29 28  1  0  0  0
 28  1  1  0  0  0
  1  2  2  0  0  0
  2  3  1  0  0  0
  3  4  2  0  0  0
  4  5  1  0  0  0
  5  6  2  0  0  0
  4  7  1  0  0  0
  7  8  2  0  0  0
  7  9  1  0  0  0
  9 10  2  0  0  0
 10 11  1  0  0  0
 11 12  1  0  0  0
 12 13  2  0  0  0
 13 14  1  0  0  0
 14 15  1  0  0  0
 14 16  2  0  0  0
 16 17  1  0  0  0
 17 18  2  0  0  0
 10 20  1  0  0  0
 20 21  2  0  0  0
 21 22  1  0  0  0
 22 23  2  0  0  0
 23 24  1  0  0  0
 23 25  1  0  0  0
 25 26  2  0  0  0
  6  1  1  0  0  0
 18  9  1  0  0  0
 26 20  1  0  0  0
 18 12  1  0  0  0
 31 32  1  0  0  0
 15 19  1  0  0  0
 24 27  1  0  0  0
M  END
> <minimizedAffinity>
0.15164

> <CNNscore>
0.3202810884

> <CNNaffinity>
7.9604926109

> <CNN_VS>
2.5495953560

> <CNNaffinity_variance>
0.5653393269

$$$$
[H]Oc1c([H])c([H])c(-c2sc3c([H])c(O[H])c([H])c([H])c3c2C(=O)c2c([H])c([H])c(OC([H])([H])C([H])([H])N([H])C([H])([H])C([H])([H])C([H])([H])C([H])([H])C([H])([H])C([H])([H])C([H])([H])C([H])([H])C([H])([H])C([H])([H])C([H])([H])C([H])([H])C([H])([H])C([H])([H])C([H])([H])C([H])([H])[H])c([H])c2[H])c([H])c1[H]


 48 51  0  0  0  0  0  0  0  0999 V2000
   11.4075   44.1708  135.2605 C   0  0  0  0  0  0  0  0  0  0  0  0
   10.1057   44.7225  135.3541 C   0  0  0  0  0  0  0  0  0  0  0  0
    9.7458   45.7292  134.5075 C   0  0  0  0  0  0  0  0  0  0  0  0
   10.5687   46.2635  133.5440 C   0  0  0  0  0  0  0  0  0  0  0  0
   11.8217   45.7254  133.4641 C   0  0  0  0  0  0  0  0  0  0  0  0
   12.2352   44.6882  134.3152 C   0  0  0  0  0  0  0  0  0  0  0  0
   10.0441   47.2643  132.6910 C   0  0  0  0  0  0  0  0  0  0  0  0
   10.2614   48.4899  133.0652 O   0  0  0  0  0  0  0  0  0  0  0  0
    9.2790   47.1058  131.4082 C   0  0  0  0  0  0  0  0  0  0  0  0
    9.0995   45.9106  130.7872 C   0  0  0  0  0  0  0  0  0  0  0  0
    8.1638   46.3377  129.3865 S   0  0  0  0  0  0  0  0  0  0  0  0
    8.0310   48.0104  129.6447 C   0  0  0  0  0  0  0  0  0  0  0  0
    7.3880   49.0365  128.9326 C   0  0  0  0  0  0  0  0  0  0  0  0
    7.4340   50.3455  129.4169 C   0  0  0  0  0  0  0  0  0  0  0  0
    6.7899   51.3392  128.6985 O   0  0  0  0  0  0  0  0  0  0  0  0
    8.1210   50.5400  130.5779 C   0  0  0  0  0  0  0  0  0  0  0  0
    8.7429   49.5330  131.2625 C   0  0  0  0  0  0  0  0  0  0  0  0
    8.7115   48.2044  130.7999 C   0  0  0  0  0  0  0  0  0  0  0  0
    7.2424   51.8539  127.9854 H   0  0  0  0  0  0  0  0  0  0  0  0
    9.5315   44.5372  131.0804 C   0  0  0  0  0  0  0  0  0  0  0  0
    8.8520   43.6061  131.7737 C   0  0  0  0  0  0  0  0  0  0  0  0
    9.4191   42.3770  132.0387 C   0  0  0  0  0  0  0  0  0  0  0  0
   10.6790   42.0360  131.6231 C   0  0  0  0  0  0  0  0  0  0  0  0
   11.2332   40.7971  131.9005 O   0  0  0  0  0  0  0  0  0  0  0  0
   11.3758   42.9962  130.9089 C   0  0  0  0  0  0  0  0  0  0  0  0
   10.8238   44.2212  130.6393 C   0  0  0  0  0  0  0  0  0  0  0  0
   11.1135   40.0084  131.2638 H   0  0  0  0  0  0  0  0  0  0  0  0
   11.6865   43.1901  136.1278 O   0  0  0  0  0  0  0  0  0  0  0  0
   12.2698   43.0218  137.3460 C   0  0  0  0  0  0  0  0  0  0  0  0
   13.6777   42.4628  137.2473 C   0  0  0  0  0  0  0  0  0  0  0  0
   14.3172   42.0211  138.4084 N   0  0  0  0  0  0  0  0  0  0  0  0
   13.9211   42.2972  139.2992 H   0  0  0  0  0  0  0  0  0  0  0  0
   15.7082   41.8432  138.4368 C   0  0  0  0  0  0  0  0  0  0  0  0
   16.2739   40.6964  139.1444 C   0  0  0  0  0  0  0  0  0  0  0  0
   16.4327   40.5907  140.5883 C   0  0  0  0  0  0  0  0  0  0  0  0
   17.4711   39.7772  141.2062 C   0  0  0  0  0  0  0  0  0  0  0  0
   17.5377   38.3102  140.9738 C   0  0  0  0  0  0  0  0  0  0  0  0
   16.2334   37.6398  141.3900 C   0  0  0  0  0  0  0  0  0  0  0  0
   15.8948   36.5479  140.4332 C   0  0  0  0  0  0  0  0  0  0  0  0
   14.9768   37.0354  139.3479 C   0  0  0  0  0  0  0  0  0  0  0  0
   15.6663   37.0823  138.0254 C   0  0  0  0  0  0  0  0  0  0  0  0
   16.8809   36.2049  138.0364 C   0  0  0  0  0  0  0  0  0  0  0  0
   18.1287   36.9324  137.6843 C   0  0  0  0  0  0  0  0  0  0  0  0
   17.8793   38.2982  137.0552 C   0  0  0  0  0  0  0  0  0  0  0  0
   19.1341   39.0505  136.8342 C   0  0  0  0  0  0  0  0  0  0  0  0
   19.8581   39.5665  137.9994 C   0  0  0  0  0  0  0  0  0  0  0  0
   20.4186   41.4370  139.6035 C   0  0  0  0  0  0  0  0  0  0  0  0
   19.7744   40.9935  138.3621 C   0  0  0  0  0  0  0  0  0  0  0  0
 47 48  1  0  0  0
 48 46  1  0  0  0
 46 45  1  0  0  0
 45 44  1  0  0  0
 44 43  1  0  0  0
 43 42  1  0  0  0
 42 41  1  0  0  0
 41 40  1  0  0  0
 40 39  1  0  0  0
 39 38  1  0  0  0
 38 37  1  0  0  0
 37 36  1  0  0  0
 36 35  1  0  0  0
 35 34  1  0  0  0
 34 33  1  0  0  0
 33 31  1  0  0  0
 31 30  1  0  0  0
 30 29  1  0  0  0
 29 28  1  0  0  0
 28  1  1  0  0  0
  1  2  2  0  0  0
  2  3  1  0  0  0
  3  4  2  0  0  0
  4  5  1  0  0  0
  5  6  2  0  0  0
  4  7  1  0  0  0
  7  8  2  0  0  0
  7  9  1  0  0  0
  9 10  2  0  0  0
 10 11  1  0  0  0
 11 12  1  0  0  0
 12 13  2  0  0  0
 13 14  1  0  0  0
 14 15  1  0  0  0
 14 16  2  0  0  0
 16 17  1  0  0  0
 17 18  2  0  0  0
 10 20  1  0  0  0
 20 21  2  0  0  0
 21 22  1  0  0  0
 22 23  2  0  0  0
 23 24  1  0  0  0
 23 25  1  0  0  0
 25 26  2  0  0  0
  6  1  1  0  0  0
 18  9  1  0  0  0
 26 20  1  0  0  0
 18 12  1  0  0  0
 31 32  1  0  0  0
 15 19  1  0  0  0
 24 27  1  0  0  0
M  END
> <minimizedAffinity>
0.42926

> <CNNscore>
0.3169331253

> <CNNaffinity>
8.0093402863

> <CNN_VS>
2.5384252071

> <CNNaffinity_variance>
0.5979162455

$$$$
[H]Oc1c([H])c([H])c(-c2sc3c([H])c(O[H])c([H])c([H])c3c2C(=O)c2c([H])c([H])c(OC([H])([H])C([H])([H])N([H])C([H])([H])C([H])([H])C([H])([H])C([H])([H])C([H])([H])C([H])([H])C([H])([H])C([H])([H])C([H])([H])C([H])([H])C([H])([H])C([H])([H])C([H])([H])C([H])([H])C([H])([H])C([H])([H])[H])c([H])c2[H])c([H])c1[H]


 48 51  0  0  0  0  0  0  0  0999 V2000
   11.5302   44.2774  135.1497 C   0  0  0  0  0  0  0  0  0  0  0  0
   10.2293   44.8127  135.3193 C   0  0  0  0  0  0  0  0  0  0  0  0
    9.8106   45.8195  134.5003 C   0  0  0  0  0  0  0  0  0  0  0  0
   10.5719   46.3690  133.4955 C   0  0  0  0  0  0  0  0  0  0  0  0
   11.8247   45.8465  133.3423 C   0  0  0  0  0  0  0  0  0  0  0  0
   12.2975   44.8098  134.1627 C   0  0  0  0  0  0  0  0  0  0  0  0
    9.9885   47.3679  132.6792 C   0  0  0  0  0  0  0  0  0  0  0  0
   10.1450   48.5905  133.0916 O   0  0  0  0  0  0  0  0  0  0  0  0
    9.2215   47.2109  131.3974 C   0  0  0  0  0  0  0  0  0  0  0  0
    9.0390   46.0162  130.7764 C   0  0  0  0  0  0  0  0  0  0  0  0
    8.1023   46.4451  129.3770 S   0  0  0  0  0  0  0  0  0  0  0  0
    7.9728   48.1181  129.6356 C   0  0  0  0  0  0  0  0  0  0  0  0
    7.3308   49.1454  128.9244 C   0  0  0  0  0  0  0  0  0  0  0  0
    7.3799   50.4542  129.4088 C   0  0  0  0  0  0  0  0  0  0  0  0
    6.7367   51.4492  128.6913 O   0  0  0  0  0  0  0  0  0  0  0  0
    8.0687   50.6473  130.5689 C   0  0  0  0  0  0  0  0  0  0  0  0
    8.6896   49.6391  131.2527 C   0  0  0  0  0  0  0  0  0  0  0  0
    8.6552   48.3106  130.7899 C   0  0  0  0  0  0  0  0  0  0  0  0
    7.1892   51.9631  127.9777 H   0  0  0  0  0  0  0  0  0  0  0  0
    9.4688   44.6419  131.0690 C   0  0  0  0  0  0  0  0  0  0  0  0
    8.8064   43.7247  131.7963 C   0  0  0  0  0  0  0  0  0  0  0  0
    9.3715   42.4932  132.0543 C   0  0  0  0  0  0  0  0  0  0  0  0
   10.6125   42.1359  131.5974 C   0  0  0  0  0  0  0  0  0  0  0  0
   11.1651   40.8948  131.8682 O   0  0  0  0  0  0  0  0  0  0  0  0
   11.2917   43.0818  130.8481 C   0  0  0  0  0  0  0  0  0  0  0  0
   10.7415   44.3091  130.5851 C   0  0  0  0  0  0  0  0  0  0  0  0
   11.0154   40.1006  131.2449 H   0  0  0  0  0  0  0  0  0  0  0  0
   11.8689   43.2955  135.9941 O   0  0  0  0  0  0  0  0  0  0  0  0
   12.0957   43.1065  137.3227 C   0  0  0  0  0  0  0  0  0  0  0  0
   13.2585   42.1678  137.5892 C   0  0  0  0  0  0  0  0  0  0  0  0
   14.2785   42.5761  138.4524 N   0  0  0  0  0  0  0  0  0  0  0  0
   14.4375   43.5713  138.5573 H   0  0  0  0  0  0  0  0  0  0  0  0
   15.4330   41.7967  138.6167 C   0  0  0  0  0  0  0  0  0  0  0  0
   16.7483   42.4203  138.4863 C   0  0  0  0  0  0  0  0  0  0  0  0
   17.8842   41.8524  137.7734 C   0  0  0  0  0  0  0  0  0  0  0  0
   19.1937   41.6858  138.3893 C   0  0  0  0  0  0  0  0  0  0  0  0
   20.4275   42.1652  137.7122 C   0  0  0  0  0  0  0  0  0  0  0  0
   21.5859   41.2064  137.9630 C   0  0  0  0  0  0  0  0  0  0  0  0
   21.0700   39.8173  138.1266 C   0  0  0  0  0  0  0  0  0  0  0  0
   21.3467   38.9829  136.9079 C   0  0  0  0  0  0  0  0  0  0  0  0
   20.0890   38.4362  136.3195 C   0  0  0  0  0  0  0  0  0  0  0  0
   19.1018   38.1148  137.3999 C   0  0  0  0  0  0  0  0  0  0  0  0
   17.7093   38.5017  137.0511 C   0  0  0  0  0  0  0  0  0  0  0  0
   16.6925   38.1526  138.1316 C   0  0  0  0  0  0  0  0  0  0  0  0
   17.3277   37.9419  139.4512 C   0  0  0  0  0  0  0  0  0  0  0  0
   17.1953   38.9877  140.4694 C   0  0  0  0  0  0  0  0  0  0  0  0
   18.2447   40.8570  141.8076 C   0  0  0  0  0  0  0  0  0  0  0  0
   18.3923   39.5864  141.0888 C   0  0  0  0  0  0  0  0  0  0  0  0
 47 48  1  0  0  0
 48 46  1  0  0  0
 46 45  1  0  0  0
 45 44  1  0  0  0
 44 43  1  0  0  0
 43 42  1  0  0  0
 42 41  1  0  0  0
 41 40  1  0  0  0
 40 39  1  0  0  0
 39 38  1  0  0  0
 38 37  1  0  0  0
 37 36  1  0  0  0
 36 35  1  0  0  0
 35 34  1  0  0  0
 34 33  1  0  0  0
 33 31  1  0  0  0
 31 30  1  0  0  0
 30 29  1  0  0  0
 29 28  1  0  0  0
 28  1  1  0  0  0
  1  2  2  0  0  0
  2  3  1  0  0  0
  3  4  2  0  0  0
  4  5  1  0  0  0
  5  6  2  0  0  0
  4  7  1  0  0  0
  7  8  2  0  0  0
  7  9  1  0  0  0
  9 10  2  0  0  0
 10 11  1  0  0  0
 11 12  1  0  0  0
 12 13  2  0  0  0
 13 14  1  0  0  0
 14 15  1  0  0  0
 14 16  2  0  0  0
 16 17  1  0  0  0
 17 18  2  0  0  0
 10 20  1  0  0  0
 20 21  2  0  0  0
 21 22  1  0  0  0
 22 23  2  0  0  0
 23 24  1  0  0  0
 23 25  1  0  0  0
 25 26  2  0  0  0
  6  1  1  0  0  0
 18  9  1  0  0  0
 26 20  1  0  0  0
 18 12  1  0  0  0
 31 32  1  0  0  0
 15 19  1  0  0  0
 24 27  1  0  0  0
M  END
> <minimizedAffinity>
-0.08952

> <CNNscore>
0.2966629267

> <CNNaffinity>
7.9017982483

> <CNN_VS>
2.3441705704

> <CNNaffinity_variance>
0.4931832254

$$$$
[H]c1c(F)c(OC([H])([H])[H])c([C@]2([H])c3c(c4c([H])c([H])c([H])c([H])c4n3[H])C([H])([H])[C@@]([H])(C([H])([H])[H])N2C([H])([H])C(F)(F)F)c([H])c1OC([H])([H])C([H])([H])N([H])C([H])([H])C([H])([H])C([H])([H])F


 38 41  0  0  0  0  0  0  0  0999 V2000
    9.9384   46.2613  131.5935 C   0  0  0  0  0  0  0  0  0  0  0  0
    9.4777   45.5893  132.8266 N   0  0  0  0  0  0  0  0  0  0  0  0
    9.8591   44.2459  132.7524 C   0  0  0  0  0  0  0  0  0  0  0  0
    9.1237   43.2035  133.4882 C   0  0  0  0  0  0  0  0  0  0  0  0
   11.3783   44.0569  132.8603 C   0  0  0  0  0  0  0  0  0  0  0  0
   11.8524   44.5857  131.5530 C   0  0  0  0  0  0  0  0  0  0  0  0
   11.1075   45.6152  130.9821 C   0  0  0  0  0  0  0  0  0  0  0  0
   11.6804   45.9300  129.7774 N   0  0  0  0  0  0  0  0  0  0  0  0
   12.7435   45.1447  129.5813 C   0  0  0  0  0  0  0  0  0  0  0  0
   13.6650   45.0265  128.5760 C   0  0  0  0  0  0  0  0  0  0  0  0
   14.6985   44.0976  128.6317 C   0  0  0  0  0  0  0  0  0  0  0  0
   14.7897   43.2854  129.7215 C   0  0  0  0  0  0  0  0  0  0  0  0
   13.8925   43.3671  130.7496 C   0  0  0  0  0  0  0  0  0  0  0  0
   12.8574   44.3097  130.6757 C   0  0  0  0  0  0  0  0  0  0  0  0
   11.3655   46.6623  129.0788 H   0  0  0  0  0  0  0  0  0  0  0  0
    8.4025   45.6709  129.7245 C   0  0  0  0  0  0  0  0  0  0  0  0
    7.3550   46.0129  128.8980 C   0  0  0  0  0  0  0  0  0  0  0  0
    6.9407   45.1048  127.9675 F   0  0  0  0  0  0  0  0  0  0  0  0
    6.7179   47.2290  128.9773 C   0  0  0  0  0  0  0  0  0  0  0  0
    7.1142   48.1565  129.8999 C   0  0  0  0  0  0  0  0  0  0  0  0
    8.1698   47.8066  130.7303 C   0  0  0  0  0  0  0  0  0  0  0  0
    8.8281   46.5972  130.6771 C   0  0  0  0  0  0  0  0  0  0  0  0
    8.4251   43.2026  129.9615 C   0  0  0  0  0  0  0  0  0  0  0  0
    9.0094   44.4102  129.5844 O   0  0  0  0  0  0  0  0  0  0  0  0
    6.4838   49.4059  130.0039 O   0  0  0  0  0  0  0  0  0  0  0  0
    7.1244   50.4899  130.6601 C   0  0  0  0  0  0  0  0  0  0  0  0
    7.1872   51.6606  129.7030 C   0  0  0  0  0  0  0  0  0  0  0  0
    7.0118   51.1777  128.3458 N   0  0  0  0  0  0  0  0  0  0  0  0
    6.1152   50.6703  128.2259 H   0  0  0  0  0  0  0  0  0  0  0  0
    7.1011   52.2200  127.3713 C   0  0  0  0  0  0  0  0  0  0  0  0
    7.1974   53.5768  128.0317 C   0  0  0  0  0  0  0  0  0  0  0  0
    7.5779   54.5642  126.9344 C   0  0  0  0  0  0  0  0  0  0  0  0
    7.6524   53.8975  125.7240 F   0  0  0  0  0  0  0  0  0  0  0  0
    9.7708   46.4109  133.9192 C   0  0  0  0  0  0  0  0  0  0  0  0
    8.7352   46.9145  134.8401 C   0  0  0  0  0  0  0  0  0  0  0  0
    7.6361   46.1259  135.0441 F   0  0  0  0  0  0  0  0  0  0  0  0
    9.2685   47.1025  136.1400 F   0  0  0  0  0  0  0  0  0  0  0  0
    8.2943   48.1928  134.4958 F   0  0  0  0  0  0  0  0  0  0  0  0
 23 24  1  0  0  0
 24 16  1  0  0  0
 16 17  2  0  0  0
 17 18  1  0  0  0
 17 19  1  0  0  0
 19 20  2  0  0  0
 20 25  1  0  0  0
 25 26  1  0  0  0
 26 27  1  0  0  0
 27 28  1  0  0  0
 28 30  1  0  0  0
 30 31  1  0  0  0
 31 32  1  0  0  0
 32 33  1  0  0  0
 20 21  1  0  0  0
 21 22  2  0  0  0
 22  1  1  0  0  0
  1  2  1  0  0  0
  2 34  1  0  0  0
 34 35  1  0  0  0
 35 36  1  0  0  0
 35 37  1  0  0  0
 35 38  1  0  0  0
  2  3  1  0  0  0
  3  4  1  0  0  0
  3  5  1  0  0  0
  5  6  1  0  0  0
  6  7  2  0  0  0
  7  8  1  0  0  0
  8  9  1  0  0  0
  9 10  2  0  0  0
 10 11  1  0  0  0
 11 12  2  0  0  0
 12 13  1  0  0  0
 13 14  2  0  0  0
 22 16  1  0  0  0
  7  1  1  0  0  0
 14  9  1  0  0  0
 14  6  1  0  0  0
 28 29  1  0  0  0
  8 15  1  0  0  0
M  END
> <minimizedAffinity>
5.46826

> <CNNscore>
0.4071454704

> <CNNaffinity>
7.8860006332

> <CNN_VS>
3.2107493877

> <CNNaffinity_variance>
1.0233252048

$$$$
[H]c1c(F)c(OC([H])([H])[H])c([C@]2([H])c3c(c4c([H])c([H])c([H])c([H])c4n3[H])C([H])([H])[C@@]([H])(C([H])([H])[H])N2C([H])([H])C(F)(F)F)c([H])c1OC([H])([H])C([H])([H])N([H])C([H])([H])C([H])([H])C([H])([H])F


 38 41  0  0  0  0  0  0  0  0999 V2000
   10.3406   46.3647  132.0752 C   0  0  0  0  0  0  0  0  0  0  0  0
    9.7847   45.8057  133.3253 N   0  0  0  0  0  0  0  0  0  0  0  0
    8.8106   44.8638  132.9794 C   0  0  0  0  0  0  0  0  0  0  0  0
    7.7087   44.5345  133.8992 C   0  0  0  0  0  0  0  0  0  0  0  0
    9.4082   43.6075  132.3313 C   0  0  0  0  0  0  0  0  0  0  0  0
    9.8341   44.1156  130.9994 C   0  0  0  0  0  0  0  0  0  0  0  0
   10.2384   45.4470  130.9327 C   0  0  0  0  0  0  0  0  0  0  0  0
   10.5499   45.7264  129.6275 N   0  0  0  0  0  0  0  0  0  0  0  0
   10.3586   44.6295  128.8888 C   0  0  0  0  0  0  0  0  0  0  0  0
   10.5092   44.3412  127.5592 C   0  0  0  0  0  0  0  0  0  0  0  0
   10.2304   43.0798  127.0444 C   0  0  0  0  0  0  0  0  0  0  0  0
    9.7951   42.1082  127.8943 C   0  0  0  0  0  0  0  0  0  0  0  0
    9.6296   42.3498  129.2296 C   0  0  0  0  0  0  0  0  0  0  0  0
    9.9158   43.6276  129.7302 C   0  0  0  0  0  0  0  0  0  0  0  0
   10.8847   46.6463  129.2211 H   0  0  0  0  0  0  0  0  0  0  0  0
   10.1347   48.7395  132.7957 C   0  0  0  0  0  0  0  0  0  0  0  0
    9.7326   50.0292  132.5268 C   0  0  0  0  0  0  0  0  0  0  0  0
    9.9550   50.9877  133.4722 F   0  0  0  0  0  0  0  0  0  0  0  0
    9.1188   50.3811  131.3475 C   0  0  0  0  0  0  0  0  0  0  0  0
    8.8837   49.4399  130.3847 C   0  0  0  0  0  0  0  0  0  0  0  0
    9.2911   48.1421  130.6607 C   0  0  0  0  0  0  0  0  0  0  0  0
    9.9089   47.7574  131.8308 C   0  0  0  0  0  0  0  0  0  0  0  0
   10.0733   48.1791  135.2106 C   0  0  0  0  0  0  0  0  0  0  0  0
   10.7534   48.4514  134.0251 O   0  0  0  0  0  0  0  0  0  0  0  0
    8.2589   49.7688  129.1720 O   0  0  0  0  0  0  0  0  0  0  0  0
    6.9464   50.3101  129.1548 C   0  0  0  0  0  0  0  0  0  0  0  0
    7.0456   51.8139  129.2940 C   0  0  0  0  0  0  0  0  0  0  0  0
    6.5739   52.4386  128.0720 N   0  0  0  0  0  0  0  0  0  0  0  0
    5.6381   52.8696  128.1913 H   0  0  0  0  0  0  0  0  0  0  0  0
    7.4848   53.4155  127.5623 C   0  0  0  0  0  0  0  0  0  0  0  0
    7.3994   53.5068  126.0554 C   0  0  0  0  0  0  0  0  0  0  0  0
    8.3065   54.6597  125.6412 C   0  0  0  0  0  0  0  0  0  0  0  0
    9.4419   54.1533  125.0332 F   0  0  0  0  0  0  0  0  0  0  0  0
   10.8402   45.5319  134.2002 C   0  0  0  0  0  0  0  0  0  0  0  0
   12.1858   45.1504  133.7335 C   0  0  0  0  0  0  0  0  0  0  0  0
   12.5617   45.5675  132.4860 F   0  0  0  0  0  0  0  0  0  0  0  0
   13.1831   45.6833  134.5884 F   0  0  0  0  0  0  0  0  0  0  0  0
   12.4065   43.7751  133.8159 F   0  0  0  0  0  0  0  0  0  0  0  0
 23 24  1  0  0  0
 24 16  1  0  0  0
 16 17  2  0  0  0
 17 18  1  0  0  0
 17 19  1  0  0  0
 19 20  2  0  0  0
 20 25  1  0  0  0
 25 26  1  0  0  0
 26 27  1  0  0  0
 27 28  1  0  0  0
 28 30  1  0  0  0
 30 31  1  0  0  0
 31 32  1  0  0  0
 32 33  1  0  0  0
 20 21  1  0  0  0
 21 22  2  0  0  0
 22  1  1  0  0  0
  1  2  1  0  0  0
  2 34  1  0  0  0
 34 35  1  0  0  0
 35 36  1  0  0  0
 35 37  1  0  0  0
 35 38  1  0  0  0
  2  3  1  0  0  0
  3  4  1  0  0  0
  3  5  1  0  0  0
  5  6  1  0  0  0
  6  7  2  0  0  0
  7  8  1  0  0  0
  8  9  1  0  0  0
  9 10  2  0  0  0
 10 11  1  0  0  0
 11 12  2  0  0  0
 12 13  1  0  0  0
 13 14  2  0  0  0
 22 16  1  0  0  0
  7  1  1  0  0  0
 14  9  1  0  0  0
 14  6  1  0  0  0
 28 29  1  0  0  0
  8 15  1  0  0  0
M  END
> <minimizedAffinity>
-1.02545

> <CNNscore>
0.3864444494

> <CNNaffinity>
7.6507897377

> <CNN_VS>
2.9566051960

> <CNNaffinity_variance>
0.3055348992

$$$$
[H]c1c(F)c(OC([H])([H])[H])c([C@]2([H])c3c(c4c([H])c([H])c([H])c([H])c4n3[H])C([H])([H])[C@@]([H])(C([H])([H])[H])N2C([H])([H])C(F)(F)F)c([H])c1OC([H])([H])C([H])([H])N([H])C([H])([H])C([H])([H])C([H])([H])F


 38 41  0  0  0  0  0  0  0  0999 V2000
   10.2927   45.6283  132.5999 C   0  0  0  0  0  0  0  0  0  0  0  0
   10.7846   44.3237  132.1096 N   0  0  0  0  0  0  0  0  0  0  0  0
   12.1825   44.3630  132.1112 C   0  0  0  0  0  0  0  0  0  0  0  0
   12.9697   43.5075  131.2073 C   0  0  0  0  0  0  0  0  0  0  0  0
   12.7706   44.3894  133.5286 C   0  0  0  0  0  0  0  0  0  0  0  0
   12.4220   45.7616  133.9858 C   0  0  0  0  0  0  0  0  0  0  0  0
   11.2448   46.3127  133.4849 C   0  0  0  0  0  0  0  0  0  0  0  0
   11.1262   47.5810  133.9909 N   0  0  0  0  0  0  0  0  0  0  0  0
   12.1733   47.8352  134.7810 C   0  0  0  0  0  0  0  0  0  0  0  0
   12.5604   48.9155  135.5273 C   0  0  0  0  0  0  0  0  0  0  0  0
   13.7313   48.9091  136.2774 C   0  0  0  0  0  0  0  0  0  0  0  0
   14.5104   47.7916  136.2641 C   0  0  0  0  0  0  0  0  0  0  0  0
   14.1644   46.6891  135.5338 C   0  0  0  0  0  0  0  0  0  0  0  0
   12.9802   46.7142  134.7838 C   0  0  0  0  0  0  0  0  0  0  0  0
   10.3541   48.2842  133.8097 H   0  0  0  0  0  0  0  0  0  0  0  0
    9.6493   45.9725  130.2190 C   0  0  0  0  0  0  0  0  0  0  0  0
    9.0699   46.7613  129.2499 C   0  0  0  0  0  0  0  0  0  0  0  0
    9.0276   46.2895  127.9701 F   0  0  0  0  0  0  0  0  0  0  0  0
    8.5372   47.9989  129.5255 C   0  0  0  0  0  0  0  0  0  0  0  0
    8.5676   48.4948  130.7988 C   0  0  0  0  0  0  0  0  0  0  0  0
    9.1523   47.6958  131.7714 C   0  0  0  0  0  0  0  0  0  0  0  0
    9.6936   46.4521  131.5284 C   0  0  0  0  0  0  0  0  0  0  0  0
   10.7674   44.4255  128.6359 C   0  0  0  0  0  0  0  0  0  0  0  0
   10.1773   44.7186  129.8639 O   0  0  0  0  0  0  0  0  0  0  0  0
    8.0328   49.7542  131.1103 O   0  0  0  0  0  0  0  0  0  0  0  0
    7.6950   50.6740  130.0827 C   0  0  0  0  0  0  0  0  0  0  0  0
    6.2429   51.0670  130.2487 C   0  0  0  0  0  0  0  0  0  0  0  0
    5.4460   50.3850  129.2457 N   0  0  0  0  0  0  0  0  0  0  0  0
    5.9506   50.2928  128.3443 H   0  0  0  0  0  0  0  0  0  0  0  0
    5.0012   49.0958  129.6746 C   0  0  0  0  0  0  0  0  0  0  0  0
    5.5590   48.0043  128.7892 C   0  0  0  0  0  0  0  0  0  0  0  0
    5.3176   46.6894  129.5218 C   0  0  0  0  0  0  0  0  0  0  0  0
    3.9558   46.4867  129.6620 F   0  0  0  0  0  0  0  0  0  0  0  0
   10.0449   43.3083  132.7232 C   0  0  0  0  0  0  0  0  0  0  0  0
    8.6219   43.0644  132.4235 C   0  0  0  0  0  0  0  0  0  0  0  0
    8.3211   42.4906  131.2186 F   0  0  0  0  0  0  0  0  0  0  0  0
    8.0530   42.1817  133.3755 F   0  0  0  0  0  0  0  0  0  0  0  0
    7.8451   44.2153  132.5619 F   0  0  0  0  0  0  0  0  0  0  0  0
 23 24  1  0  0  0
 24 16  1  0  0  0
 16 17  2  0  0  0
 17 18  1  0  0  0
 17 19  1  0  0  0
 19 20  2  0  0  0
 20 25  1  0  0  0
 25 26  1  0  0  0
 26 27  1  0  0  0
 27 28  1  0  0  0
 28 30  1  0  0  0
 30 31  1  0  0  0
 31 32  1  0  0  0
 32 33  1  0  0  0
 20 21  1  0  0  0
 21 22  2  0  0  0
 22  1  1  0  0  0
  1  2  1  0  0  0
  2 34  1  0  0  0
 34 35  1  0  0  0
 35 36  1  0  0  0
 35 37  1  0  0  0
 35 38  1  0  0  0
  2  3  1  0  0  0
  3  4  1  0  0  0
  3  5  1  0  0  0
  5  6  1  0  0  0
  6  7  2  0  0  0
  7  8  1  0  0  0
  8  9  1  0  0  0
  9 10  2  0  0  0
 10 11  1  0  0  0
 11 12  2  0  0  0
 12 13  1  0  0  0
 13 14  2  0  0  0
 22 16  1  0  0  0
  7  1  1  0  0  0
 14  9  1  0  0  0
 14  6  1  0  0  0
 28 29  1  0  0  0
  8 15  1  0  0  0
M  END
> <minimizedAffinity>
5.31295

> <CNNscore>
0.3785756528

> <CNNaffinity>
7.9376096725

> <CNN_VS>
3.0049858093

> <CNNaffinity_variance>
0.2256751060

$$$$
[H]c1c(F)c(OC([H])([H])[H])c([C@]2([H])c3c(c4c([H])c([H])c([H])c([H])c4n3[H])C([H])([H])[C@@]([H])(C([H])([H])[H])N2C([H])([H])C(F)(F)F)c([H])c1OC([H])([H])C([H])([H])N([H])C([H])([H])C([H])([H])C([H])([H])F


 38 41  0  0  0  0  0  0  0  0999 V2000
    9.4271   44.9858  131.5664 C   0  0  0  0  0  0  0  0  0  0  0  0
   10.3483   43.8341  131.4700 N   0  0  0  0  0  0  0  0  0  0  0  0
   11.3407   43.9947  132.4421 C   0  0  0  0  0  0  0  0  0  0  0  0
   12.6699   43.3811  132.2825 C   0  0  0  0  0  0  0  0  0  0  0  0
   10.8018   43.8262  133.8692 C   0  0  0  0  0  0  0  0  0  0  0  0
    9.9930   45.0625  134.0456 C   0  0  0  0  0  0  0  0  0  0  0  0
    9.3871   45.5870  132.9062 C   0  0  0  0  0  0  0  0  0  0  0  0
    8.7292   46.7330  133.2702 N   0  0  0  0  0  0  0  0  0  0  0  0
    8.8997   46.9369  134.5796 C   0  0  0  0  0  0  0  0  0  0  0  0
    8.4763   47.9010  135.4542 C   0  0  0  0  0  0  0  0  0  0  0  0
    8.8102   47.8671  136.8037 C   0  0  0  0  0  0  0  0  0  0  0  0
    9.5814   46.8414  137.2610 C   0  0  0  0  0  0  0  0  0  0  0  0
   10.0276   45.8563  136.4249 C   0  0  0  0  0  0  0  0  0  0  0  0
    9.6806   45.9073  135.0675 C   0  0  0  0  0  0  0  0  0  0  0  0
    8.1698   47.3866  132.6510 H   0  0  0  0  0  0  0  0  0  0  0  0
   10.2021   45.5194  129.2608 C   0  0  0  0  0  0  0  0  0  0  0  0
   10.3029   46.4190  128.2227 C   0  0  0  0  0  0  0  0  0  0  0  0
   10.9217   46.0171  127.0747 F   0  0  0  0  0  0  0  0  0  0  0  0
    9.8057   47.6986  128.3029 C   0  0  0  0  0  0  0  0  0  0  0  0
    9.1823   48.1263  129.4417 C   0  0  0  0  0  0  0  0  0  0  0  0
    9.0833   47.2157  130.4845 C   0  0  0  0  0  0  0  0  0  0  0  0
    9.5696   45.9273  130.4356 C   0  0  0  0  0  0  0  0  0  0  0  0
   12.0602   43.9522  128.7702 C   0  0  0  0  0  0  0  0  0  0  0  0
   10.7370   44.2277  129.1095 O   0  0  0  0  0  0  0  0  0  0  0  0
    8.6658   49.4262  129.5533 O   0  0  0  0  0  0  0  0  0  0  0  0
    7.8210   49.9609  128.5452 C   0  0  0  0  0  0  0  0  0  0  0  0
    6.9131   50.9935  129.1777 C   0  0  0  0  0  0  0  0  0  0  0  0
    5.5790   50.4382  129.3116 N   0  0  0  0  0  0  0  0  0  0  0  0
    5.0752   50.4126  128.4055 H   0  0  0  0  0  0  0  0  0  0  0  0
    5.5788   49.1316  129.8918 C   0  0  0  0  0  0  0  0  0  0  0  0
    5.5965   48.0610  128.8241 C   0  0  0  0  0  0  0  0  0  0  0  0
    5.4589   46.7271  129.5488 C   0  0  0  0  0  0  0  0  0  0  0  0
    4.1213   46.4804  129.8040 F   0  0  0  0  0  0  0  0  0  0  0  0
    9.5911   42.6669  131.3320 C   0  0  0  0  0  0  0  0  0  0  0  0
    8.4644   42.5531  130.3878 C   0  0  0  0  0  0  0  0  0  0  0  0
    8.7568   42.2087  129.0965 F   0  0  0  0  0  0  0  0  0  0  0  0
    7.5538   41.5529  130.8118 F   0  0  0  0  0  0  0  0  0  0  0  0
    7.6748   43.7032  130.3619 F   0  0  0  0  0  0  0  0  0  0  0  0
 23 24  1  0  0  0
 24 16  1  0  0  0
 16 17  2  0  0  0
 17 18  1  0  0  0
 17 19  1  0  0  0
 19 20  2  0  0  0
 20 25  1  0  0  0
 25 26  1  0  0  0
 26 27  1  0  0  0
 27 28  1  0  0  0
 28 30  1  0  0  0
 30 31  1  0  0  0
 31 32  1  0  0  0
 32 33  1  0  0  0
 20 21  1  0  0  0
 21 22  2  0  0  0
 22  1  1  0  0  0
  1  2  1  0  0  0
  2 34  1  0  0  0
 34 35  1  0  0  0
 35 36  1  0  0  0
 35 37  1  0  0  0
 35 38  1  0  0  0
  2  3  1  0  0  0
  3  4  1  0  0  0
  3  5  1  0  0  0
  5  6  1  0  0  0
  6  7  2  0  0  0
  7  8  1  0  0  0
  8  9  1  0  0  0
  9 10  2  0  0  0
 10 11  1  0  0  0
 11 12  2  0  0  0
 12 13  1  0  0  0
 13 14  2  0  0  0
 22 16  1  0  0  0
  7  1  1  0  0  0
 14  9  1  0  0  0
 14  6  1  0  0  0
 28 29  1  0  0  0
  8 15  1  0  0  0
M  END
> <minimizedAffinity>
3.25699

> <CNNscore>
0.3684930205

> <CNNaffinity>
7.9379777908

> <CNN_VS>
2.9250893593

> <CNNaffinity_variance>
0.4117126465

$$$$
[H]c1c(F)c(OC([H])([H])[H])c([C@]2([H])c3c(c4c([H])c([H])c([H])c([H])c4n3[H])C([H])([H])[C@@]([H])(C([H])([H])[H])N2C([H])([H])C(F)(F)F)c([H])c1OC([H])([H])C([H])([H])N([H])C([H])([H])C([H])([H])C([H])([H])F


 38 41  0  0  0  0  0  0  0  0999 V2000
    8.4186   44.8270  131.2981 C   0  0  0  0  0  0  0  0  0  0  0  0
    8.5788   43.4658  130.7450 N   0  0  0  0  0  0  0  0  0  0  0  0
    9.9482   43.2090  130.6245 C   0  0  0  0  0  0  0  0  0  0  0  0
   10.4575   42.2385  129.6409 C   0  0  0  0  0  0  0  0  0  0  0  0
   10.6430   43.0612  131.9849 C   0  0  0  0  0  0  0  0  0  0  0  0
   10.6340   44.4593  132.4937 C   0  0  0  0  0  0  0  0  0  0  0  0
    9.5643   45.2637  132.1072 C   0  0  0  0  0  0  0  0  0  0  0  0
    9.7612   46.5100  132.6426 N   0  0  0  0  0  0  0  0  0  0  0  0
   10.8997   46.5097  133.3418 C   0  0  0  0  0  0  0  0  0  0  0  0
   11.5685   47.4572  134.0689 C   0  0  0  0  0  0  0  0  0  0  0  0
   12.7688   47.1776  134.7132 C   0  0  0  0  0  0  0  0  0  0  0  0
   13.2877   45.9219  134.6129 C   0  0  0  0  0  0  0  0  0  0  0  0
   12.6555   44.9434  133.8977 C   0  0  0  0  0  0  0  0  0  0  0  0
   11.4463   45.2441  133.2551 C   0  0  0  0  0  0  0  0  0  0  0  0
    9.1446   47.3662  132.5416 H   0  0  0  0  0  0  0  0  0  0  0  0
    8.7359   46.1753  129.2287 C   0  0  0  0  0  0  0  0  0  0  0  0
    8.2348   47.0681  128.3073 C   0  0  0  0  0  0  0  0  0  0  0  0
    9.0320   47.4375  127.2631 F   0  0  0  0  0  0  0  0  0  0  0  0
    6.9688   47.5965  128.4030 C   0  0  0  0  0  0  0  0  0  0  0  0
    6.1507   47.2435  129.4396 C   0  0  0  0  0  0  0  0  0  0  0  0
    6.6605   46.3434  130.3650 C   0  0  0  0  0  0  0  0  0  0  0  0
    7.9230   45.7955  130.2971 C   0  0  0  0  0  0  0  0  0  0  0  0
   11.1802   46.4702  128.9326 C   0  0  0  0  0  0  0  0  0  0  0  0
   10.0416   45.6784  129.0693 O   0  0  0  0  0  0  0  0  0  0  0  0
    4.8545   47.7665  129.5643 O   0  0  0  0  0  0  0  0  0  0  0  0
    4.6468   49.1620  129.7233 C   0  0  0  0  0  0  0  0  0  0  0  0
    5.8102   49.8954  129.0916 C   0  0  0  0  0  0  0  0  0  0  0  0
    6.4989   50.6658  130.1106 N   0  0  0  0  0  0  0  0  0  0  0  0
    5.8396   51.2025  130.7047 H   0  0  0  0  0  0  0  0  0  0  0  0
    7.3379   49.8598  130.9414 C   0  0  0  0  0  0  0  0  0  0  0  0
    8.7703   49.8853  130.4577 C   0  0  0  0  0  0  0  0  0  0  0  0
    9.6471   49.8364  131.7038 C   0  0  0  0  0  0  0  0  0  0  0  0
   10.8530   49.2336  131.3918 F   0  0  0  0  0  0  0  0  0  0  0  0
    7.6925   42.6087  131.4043 C   0  0  0  0  0  0  0  0  0  0  0  0
    7.7171   42.4038  132.8642 C   0  0  0  0  0  0  0  0  0  0  0  0
    7.5464   43.5048  133.6580 F   0  0  0  0  0  0  0  0  0  0  0  0
    6.6776   41.5273  133.2652 F   0  0  0  0  0  0  0  0  0  0  0  0
    8.8677   41.7376  133.2878 F   0  0  0  0  0  0  0  0  0  0  0  0
 23 24  1  0  0  0
 24 16  1  0  0  0
 16 17  2  0  0  0
 17 18  1  0  0  0
 17 19  1  0  0  0
 19 20  2  0  0  0
 20 25  1  0  0  0
 25 26  1  0  0  0
 26 27  1  0  0  0
 27 28  1  0  0  0
 28 30  1  0  0  0
 30 31  1  0  0  0
 31 32  1  0  0  0
 32 33  1  0  0  0
 20 21  1  0  0  0
 21 22  2  0  0  0
 22  1  1  0  0  0
  1  2  1  0  0  0
  2 34  1  0  0  0
 34 35  1  0  0  0
 35 36  1  0  0  0
 35 37  1  0  0  0
 35 38  1  0  0  0
  2  3  1  0  0  0
  3  4  1  0  0  0
  3  5  1  0  0  0
  5  6  1  0  0  0
  6  7  2  0  0  0
  7  8  1  0  0  0
  8  9  1  0  0  0
  9 10  2  0  0  0
 10 11  1  0  0  0
 11 12  2  0  0  0
 12 13  1  0  0  0
 13 14  2  0  0  0
 22 16  1  0  0  0
  7  1  1  0  0  0
 14  9  1  0  0  0
 14  6  1  0  0  0
 28 29  1  0  0  0
  8 15  1  0  0  0
M  END
> <minimizedAffinity>
3.66490

> <CNNscore>
0.3630118370

> <CNNaffinity>
7.7535705566

> <CNN_VS>
2.8146378994

> <CNNaffinity_variance>
0.3017894030

$$$$
[H]c1c(F)c(OC([H])([H])[H])c([C@]2([H])c3c(c4c([H])c([H])c([H])c([H])c4n3[H])C([H])([H])[C@@]([H])(C([H])([H])[H])N2C([H])([H])C(F)(F)F)c([H])c1OC([H])([H])C([H])([H])N([H])C([H])([H])C([H])([H])C([H])([H])F


 38 41  0  0  0  0  0  0  0  0999 V2000
   10.3729   45.3845  132.6258 C   0  0  0  0  0  0  0  0  0  0  0  0
    9.9406   44.3032  133.5359 N   0  0  0  0  0  0  0  0  0  0  0  0
    9.0725   43.4664  132.8276 C   0  0  0  0  0  0  0  0  0  0  0  0
    8.0574   42.6576  133.5233 C   0  0  0  0  0  0  0  0  0  0  0  0
    9.7882   42.6649  131.7318 C   0  0  0  0  0  0  0  0  0  0  0  0
   10.0942   43.7167  130.7250 C   0  0  0  0  0  0  0  0  0  0  0  0
   10.3333   45.0011  131.2082 C   0  0  0  0  0  0  0  0  0  0  0  0
   10.5542   45.8205  130.1319 N   0  0  0  0  0  0  0  0  0  0  0  0
   10.4646   45.1006  129.0099 C   0  0  0  0  0  0  0  0  0  0  0  0
   10.5928   45.3950  127.6792 C   0  0  0  0  0  0  0  0  0  0  0  0
   10.4454   44.4246  126.6941 C   0  0  0  0  0  0  0  0  0  0  0  0
   10.1653   43.1461  127.0723 C   0  0  0  0  0  0  0  0  0  0  0  0
   10.0282   42.8052  128.3889 C   0  0  0  0  0  0  0  0  0  0  0  0
   10.1804   43.7971  129.3678 C   0  0  0  0  0  0  0  0  0  0  0  0
   10.7594   46.8604  130.1371 H   0  0  0  0  0  0  0  0  0  0  0  0
    9.2143   46.9001  134.2263 C   0  0  0  0  0  0  0  0  0  0  0  0
    8.6734   48.1347  134.5099 C   0  0  0  0  0  0  0  0  0  0  0  0
    8.1328   48.3368  135.7464 F   0  0  0  0  0  0  0  0  0  0  0  0
    8.6589   49.1626  133.5964 C   0  0  0  0  0  0  0  0  0  0  0  0
    9.1930   48.9858  132.3507 C   0  0  0  0  0  0  0  0  0  0  0  0
    9.7369   47.7400  132.0704 C   0  0  0  0  0  0  0  0  0  0  0  0
    9.7680   46.6907  132.9630 C   0  0  0  0  0  0  0  0  0  0  0  0
    9.8594   45.9621  136.4294 C   0  0  0  0  0  0  0  0  0  0  0  0
    9.1910   45.8941  135.2085 O   0  0  0  0  0  0  0  0  0  0  0  0
    9.1922   50.0155  131.3974 O   0  0  0  0  0  0  0  0  0  0  0  0
    8.5459   49.8449  130.1448 C   0  0  0  0  0  0  0  0  0  0  0  0
    7.0893   50.2254  130.3005 C   0  0  0  0  0  0  0  0  0  0  0  0
    6.2985   49.4953  129.3271 N   0  0  0  0  0  0  0  0  0  0  0  0
    6.1296   50.0504  128.4674 H   0  0  0  0  0  0  0  0  0  0  0  0
    6.8790   48.2376  128.9733 C   0  0  0  0  0  0  0  0  0  0  0  0
    6.1070   47.0898  129.5840 C   0  0  0  0  0  0  0  0  0  0  0  0
    7.1437   46.1197  130.1387 C   0  0  0  0  0  0  0  0  0  0  0  0
    6.8820   45.8859  131.4774 F   0  0  0  0  0  0  0  0  0  0  0  0
   11.0571   43.8352  134.2353 C   0  0  0  0  0  0  0  0  0  0  0  0
   12.4383   44.2016  133.8719 C   0  0  0  0  0  0  0  0  0  0  0  0
   12.7648   45.5298  133.8955 F   0  0  0  0  0  0  0  0  0  0  0  0
   13.3663   43.6042  134.7614 F   0  0  0  0  0  0  0  0  0  0  0  0
   12.8165   43.6838  132.6325 F   0  0  0  0  0  0  0  0  0  0  0  0
 23 24  1  0  0  0
 24 16  1  0  0  0
 16 17  2  0  0  0
 17 18  1  0  0  0
 17 19  1  0  0  0
 19 20  2  0  0  0
 20 25  1  0  0  0
 25 26  1  0  0  0
 26 27  1  0  0  0
 27 28  1  0  0  0
 28 30  1  0  0  0
 30 31  1  0  0  0
 31 32  1  0  0  0
 32 33  1  0  0  0
 20 21  1  0  0  0
 21 22  2  0  0  0
 22  1  1  0  0  0
  1  2  1  0  0  0
  2 34  1  0  0  0
 34 35  1  0  0  0
 35 36  1  0  0  0
 35 37  1  0  0  0
 35 38  1  0  0  0
  2  3  1  0  0  0
  3  4  1  0  0  0
  3  5  1  0  0  0
  5  6  1  0  0  0
  6  7  2  0  0  0
  7  8  1  0  0  0
  8  9  1  0  0  0
  9 10  2  0  0  0
 10 11  1  0  0  0
 11 12  2  0  0  0
 12 13  1  0  0  0
 13 14  2  0  0  0
 22 16  1  0  0  0
  7  1  1  0  0  0
 14  9  1  0  0  0
 14  6  1  0  0  0
 28 29  1  0  0  0
  8 15  1  0  0  0
M  END
> <minimizedAffinity>
-2.36222

> <CNNscore>
0.3342957795

> <CNNaffinity>
7.9113478661

> <CNN_VS>
2.6447300911

> <CNNaffinity_variance>
0.4013686180

$$$$
[H]c1c(F)c(OC([H])([H])[H])c([C@]2([H])c3c(c4c([H])c([H])c([H])c([H])c4n3[H])C([H])([H])[C@@]([H])(C([H])([H])[H])N2C([H])([H])C(F)(F)F)c([H])c1OC([H])([H])C([H])([H])N([H])C([H])([H])C([H])([H])C([H])([H])F


 38 41  0  0  0  0  0  0  0  0999 V2000
    8.9471   44.7194  131.3907 C   0  0  0  0  0  0  0  0  0  0  0  0
    8.7597   43.3514  130.8636 N   0  0  0  0  0  0  0  0  0  0  0  0
   10.0165   42.7424  130.7915 C   0  0  0  0  0  0  0  0  0  0  0  0
   10.2802   41.6501  129.8396 C   0  0  0  0  0  0  0  0  0  0  0  0
   10.6107   42.4493  132.1758 C   0  0  0  0  0  0  0  0  0  0  0  0
   10.9549   43.8123  132.6629 C   0  0  0  0  0  0  0  0  0  0  0  0
   10.1446   44.8595  132.2299 C   0  0  0  0  0  0  0  0  0  0  0  0
   10.6468   46.0228  132.7526 N   0  0  0  0  0  0  0  0  0  0  0  0
   11.7258   45.7406  133.4883 C   0  0  0  0  0  0  0  0  0  0  0  0
   12.5996   46.4965  134.2224 C   0  0  0  0  0  0  0  0  0  0  0  0
   13.6664   45.9274  134.9094 C   0  0  0  0  0  0  0  0  0  0  0  0
   13.8403   44.5778  134.8449 C   0  0  0  0  0  0  0  0  0  0  0  0
   12.9934   43.7826  134.1244 C   0  0  0  0  0  0  0  0  0  0  0  0
   11.9235   44.3745  133.4385 C   0  0  0  0  0  0  0  0  0  0  0  0
   10.2794   47.0080  132.6188 H   0  0  0  0  0  0  0  0  0  0  0  0
    9.4968   45.7283  129.1814 C   0  0  0  0  0  0  0  0  0  0  0  0
    9.2757   46.7061  128.2369 C   0  0  0  0  0  0  0  0  0  0  0  0
   10.0069   46.6718  127.0852 F   0  0  0  0  0  0  0  0  0  0  0  0
    8.3510   47.7085  128.4136 C   0  0  0  0  0  0  0  0  0  0  0  0
    7.6064   47.7661  129.5584 C   0  0  0  0  0  0  0  0  0  0  0  0
    7.8331   46.7782  130.5066 C   0  0  0  0  0  0  0  0  0  0  0  0
    8.7505   45.7606  130.3597 C   0  0  0  0  0  0  0  0  0  0  0  0
   11.8394   44.9385  128.9859 C   0  0  0  0  0  0  0  0  0  0  0  0
   10.4617   44.7355  128.9346 O   0  0  0  0  0  0  0  0  0  0  0  0
    6.6560   48.7771  129.7673 O   0  0  0  0  0  0  0  0  0  0  0  0
    7.0412   50.0382  130.2937 C   0  0  0  0  0  0  0  0  0  0  0  0
    6.1042   51.0932  129.7463 C   0  0  0  0  0  0  0  0  0  0  0  0
    6.8739   52.2613  129.3601 N   0  0  0  0  0  0  0  0  0  0  0  0
    7.7383   52.3619  129.9242 H   0  0  0  0  0  0  0  0  0  0  0  0
    7.2105   52.2679  127.9706 C   0  0  0  0  0  0  0  0  0  0  0  0
    6.7500   53.5446  127.3041 C   0  0  0  0  0  0  0  0  0  0  0  0
    7.9499   54.0869  126.5360 C   0  0  0  0  0  0  0  0  0  0  0  0
    7.5286   54.5676  125.3086 F   0  0  0  0  0  0  0  0  0  0  0  0
    7.6619   42.7716  131.5066 C   0  0  0  0  0  0  0  0  0  0  0  0
    7.6071   42.5682  132.9659 C   0  0  0  0  0  0  0  0  0  0  0  0
    7.3810   43.6681  133.7473 F   0  0  0  0  0  0  0  0  0  0  0  0
    6.5561   41.6813  133.3096 F   0  0  0  0  0  0  0  0  0  0  0  0
    8.7392   41.9146  133.4540 F   0  0  0  0  0  0  0  0  0  0  0  0
 23 24  1  0  0  0
 24 16  1  0  0  0
 16 17  2  0  0  0
 17 18  1  0  0  0
 17 19  1  0  0  0
 19 20  2  0  0  0
 20 25  1  0  0  0
 25 26  1  0  0  0
 26 27  1  0  0  0
 27 28  1  0  0  0
 28 30  1  0  0  0
 30 31  1  0  0  0
 31 32  1  0  0  0
 32 33  1  0  0  0
 20 21  1  0  0  0
 21 22  2  0  0  0
 22  1  1  0  0  0
  1  2  1  0  0  0
  2 34  1  0  0  0
 34 35  1  0  0  0
 35 36  1  0  0  0
 35 37  1  0  0  0
 35 38  1  0  0  0
  2  3  1  0  0  0
  3  4  1  0  0  0
  3  5  1  0  0  0
  5  6  1  0  0  0
  6  7  2  0  0  0
  7  8  1  0  0  0
  8  9  1  0  0  0
  9 10  2  0  0  0
 10 11  1  0  0  0
 11 12  2  0  0  0
 12 13  1  0  0  0
 13 14  2  0  0  0
 22 16  1  0  0  0
  7  1  1  0  0  0
 14  9  1  0  0  0
 14  6  1  0  0  0
 28 29  1  0  0  0
  8 15  1  0  0  0
M  END
> <minimizedAffinity>
6.43121

> <CNNscore>
0.3261390030

> <CNNaffinity>
7.6294035912

> <CNN_VS>
2.4882459641

> <CNNaffinity_variance>
1.1111131907

$$$$
[H]c1c(F)c(OC([H])([H])[H])c([C@]2([H])c3c(c4c([H])c([H])c([H])c([H])c4n3[H])C([H])([H])[C@@]([H])(C([H])([H])[H])N2C([H])([H])C(F)(F)F)c([H])c1OC([H])([H])C([H])([H])N([H])C([H])([H])C([H])([H])C([H])([H])F


 38 41  0  0  0  0  0  0  0  0999 V2000
    9.5542   44.9809  131.5804 C   0  0  0  0  0  0  0  0  0  0  0  0
    8.3827   45.1211  130.6902 N   0  0  0  0  0  0  0  0  0  0  0  0
    8.8296   45.6354  129.4690 C   0  0  0  0  0  0  0  0  0  0  0  0
    7.9287   46.3975  128.5879 C   0  0  0  0  0  0  0  0  0  0  0  0
    9.6827   44.6311  128.6823 C   0  0  0  0  0  0  0  0  0  0  0  0
   10.9377   44.5946  129.4805 C   0  0  0  0  0  0  0  0  0  0  0  0
   10.8176   44.7992  130.8532 C   0  0  0  0  0  0  0  0  0  0  0  0
   12.0765   44.7666  131.3944 N   0  0  0  0  0  0  0  0  0  0  0  0
   12.9647   44.5493  130.4202 C   0  0  0  0  0  0  0  0  0  0  0  0
   14.3275   44.4243  130.3874 C   0  0  0  0  0  0  0  0  0  0  0  0
   15.0162   44.1942  129.2014 C   0  0  0  0  0  0  0  0  0  0  0  0
   14.3071   44.0914  128.0428 C   0  0  0  0  0  0  0  0  0  0  0  0
   12.9453   44.2095  128.0267 C   0  0  0  0  0  0  0  0  0  0  0  0
   12.2684   44.4413  129.2323 C   0  0  0  0  0  0  0  0  0  0  0  0
   12.3515   44.8939  132.4101 H   0  0  0  0  0  0  0  0  0  0  0  0
    9.6912   45.5717  133.9955 C   0  0  0  0  0  0  0  0  0  0  0  0
    9.7161   46.5338  134.9809 C   0  0  0  0  0  0  0  0  0  0  0  0
    9.8367   46.1292  136.2786 F   0  0  0  0  0  0  0  0  0  0  0  0
    9.6235   47.8776  134.7041 C   0  0  0  0  0  0  0  0  0  0  0  0
    9.5010   48.3089  133.4128 C   0  0  0  0  0  0  0  0  0  0  0  0
    9.4767   47.3354  132.4239 C   0  0  0  0  0  0  0  0  0  0  0  0
    9.5683   45.9823  132.6678 C   0  0  0  0  0  0  0  0  0  0  0  0
   10.9841   43.5210  134.5178 C   0  0  0  0  0  0  0  0  0  0  0  0
    9.7869   44.2150  134.3527 O   0  0  0  0  0  0  0  0  0  0  0  0
    9.4038   49.6733  133.0995 O   0  0  0  0  0  0  0  0  0  0  0  0
    9.5907   50.1275  131.7673 C   0  0  0  0  0  0  0  0  0  0  0  0
    8.2509   50.1144  131.0634 C   0  0  0  0  0  0  0  0  0  0  0  0
    8.4561   49.8490  129.6515 N   0  0  0  0  0  0  0  0  0  0  0  0
    8.9281   48.9396  129.4908 H   0  0  0  0  0  0  0  0  0  0  0  0
    7.2420   49.8931  128.8978 C   0  0  0  0  0  0  0  0  0  0  0  0
    6.0541   49.5187  129.7552 C   0  0  0  0  0  0  0  0  0  0  0  0
    5.2250   48.5352  128.9373 C   0  0  0  0  0  0  0  0  0  0  0  0
    5.2154   47.3055  129.5721 F   0  0  0  0  0  0  0  0  0  0  0  0
    7.6003   43.9673  130.7966 C   0  0  0  0  0  0  0  0  0  0  0  0
    8.1639   42.6496  131.1430 C   0  0  0  0  0  0  0  0  0  0  0  0
    8.7048   42.5040  132.3911 F   0  0  0  0  0  0  0  0  0  0  0  0
    7.1652   41.6454  131.0827 F   0  0  0  0  0  0  0  0  0  0  0  0
    9.1036   42.2116  130.2091 F   0  0  0  0  0  0  0  0  0  0  0  0
 23 24  1  0  0  0
 24 16  1  0  0  0
 16 17  2  0  0  0
 17 18  1  0  0  0
 17 19  1  0  0  0
 19 20  2  0  0  0
 20 25  1  0  0  0
 25 26  1  0  0  0
 26 27  1  0  0  0
 27 28  1  0  0  0
 28 30  1  0  0  0
 30 31  1  0  0  0
 31 32  1  0  0  0
 32 33  1  0  0  0
 20 21  1  0  0  0
 21 22  2  0  0  0
 22  1  1  0  0  0
  1  2  1  0  0  0
  2 34  1  0  0  0
 34 35  1  0  0  0
 35 36  1  0  0  0
 35 37  1  0  0  0
 35 38  1  0  0  0
  2  3  1  0  0  0
  3  4  1  0  0  0
  3  5  1  0  0  0
  5  6  1  0  0  0
  6  7  2  0  0  0
  7  8  1  0  0  0
  8  9  1  0  0  0
  9 10  2  0  0  0
 10 11  1  0  0  0
 11 12  2  0  0  0
 12 13  1  0  0  0
 13 14  2  0  0  0
 22 16  1  0  0  0
  7  1  1  0  0  0
 14  9  1  0  0  0
 14  6  1  0  0  0
 28 29  1  0  0  0
  8 15  1  0  0  0
M  END
> <minimizedAffinity>
0.45808

> <CNNscore>
0.3064222932

> <CNNaffinity>
7.9092941284

> <CNN_VS>
2.4235839844

> <CNNaffinity_variance>
0.1389903128

$$$$
[H]c1c(F)c(OC([H])([H])[H])c([C@]2([H])c3c(c4c([H])c([H])c([H])c([H])c4n3[H])C([H])([H])[C@@]([H])(C([H])([H])[H])N2C([H])([H])C(F)(F)F)c([H])c1OC([H])([H])C([H])([H])N([H])C([H])([H])C([H])([H])C([H])([H])F


 38 41  0  0  0  0  0  0  0  0999 V2000
   10.2974   45.8310  130.4465 C   0  0  0  0  0  0  0  0  0  0  0  0
   11.6955   45.6413  130.0064 N   0  0  0  0  0  0  0  0  0  0  0  0
   12.3645   44.9180  130.9989 C   0  0  0  0  0  0  0  0  0  0  0  0
   13.8237   45.0241  131.1660 C   0  0  0  0  0  0  0  0  0  0  0  0
   11.8829   43.4640  131.0956 C   0  0  0  0  0  0  0  0  0  0  0  0
   10.5277   43.6226  131.6886 C   0  0  0  0  0  0  0  0  0  0  0  0
    9.8319   44.7862  131.3685 C   0  0  0  0  0  0  0  0  0  0  0  0
    8.6363   44.7584  132.0381 N   0  0  0  0  0  0  0  0  0  0  0  0
    8.5627   43.6319  132.7529 C   0  0  0  0  0  0  0  0  0  0  0  0
    7.6193   43.0962  133.5876 C   0  0  0  0  0  0  0  0  0  0  0  0
    7.8068   41.8713  134.2189 C   0  0  0  0  0  0  0  0  0  0  0  0
    8.9656   41.1909  133.9950 C   0  0  0  0  0  0  0  0  0  0  0  0
    9.9362   41.6865  133.1698 C   0  0  0  0  0  0  0  0  0  0  0  0
    9.7292   42.9229  132.5421 C   0  0  0  0  0  0  0  0  0  0  0  0
    7.8678   45.4883  132.0280 H   0  0  0  0  0  0  0  0  0  0  0  0
   10.3376   47.6697  132.1253 C   0  0  0  0  0  0  0  0  0  0  0  0
   10.0671   48.9793  132.4556 C   0  0  0  0  0  0  0  0  0  0  0  0
   10.3908   49.4116  133.7088 F   0  0  0  0  0  0  0  0  0  0  0  0
    9.4858   49.8591  131.5729 C   0  0  0  0  0  0  0  0  0  0  0  0
    9.1511   49.4510  130.3120 C   0  0  0  0  0  0  0  0  0  0  0  0
    9.4261   48.1306  129.9844 C   0  0  0  0  0  0  0  0  0  0  0  0
   10.0081   47.2250  130.8446 C   0  0  0  0  0  0  0  0  0  0  0  0
   10.3734   46.5151  134.3196 C   0  0  0  0  0  0  0  0  0  0  0  0
   10.9305   46.8251  133.0804 O   0  0  0  0  0  0  0  0  0  0  0  0
    8.5563   50.3255  129.3898 O   0  0  0  0  0  0  0  0  0  0  0  0
    7.3128   50.0058  128.7838 C   0  0  0  0  0  0  0  0  0  0  0  0
    6.2086   50.2755  129.7832 C   0  0  0  0  0  0  0  0  0  0  0  0
    5.0842   49.4031  129.4992 N   0  0  0  0  0  0  0  0  0  0  0  0
    4.3371   49.8905  128.9700 H   0  0  0  0  0  0  0  0  0  0  0  0
    5.4666   48.2176  128.7975 C   0  0  0  0  0  0  0  0  0  0  0  0
    5.1284   46.9786  129.5955 C   0  0  0  0  0  0  0  0  0  0  0  0
    6.4275   46.5164  130.2453 C   0  0  0  0  0  0  0  0  0  0  0  0
    7.2495   45.9604  129.2808 F   0  0  0  0  0  0  0  0  0  0  0  0
   11.6930   45.2721  128.6580 C   0  0  0  0  0  0  0  0  0  0  0  0
   10.5974   44.4999  128.0435 C   0  0  0  0  0  0  0  0  0  0  0  0
   10.6313   44.3284  126.6867 F   0  0  0  0  0  0  0  0  0  0  0  0
   10.5664   43.1785  128.5557 F   0  0  0  0  0  0  0  0  0  0  0  0
    9.3396   44.9971  128.3867 F   0  0  0  0  0  0  0  0  0  0  0  0
 23 24  1  0  0  0
 24 16  1  0  0  0
 16 17  2  0  0  0
 17 18  1  0  0  0
 17 19  1  0  0  0
 19 20  2  0  0  0
 20 25  1  0  0  0
 25 26  1  0  0  0
 26 27  1  0  0  0
 27 28  1  0  0  0
 28 30  1  0  0  0
 30 31  1  0  0  0
 31 32  1  0  0  0
 32 33  1  0  0  0
 20 21  1  0  0  0
 21 22  2  0  0  0
 22  1  1  0  0  0
  1  2  1  0  0  0
  2 34  1  0  0  0
 34 35  1  0  0  0
 35 36  1  0  0  0
 35 37  1  0  0  0
 35 38  1  0  0  0
  2  3  1  0  0  0
  3  4  1  0  0  0
  3  5  1  0  0  0
  5  6  1  0  0  0
  6  7  2  0  0  0
  7  8  1  0  0  0
  8  9  1  0  0  0
  9 10  2  0  0  0
 10 11  1  0  0  0
 11 12  2  0  0  0
 12 13  1  0  0  0
 13 14  2  0  0  0
 22 16  1  0  0  0
  7  1  1  0  0  0
 14  9  1  0  0  0
 14  6  1  0  0  0
 28 29  1  0  0  0
  8 15  1  0  0  0
M  END
> <minimizedAffinity>
1.03084

> <CNNscore>
0.2782228291

> <CNNaffinity>
7.7869710922

> <CNN_VS>
2.1665132046

> <CNNaffinity_variance>
0.1405764222

$$$$
[H]Oc1c([H])c([H])c2c(c1[H])C([H])([H])C([H])([H])N(c1c([H])c([H])c([H])c(N(C([H])([H])[H])C([H])([H])[H])c1[H])C2(c1c([H])c([H])c(OC([H])([H])C([H])([H])N2C([H])([H])C([H])([H])C([H])([H])C([H])([H])C2([H])[H])c([H])c1[H])C([H])([H])[H]


 37 41  0  0  0  0  0  0  0  0999 V2000
   10.8061   44.6844  132.5497 N   0  0  0  0  0  0  0  0  0  0  0  0
   11.9721   45.3997  133.1393 C   0  0  0  0  0  0  0  0  0  0  0  0
   13.2235   45.0433  132.3989 C   0  0  0  0  0  0  0  0  0  0  0  0
   12.9260   44.8694  130.9576 C   0  0  0  0  0  0  0  0  0  0  0  0
   14.0718   44.6708  130.1564 C   0  0  0  0  0  0  0  0  0  0  0  0
   13.9665   44.4916  128.7997 C   0  0  0  0  0  0  0  0  0  0  0  0
   15.1142   44.2955  128.0180 O   0  0  0  0  0  0  0  0  0  0  0  0
   12.7085   44.5107  128.2359 C   0  0  0  0  0  0  0  0  0  0  0  0
   11.5896   44.7049  129.0195 C   0  0  0  0  0  0  0  0  0  0  0  0
   11.6790   44.8863  130.3839 C   0  0  0  0  0  0  0  0  0  0  0  0
   10.4513   45.0983  131.2192 C   0  0  0  0  0  0  0  0  0  0  0  0
    9.3452   44.3089  130.5785 C   0  0  0  0  0  0  0  0  0  0  0  0
   15.3977   43.3160  127.9037 H   0  0  0  0  0  0  0  0  0  0  0  0
    8.2913   42.1789  133.5307 C   0  0  0  0  0  0  0  0  0  0  0  0
    8.7760   41.7588  134.7471 C   0  0  0  0  0  0  0  0  0  0  0  0
    9.9316   42.2953  135.2662 C   0  0  0  0  0  0  0  0  0  0  0  0
   10.6133   43.2713  134.5515 C   0  0  0  0  0  0  0  0  0  0  0  0
   10.1686   43.7168  133.3409 C   0  0  0  0  0  0  0  0  0  0  0  0
    8.9883   43.1357  132.8630 C   0  0  0  0  0  0  0  0  0  0  0  0
    6.1104   41.0578  133.9423 C   0  0  0  0  0  0  0  0  0  0  0  0
    7.0951   41.6119  133.0104 N   0  0  0  0  0  0  0  0  0  0  0  0
    6.7789   41.5420  131.6208 C   0  0  0  0  0  0  0  0  0  0  0  0
   10.0319   46.5320  131.1664 C   0  0  0  0  0  0  0  0  0  0  0  0
    9.1666   46.9621  132.1582 C   0  0  0  0  0  0  0  0  0  0  0  0
    8.6995   48.2570  132.2119 C   0  0  0  0  0  0  0  0  0  0  0  0
    9.1066   49.1519  131.2483 C   0  0  0  0  0  0  0  0  0  0  0  0
    9.9695   48.7146  130.2633 C   0  0  0  0  0  0  0  0  0  0  0  0
   10.4296   47.4176  130.2199 C   0  0  0  0  0  0  0  0  0  0  0  0
    8.6411   50.4506  131.2981 O   0  0  0  0  0  0  0  0  0  0  0  0
    7.6929   50.9478  130.4194 C   0  0  0  0  0  0  0  0  0  0  0  0
    6.4180   50.1966  130.4310 C   0  0  0  0  0  0  0  0  0  0  0  0
    5.9993   49.5370  129.2548 N   0  0  0  0  0  0  0  0  0  0  0  0
    7.1613   49.2058  128.4213 C   0  0  0  0  0  0  0  0  0  0  0  0
    7.2155   47.7659  128.0312 C   0  0  0  0  0  0  0  0  0  0  0  0
    7.0117   46.7935  129.1511 C   0  0  0  0  0  0  0  0  0  0  0  0
    5.8538   47.2189  130.0379 C   0  0  0  0  0  0  0  0  0  0  0  0
    5.1531   48.4013  129.3653 C   0  0  0  0  0  0  0  0  0  0  0  0
 20 21  1  0  0  0
 21 22  1  0  0  0
 21 14  1  0  0  0
 14 15  2  0  0  0
 15 16  1  0  0  0
 16 17  2  0  0  0
 17 18  1  0  0  0
 18 19  2  0  0  0
 18  1  1  0  0  0
  1  2  1  0  0  0
  2  3  1  0  0  0
  3  4  1  0  0  0
  4  5  2  0  0  0
  5  6  1  0  0  0
  6  7  1  0  0  0
  6  8  2  0  0  0
  8  9  1  0  0  0
  9 10  2  0  0  0
 10 11  1  0  0  0
 11 12  1  0  0  0
 11 23  1  0  0  0
 23 24  2  0  0  0
 24 25  1  0  0  0
 25 26  2  0  0  0
 26 29  1  0  0  0
 29 30  1  0  0  0
 30 31  1  0  0  0
 31 32  1  0  0  0
 32 33  1  0  0  0
 33 34  1  0  0  0
 34 35  1  0  0  0
 35 36  1  0  0  0
 36 37  1  0  0  0
 26 27  1  0  0  0
 27 28  2  0  0  0
 19 14  1  0  0  0
 11  1  1  0  0  0
 28 23  1  0  0  0
 10  4  1  0  0  0
 37 32  1  0  0  0
  7 13  1  0  0  0
M  END
> <minimizedAffinity>
11.72706

> <CNNscore>
0.4543747008

> <CNNaffinity>
8.0576133728

> <CNN_VS>
3.6611757278

> <CNNaffinity_variance>
1.1796644926

$$$$
[H]Oc1c([H])c([H])c2c(c1[H])C([H])([H])C([H])([H])N(c1c([H])c([H])c([H])c(N(C([H])([H])[H])C([H])([H])[H])c1[H])C2(c1c([H])c([H])c(OC([H])([H])C([H])([H])N2C([H])([H])C([H])([H])C([H])([H])C([H])([H])C2([H])[H])c([H])c1[H])C([H])([H])[H]


 37 41  0  0  0  0  0  0  0  0999 V2000
    9.4689   46.5893  129.7899 N   0  0  0  0  0  0  0  0  0  0  0  0
    9.9204   47.9737  130.1038 C   0  0  0  0  0  0  0  0  0  0  0  0
    8.9734   48.9711  129.5124 C   0  0  0  0  0  0  0  0  0  0  0  0
    7.5864   48.4536  129.5809 C   0  0  0  0  0  0  0  0  0  0  0  0
    6.6068   49.3862  129.1753 C   0  0  0  0  0  0  0  0  0  0  0  0
    5.2732   49.0612  129.1787 C   0  0  0  0  0  0  0  0  0  0  0  0
    4.3126   49.9989  128.7729 O   0  0  0  0  0  0  0  0  0  0  0  0
    4.9123   47.7958  129.5902 C   0  0  0  0  0  0  0  0  0  0  0  0
    5.8703   46.8853  129.9864 C   0  0  0  0  0  0  0  0  0  0  0  0
    7.2139   47.1968  129.9885 C   0  0  0  0  0  0  0  0  0  0  0  0
    8.2408   46.1942  130.4248 C   0  0  0  0  0  0  0  0  0  0  0  0
    7.7246   44.8398  130.0297 C   0  0  0  0  0  0  0  0  0  0  0  0
    4.0883   49.9830  127.7717 H   0  0  0  0  0  0  0  0  0  0  0  0
   12.3880   44.6240  128.7035 C   0  0  0  0  0  0  0  0  0  0  0  0
   12.0157   44.2506  127.4335 C   0  0  0  0  0  0  0  0  0  0  0  0
   10.8042   44.6428  126.9125 C   0  0  0  0  0  0  0  0  0  0  0  0
    9.9508   45.4240  127.6802 C   0  0  0  0  0  0  0  0  0  0  0  0
   10.2797   45.8166  128.9449 C   0  0  0  0  0  0  0  0  0  0  0  0
   11.5240   45.3885  129.4220 C   0  0  0  0  0  0  0  0  0  0  0  0
   13.7238   43.7771  130.6221 C   0  0  0  0  0  0  0  0  0  0  0  0
   13.6444   44.2082  129.2246 N   0  0  0  0  0  0  0  0  0  0  0  0
   14.8557   44.1801  128.4711 C   0  0  0  0  0  0  0  0  0  0  0  0
    8.3527   46.1850  131.9153 C   0  0  0  0  0  0  0  0  0  0  0  0
    9.3303   46.9945  132.4690 C   0  0  0  0  0  0  0  0  0  0  0  0
    9.5396   47.0648  133.8288 C   0  0  0  0  0  0  0  0  0  0  0  0
    8.7512   46.3055  134.6637 C   0  0  0  0  0  0  0  0  0  0  0  0
    7.7791   45.5013  134.1031 C   0  0  0  0  0  0  0  0  0  0  0  0
    7.5791   45.4393  132.7422 C   0  0  0  0  0  0  0  0  0  0  0  0
    8.9573   46.3727  136.0270 O   0  0  0  0  0  0  0  0  0  0  0  0
    9.9535   45.6626  136.6766 C   0  0  0  0  0  0  0  0  0  0  0  0
   11.1405   45.3951  135.8345 C   0  0  0  0  0  0  0  0  0  0  0  0
   11.3725   44.0809  135.3731 N   0  0  0  0  0  0  0  0  0  0  0  0
   10.1307   43.5060  134.8421 C   0  0  0  0  0  0  0  0  0  0  0  0
   10.2767   42.9627  133.4594 C   0  0  0  0  0  0  0  0  0  0  0  0
   10.9547   43.8741  132.4843 C   0  0  0  0  0  0  0  0  0  0  0  0
   12.1869   44.5131  133.1019 C   0  0  0  0  0  0  0  0  0  0  0  0
   12.4341   43.8488  134.4581 C   0  0  0  0  0  0  0  0  0  0  0  0
 20 21  1  0  0  0
 21 22  1  0  0  0
 21 14  1  0  0  0
 14 15  2  0  0  0
 15 16  1  0  0  0
 16 17  2  0  0  0
 17 18  1  0  0  0
 18 19  2  0  0  0
 18  1  1  0  0  0
  1  2  1  0  0  0
  2  3  1  0  0  0
  3  4  1  0  0  0
  4  5  2  0  0  0
  5  6  1  0  0  0
  6  7  1  0  0  0
  6  8  2  0  0  0
  8  9  1  0  0  0
  9 10  2  0  0  0
 10 11  1  0  0  0
 11 12  1  0  0  0
 11 23  1  0  0  0
 23 24  2  0  0  0
 24 25  1  0  0  0
 25 26  2  0  0  0
 26 29  1  0  0  0
 29 30  1  0  0  0
 30 31  1  0  0  0
 31 32  1  0  0  0
 32 33  1  0  0  0
 33 34  1  0  0  0
 34 35  1  0  0  0
 35 36  1  0  0  0
 36 37  1  0  0  0
 26 27  1  0  0  0
 27 28  2  0  0  0
 19 14  1  0  0  0
 11  1  1  0  0  0
 28 23  1  0  0  0
 10  4  1  0  0  0
 37 32  1  0  0  0
  7 13  1  0  0  0
M  END
> <minimizedAffinity>
5.54655

> <CNNscore>
0.4097284377

> <CNNaffinity>
7.9946541786

> <CNN_VS>
3.2756371498

> <CNNaffinity_variance>
0.4809082150

$$$$
[H]Oc1c([H])c([H])c2c(c1[H])C([H])([H])C([H])([H])N(c1c([H])c([H])c([H])c(N(C([H])([H])[H])C([H])([H])[H])c1[H])C2(c1c([H])c([H])c(OC([H])([H])C([H])([H])N2C([H])([H])C([H])([H])C([H])([H])C([H])([H])C2([H])[H])c([H])c1[H])C([H])([H])[H]


 37 41  0  0  0  0  0  0  0  0999 V2000
    9.3805   46.7481  129.8363 N   0  0  0  0  0  0  0  0  0  0  0  0
   10.4700   47.7574  129.9514 C   0  0  0  0  0  0  0  0  0  0  0  0
   10.0612   49.0351  129.2870 C   0  0  0  0  0  0  0  0  0  0  0  0
    8.6116   49.2681  129.4879 C   0  0  0  0  0  0  0  0  0  0  0  0
    8.1626   50.5215  129.0171 C   0  0  0  0  0  0  0  0  0  0  0  0
    6.8450   50.8901  129.1269 C   0  0  0  0  0  0  0  0  0  0  0  0
    6.4150   52.1385  128.6544 O   0  0  0  0  0  0  0  0  0  0  0  0
    5.9668   50.0022  129.7110 C   0  0  0  0  0  0  0  0  0  0  0  0
    6.4065   48.7779  130.1707 C   0  0  0  0  0  0  0  0  0  0  0  0
    7.7270   48.3931  130.0676 C   0  0  0  0  0  0  0  0  0  0  0  0
    8.1868   47.0586  130.5753 C   0  0  0  0  0  0  0  0  0  0  0  0
    7.0468   46.1000  130.3790 C   0  0  0  0  0  0  0  0  0  0  0  0
    6.1079   52.1482  127.6753 H   0  0  0  0  0  0  0  0  0  0  0  0
    9.5317   43.1794  128.9389 C   0  0  0  0  0  0  0  0  0  0  0  0
   10.0230   43.2351  127.6558 C   0  0  0  0  0  0  0  0  0  0  0  0
   10.3174   44.4437  127.0680 C   0  0  0  0  0  0  0  0  0  0  0  0
   10.1152   45.6179  127.7810 C   0  0  0  0  0  0  0  0  0  0  0  0
    9.6291   45.6089  129.0560 C   0  0  0  0  0  0  0  0  0  0  0  0
    9.3479   44.3512  129.6024 C   0  0  0  0  0  0  0  0  0  0  0  0
    8.2615   41.8641  130.6238 C   0  0  0  0  0  0  0  0  0  0  0  0
    9.2328   41.9203  129.5292 N   0  0  0  0  0  0  0  0  0  0  0  0
    9.8216   40.6851  129.1250 C   0  0  0  0  0  0  0  0  0  0  0  0
    8.4347   47.1237  132.0479 C   0  0  0  0  0  0  0  0  0  0  0  0
    8.1806   45.9706  132.7712 C   0  0  0  0  0  0  0  0  0  0  0  0
    8.3596   45.9074  134.1357 C   0  0  0  0  0  0  0  0  0  0  0  0
    8.8057   47.0270  134.8010 C   0  0  0  0  0  0  0  0  0  0  0  0
    9.0567   48.1722  134.0719 C   0  0  0  0  0  0  0  0  0  0  0  0
    8.8739   48.2234  132.7082 C   0  0  0  0  0  0  0  0  0  0  0  0
    8.9867   46.9684  136.1683 O   0  0  0  0  0  0  0  0  0  0  0  0
    9.8316   46.0574  136.7804 C   0  0  0  0  0  0  0  0  0  0  0  0
   10.1925   44.9084  135.9206 C   0  0  0  0  0  0  0  0  0  0  0  0
   11.5295   44.7677  135.4887 N   0  0  0  0  0  0  0  0  0  0  0  0
   11.7327   43.4378  134.9016 C   0  0  0  0  0  0  0  0  0  0  0  0
   12.3325   43.4820  133.5353 C   0  0  0  0  0  0  0  0  0  0  0  0
   11.6847   44.4403  132.5850 C   0  0  0  0  0  0  0  0  0  0  0  0
   11.4150   45.7757  133.2573 C   0  0  0  0  0  0  0  0  0  0  0  0
   12.0852   45.7561  134.6328 C   0  0  0  0  0  0  0  0  0  0  0  0
 20 21  1  0  0  0
 21 22  1  0  0  0
 21 14  1  0  0  0
 14 15  2  0  0  0
 15 16  1  0  0  0
 16 17  2  0  0  0
 17 18  1  0  0  0
 18 19  2  0  0  0
 18  1  1  0  0  0
  1  2  1  0  0  0
  2  3  1  0  0  0
  3  4  1  0  0  0
  4  5  2  0  0  0
  5  6  1  0  0  0
  6  7  1  0  0  0
  6  8  2  0  0  0
  8  9  1  0  0  0
  9 10  2  0  0  0
 10 11  1  0  0  0
 11 12  1  0  0  0
 11 23  1  0  0  0
 23 24  2  0  0  0
 24 25  1  0  0  0
 25 26  2  0  0  0
 26 29  1  0  0  0
 29 30  1  0  0  0
 30 31  1  0  0  0
 31 32  1  0  0  0
 32 33  1  0  0  0
 33 34  1  0  0  0
 34 35  1  0  0  0
 35 36  1  0  0  0
 36 37  1  0  0  0
 26 27  1  0  0  0
 27 28  2  0  0  0
 19 14  1  0  0  0
 11  1  1  0  0  0
 28 23  1  0  0  0
 10  4  1  0  0  0
 37 32  1  0  0  0
  7 13  1  0  0  0
M  END
> <minimizedAffinity>
6.35796

> <CNNscore>
0.4088693261

> <CNNaffinity>
7.8607559204

> <CNN_VS>
3.2140219212

> <CNNaffinity_variance>
0.5161751509

$$$$
[H]Oc1c([H])c([H])c2c(c1[H])C([H])([H])C([H])([H])N(c1c([H])c([H])c([H])c(N(C([H])([H])[H])C([H])([H])[H])c1[H])C2(c1c([H])c([H])c(OC([H])([H])C([H])([H])N2C([H])([H])C([H])([H])C([H])([H])C([H])([H])C2([H])[H])c([H])c1[H])C([H])([H])[H]


 37 41  0  0  0  0  0  0  0  0999 V2000
    9.4821   47.9560  132.0366 N   0  0  0  0  0  0  0  0  0  0  0  0
   10.6468   48.6829  132.6146 C   0  0  0  0  0  0  0  0  0  0  0  0
   10.5706   48.6723  134.1097 C   0  0  0  0  0  0  0  0  0  0  0  0
   10.0081   47.3838  134.5781 C   0  0  0  0  0  0  0  0  0  0  0  0
   10.0300   47.2260  135.9812 C   0  0  0  0  0  0  0  0  0  0  0  0
    9.5432   46.0882  136.5748 C   0  0  0  0  0  0  0  0  0  0  0  0
    9.5722   45.9468  137.9698 O   0  0  0  0  0  0  0  0  0  0  0  0
    9.0304   45.0985  135.7634 C   0  0  0  0  0  0  0  0  0  0  0  0
    9.0096   45.2537  134.3927 C   0  0  0  0  0  0  0  0  0  0  0  0
    9.4948   46.3909  133.7813 C   0  0  0  0  0  0  0  0  0  0  0  0
    9.4657   46.5405  132.2891 C   0  0  0  0  0  0  0  0  0  0  0  0
    8.2416   45.8191  131.8013 C   0  0  0  0  0  0  0  0  0  0  0  0
    8.7383   46.2935  138.4572 H   0  0  0  0  0  0  0  0  0  0  0  0
    6.6535   48.6274  129.7757 C   0  0  0  0  0  0  0  0  0  0  0  0
    6.6022   50.0015  129.7938 C   0  0  0  0  0  0  0  0  0  0  0  0
    7.4982   50.7282  130.5433 C   0  0  0  0  0  0  0  0  0  0  0  0
    8.4635   50.0639  131.2881 C   0  0  0  0  0  0  0  0  0  0  0  0
    8.5502   48.7022  131.2997 C   0  0  0  0  0  0  0  0  0  0  0  0
    7.6132   48.0157  130.5186 C   0  0  0  0  0  0  0  0  0  0  0  0
    4.8527   46.9169  129.6598 C   0  0  0  0  0  0  0  0  0  0  0  0
    5.7181   47.8936  128.9949 N   0  0  0  0  0  0  0  0  0  0  0  0
    5.5586   48.0425  127.5849 C   0  0  0  0  0  0  0  0  0  0  0  0
   10.6381   45.8438  131.6772 C   0  0  0  0  0  0  0  0  0  0  0  0
   11.2732   46.4974  130.6347 C   0  0  0  0  0  0  0  0  0  0  0  0
   12.3580   45.9542  129.9820 C   0  0  0  0  0  0  0  0  0  0  0  0
   12.8253   44.7218  130.3795 C   0  0  0  0  0  0  0  0  0  0  0  0
   12.1861   44.0774  131.4198 C   0  0  0  0  0  0  0  0  0  0  0  0
   11.1025   44.6304  132.0647 C   0  0  0  0  0  0  0  0  0  0  0  0
   13.9121   44.1735  129.7284 O   0  0  0  0  0  0  0  0  0  0  0  0
   13.9202   43.8990  128.3708 C   0  0  0  0  0  0  0  0  0  0  0  0
   12.5695   43.8062  127.7736 C   0  0  0  0  0  0  0  0  0  0  0  0
   11.4472   44.1526  128.5574 N   0  0  0  0  0  0  0  0  0  0  0  0
   10.6905   45.2292  127.9070 C   0  0  0  0  0  0  0  0  0  0  0  0
    9.2412   44.9130  127.7397 C   0  0  0  0  0  0  0  0  0  0  0  0
    8.9453   43.5657  127.1580 C   0  0  0  0  0  0  0  0  0  0  0  0
    9.8098   42.4936  127.7994 C   0  0  0  0  0  0  0  0  0  0  0  0
   10.5555   43.1287  128.9750 C   0  0  0  0  0  0  0  0  0  0  0  0
 20 21  1  0  0  0
 21 22  1  0  0  0
 21 14  1  0  0  0
 14 15  2  0  0  0
 15 16  1  0  0  0
 16 17  2  0  0  0
 17 18  1  0  0  0
 18 19  2  0  0  0
 18  1  1  0  0  0
  1  2  1  0  0  0
  2  3  1  0  0  0
  3  4  1  0  0  0
  4  5  2  0  0  0
  5  6  1  0  0  0
  6  7  1  0  0  0
  6  8  2  0  0  0
  8  9  1  0  0  0
  9 10  2  0  0  0
 10 11  1  0  0  0
 11 12  1  0  0  0
 11 23  1  0  0  0
 23 24  2  0  0  0
 24 25  1  0  0  0
 25 26  2  0  0  0
 26 29  1  0  0  0
 29 30  1  0  0  0
 30 31  1  0  0  0
 31 32  1  0  0  0
 32 33  1  0  0  0
 33 34  1  0  0  0
 34 35  1  0  0  0
 35 36  1  0  0  0
 36 37  1  0  0  0
 26 27  1  0  0  0
 27 28  2  0  0  0
 19 14  1  0  0  0
 11  1  1  0  0  0
 28 23  1  0  0  0
 10  4  1  0  0  0
 37 32  1  0  0  0
  7 13  1  0  0  0
M  END
> <minimizedAffinity>
11.41512

> <CNNscore>
0.3940451443

> <CNNaffinity>
7.9172143936

> <CNN_VS>
3.1197397709

> <CNNaffinity_variance>
0.7921774983

$$$$
[H]Oc1c([H])c([H])c2c(c1[H])C([H])([H])C([H])([H])N(c1c([H])c([H])c([H])c(N(C([H])([H])[H])C([H])([H])[H])c1[H])C2(c1c([H])c([H])c(OC([H])([H])C([H])([H])N2C([H])([H])C([H])([H])C([H])([H])C([H])([H])C2([H])[H])c([H])c1[H])C([H])([H])[H]


 37 41  0  0  0  0  0  0  0  0999 V2000
    9.4370   46.0354  131.7083 N   0  0  0  0  0  0  0  0  0  0  0  0
   10.2031   47.1325  131.0536 C   0  0  0  0  0  0  0  0  0  0  0  0
   11.2291   46.5616  130.1249 C   0  0  0  0  0  0  0  0  0  0  0  0
   10.6988   45.3399  129.4750 C   0  0  0  0  0  0  0  0  0  0  0  0
   11.5436   44.8109  128.4747 C   0  0  0  0  0  0  0  0  0  0  0  0
   11.1972   43.6797  127.7788 C   0  0  0  0  0  0  0  0  0  0  0  0
   12.0473   43.1669  126.7883 O   0  0  0  0  0  0  0  0  0  0  0  0
    9.9983   43.0700  128.0820 C   0  0  0  0  0  0  0  0  0  0  0  0
    9.1736   43.5877  129.0594 C   0  0  0  0  0  0  0  0  0  0  0  0
    9.5076   44.7234  129.7673 C   0  0  0  0  0  0  0  0  0  0  0  0
    8.5969   45.2727  130.8250 C   0  0  0  0  0  0  0  0  0  0  0  0
    7.9042   44.0993  131.4577 C   0  0  0  0  0  0  0  0  0  0  0  0
   12.7377   42.4847  127.1214 H   0  0  0  0  0  0  0  0  0  0  0  0
   10.7920   44.7309  134.8746 C   0  0  0  0  0  0  0  0  0  0  0  0
   10.0599   45.4344  135.8020 C   0  0  0  0  0  0  0  0  0  0  0  0
    9.1069   46.3428  135.4026 C   0  0  0  0  0  0  0  0  0  0  0  0
    8.8846   46.5489  134.0476 C   0  0  0  0  0  0  0  0  0  0  0  0
    9.5884   45.8732  133.0936 C   0  0  0  0  0  0  0  0  0  0  0  0
   10.5439   44.9621  133.5585 C   0  0  0  0  0  0  0  0  0  0  0  0
   12.9148   43.5133  134.4348 C   0  0  0  0  0  0  0  0  0  0  0  0
   11.7731   43.7965  135.3073 N   0  0  0  0  0  0  0  0  0  0  0  0
   11.7251   43.1019  136.5527 C   0  0  0  0  0  0  0  0  0  0  0  0
    7.5263   46.1089  130.2014 C   0  0  0  0  0  0  0  0  0  0  0  0
    7.8690   46.7979  129.0502 C   0  0  0  0  0  0  0  0  0  0  0  0
    6.9742   47.6100  128.3887 C   0  0  0  0  0  0  0  0  0  0  0  0
    5.6982   47.7403  128.8887 C   0  0  0  0  0  0  0  0  0  0  0  0
    5.3651   47.0497  130.0369 C   0  0  0  0  0  0  0  0  0  0  0  0
    6.2683   46.2409  130.6895 C   0  0  0  0  0  0  0  0  0  0  0  0
    4.7980   48.5530  128.2292 O   0  0  0  0  0  0  0  0  0  0  0  0
    4.5556   49.8663  128.5966 C   0  0  0  0  0  0  0  0  0  0  0  0
    4.8259   50.1453  130.0244 C   0  0  0  0  0  0  0  0  0  0  0  0
    5.9345   50.9493  130.3687 N   0  0  0  0  0  0  0  0  0  0  0  0
    6.8468   50.2029  131.2435 C   0  0  0  0  0  0  0  0  0  0  0  0
    8.2567   50.1926  130.7532 C   0  0  0  0  0  0  0  0  0  0  0  0
    8.4268   49.8427  129.3076 C   0  0  0  0  0  0  0  0  0  0  0  0
    7.4087   50.5716  128.4473 C   0  0  0  0  0  0  0  0  0  0  0  0
    6.6761   51.5804  129.3345 C   0  0  0  0  0  0  0  0  0  0  0  0
 20 21  1  0  0  0
 21 22  1  0  0  0
 21 14  1  0  0  0
 14 15  2  0  0  0
 15 16  1  0  0  0
 16 17  2  0  0  0
 17 18  1  0  0  0
 18 19  2  0  0  0
 18  1  1  0  0  0
  1  2  1  0  0  0
  2  3  1  0  0  0
  3  4  1  0  0  0
  4  5  2  0  0  0
  5  6  1  0  0  0
  6  7  1  0  0  0
  6  8  2  0  0  0
  8  9  1  0  0  0
  9 10  2  0  0  0
 10 11  1  0  0  0
 11 12  1  0  0  0
 11 23  1  0  0  0
 23 24  2  0  0  0
 24 25  1  0  0  0
 25 26  2  0  0  0
 26 29  1  0  0  0
 29 30  1  0  0  0
 30 31  1  0  0  0
 31 32  1  0  0  0
 32 33  1  0  0  0
 33 34  1  0  0  0
 34 35  1  0  0  0
 35 36  1  0  0  0
 36 37  1  0  0  0
 26 27  1  0  0  0
 27 28  2  0  0  0
 19 14  1  0  0  0
 11  1  1  0  0  0
 28 23  1  0  0  0
 10  4  1  0  0  0
 37 32  1  0  0  0
  7 13  1  0  0  0
M  END
> <minimizedAffinity>
5.97841

> <CNNscore>
0.3907471001

> <CNNaffinity>
7.8693223000

> <CNN_VS>
3.0749149323

> <CNNaffinity_variance>
0.8878557086

$$$$
[H]Oc1c([H])c([H])c2c(c1[H])C([H])([H])C([H])([H])N(c1c([H])c([H])c([H])c(N(C([H])([H])[H])C([H])([H])[H])c1[H])C2(c1c([H])c([H])c(OC([H])([H])C([H])([H])N2C([H])([H])C([H])([H])C([H])([H])C([H])([H])C2([H])[H])c([H])c1[H])C([H])([H])[H]


 37 41  0  0  0  0  0  0  0  0999 V2000
   10.1773   45.9810  132.3772 N   0  0  0  0  0  0  0  0  0  0  0  0
   11.4804   46.3435  131.7530 C   0  0  0  0  0  0  0  0  0  0  0  0
   11.8970   45.2860  130.7786 C   0  0  0  0  0  0  0  0  0  0  0  0
   10.7059   44.7363  130.0893 C   0  0  0  0  0  0  0  0  0  0  0  0
   11.0130   43.8319  129.0492 C   0  0  0  0  0  0  0  0  0  0  0  0
   10.0209   43.2329  128.3138 C   0  0  0  0  0  0  0  0  0  0  0  0
   10.3426   42.3369  127.2840 O   0  0  0  0  0  0  0  0  0  0  0  0
    8.7110   43.5377  128.6171 C   0  0  0  0  0  0  0  0  0  0  0  0
    8.4120   44.4215  129.6335 C   0  0  0  0  0  0  0  0  0  0  0  0
    9.3975   45.0314  130.3813 C   0  0  0  0  0  0  0  0  0  0  0  0
    9.0529   45.9914  131.4811 C   0  0  0  0  0  0  0  0  0  0  0  0
    7.7560   45.5242  132.0785 C   0  0  0  0  0  0  0  0  0  0  0  0
   10.4183   41.3550  127.5726 H   0  0  0  0  0  0  0  0  0  0  0  0
   11.1739   44.3960  135.5487 C   0  0  0  0  0  0  0  0  0  0  0  0
   10.3351   45.0150  136.4454 C   0  0  0  0  0  0  0  0  0  0  0  0
    9.4262   45.9572  136.0223 C   0  0  0  0  0  0  0  0  0  0  0  0
    9.3578   46.2841  134.6745 C   0  0  0  0  0  0  0  0  0  0  0  0
   10.1713   45.6952  133.7508 C   0  0  0  0  0  0  0  0  0  0  0  0
   11.0754   44.7445  134.2387 C   0  0  0  0  0  0  0  0  0  0  0  0
   13.3007   43.1559  135.2005 C   0  0  0  0  0  0  0  0  0  0  0  0
   12.1072   43.4248  136.0056 N   0  0  0  0  0  0  0  0  0  0  0  0
   11.9626   42.6795  137.2137 C   0  0  0  0  0  0  0  0  0  0  0  0
    8.7923   47.3509  130.9172 C   0  0  0  0  0  0  0  0  0  0  0  0
    8.2319   48.2816  131.7758 C   0  0  0  0  0  0  0  0  0  0  0  0
    7.9346   49.5648  131.3722 C   0  0  0  0  0  0  0  0  0  0  0  0
    8.2036   49.9332  130.0733 C   0  0  0  0  0  0  0  0  0  0  0  0
    8.7624   48.9989  129.2242 C   0  0  0  0  0  0  0  0  0  0  0  0
    9.0552   47.7190  129.6390 C   0  0  0  0  0  0  0  0  0  0  0  0
    7.9075   51.2180  129.6644 O   0  0  0  0  0  0  0  0  0  0  0  0
    6.6431   51.6082  129.2550 C   0  0  0  0  0  0  0  0  0  0  0  0
    5.5616   50.7166  129.7294 C   0  0  0  0  0  0  0  0  0  0  0  0
    4.9628   49.8191  128.8184 N   0  0  0  0  0  0  0  0  0  0  0  0
    5.9907   49.1909  127.9797 C   0  0  0  0  0  0  0  0  0  0  0  0
    5.9176   47.6999  127.9754 C   0  0  0  0  0  0  0  0  0  0  0  0
    5.8046   47.0629  129.3254 C   0  0  0  0  0  0  0  0  0  0  0  0
    4.7926   47.7950  130.1902 C   0  0  0  0  0  0  0  0  0  0  0  0
    4.0773   48.8240  129.3122 C   0  0  0  0  0  0  0  0  0  0  0  0
 20 21  1  0  0  0
 21 22  1  0  0  0
 21 14  1  0  0  0
 14 15  2  0  0  0
 15 16  1  0  0  0
 16 17  2  0  0  0
 17 18  1  0  0  0
 18 19  2  0  0  0
 18  1  1  0  0  0
  1  2  1  0  0  0
  2  3  1  0  0  0
  3  4  1  0  0  0
  4  5  2  0  0  0
  5  6  1  0  0  0
  6  7  1  0  0  0
  6  8  2  0  0  0
  8  9  1  0  0  0
  9 10  2  0  0  0
 10 11  1  0  0  0
 11 12  1  0  0  0
 11 23  1  0  0  0
 23 24  2  0  0  0
 24 25  1  0  0  0
 25 26  2  0  0  0
 26 29  1  0  0  0
 29 30  1  0  0  0
 30 31  1  0  0  0
 31 32  1  0  0  0
 32 33  1  0  0  0
 33 34  1  0  0  0
 34 35  1  0  0  0
 35 36  1  0  0  0
 36 37  1  0  0  0
 26 27  1  0  0  0
 27 28  2  0  0  0
 19 14  1  0  0  0
 11  1  1  0  0  0
 28 23  1  0  0  0
 10  4  1  0  0  0
 37 32  1  0  0  0
  7 13  1  0  0  0
M  END
> <minimizedAffinity>
11.38438

> <CNNscore>
0.3881471455

> <CNNaffinity>
7.9651670456

> <CNN_VS>
3.0916569233

> <CNNaffinity_variance>
0.8959770203

$$$$
[H]Oc1c([H])c([H])c2c(c1[H])C([H])([H])C([H])([H])N(c1c([H])c([H])c([H])c(N(C([H])([H])[H])C([H])([H])[H])c1[H])C2(c1c([H])c([H])c(OC([H])([H])C([H])([H])N2C([H])([H])C([H])([H])C([H])([H])C([H])([H])C2([H])[H])c([H])c1[H])C([H])([H])[H]


 37 41  0  0  0  0  0  0  0  0999 V2000
    9.5900   44.1283  133.3286 N   0  0  0  0  0  0  0  0  0  0  0  0
    8.7512   45.2474  133.8414 C   0  0  0  0  0  0  0  0  0  0  0  0
    9.5365   46.0797  134.8067 C   0  0  0  0  0  0  0  0  0  0  0  0
   10.9510   46.1587  134.3719 C   0  0  0  0  0  0  0  0  0  0  0  0
   11.7389   47.0402  135.1440 C   0  0  0  0  0  0  0  0  0  0  0  0
   13.0713   47.2249  134.8711 C   0  0  0  0  0  0  0  0  0  0  0  0
   13.8401   48.1041  135.6475 O   0  0  0  0  0  0  0  0  0  0  0  0
   13.6238   46.5252  133.8195 C   0  0  0  0  0  0  0  0  0  0  0  0
   12.8532   45.6642  133.0656 C   0  0  0  0  0  0  0  0  0  0  0  0
   11.5132   45.4680  133.3273 C   0  0  0  0  0  0  0  0  0  0  0  0
   10.6909   44.5292  132.4951 C   0  0  0  0  0  0  0  0  0  0  0  0
   11.6025   43.4163  132.0622 C   0  0  0  0  0  0  0  0  0  0  0  0
   14.2922   47.6778  136.4642 H   0  0  0  0  0  0  0  0  0  0  0  0
    7.3879   41.3373  134.2903 C   0  0  0  0  0  0  0  0  0  0  0  0
    8.2787   40.2925  134.3656 C   0  0  0  0  0  0  0  0  0  0  0  0
    9.6158   40.4891  134.1078 C   0  0  0  0  0  0  0  0  0  0  0  0
   10.0671   41.7575  133.7683 C   0  0  0  0  0  0  0  0  0  0  0  0
    9.2181   42.8222  133.6813 C   0  0  0  0  0  0  0  0  0  0  0  0
    7.8700   42.5628  133.9544 C   0  0  0  0  0  0  0  0  0  0  0  0
    5.5722   39.7712  134.9484 C   0  0  0  0  0  0  0  0  0  0  0  0
    6.0093   41.1139  134.5599 N   0  0  0  0  0  0  0  0  0  0  0  0
    5.0024   42.1216  134.4776 C   0  0  0  0  0  0  0  0  0  0  0  0
   10.2346   45.2112  131.2458 C   0  0  0  0  0  0  0  0  0  0  0  0
    9.0585   44.7481  130.6804 C   0  0  0  0  0  0  0  0  0  0  0  0
    8.5400   45.2868  129.5234 C   0  0  0  0  0  0  0  0  0  0  0  0
    9.2133   46.3190  128.9098 C   0  0  0  0  0  0  0  0  0  0  0  0
   10.3851   46.7745  129.4804 C   0  0  0  0  0  0  0  0  0  0  0  0
   10.8937   46.2280  130.6373 C   0  0  0  0  0  0  0  0  0  0  0  0
    8.6976   46.8621  127.7502 O   0  0  0  0  0  0  0  0  0  0  0  0
    7.7227   47.8460  127.7449 C   0  0  0  0  0  0  0  0  0  0  0  0
    8.0262   48.9903  128.6326 C   0  0  0  0  0  0  0  0  0  0  0  0
    7.3896   49.0709  129.8904 N   0  0  0  0  0  0  0  0  0  0  0  0
    7.0207   50.4617  130.1809 C   0  0  0  0  0  0  0  0  0  0  0  0
    5.5822   50.6263  130.5441 C   0  0  0  0  0  0  0  0  0  0  0  0
    4.6113   49.9506  129.6265 C   0  0  0  0  0  0  0  0  0  0  0  0
    5.0737   48.5447  129.2838 C   0  0  0  0  0  0  0  0  0  0  0  0
    6.2852   48.2190  130.1600 C   0  0  0  0  0  0  0  0  0  0  0  0
 20 21  1  0  0  0
 21 22  1  0  0  0
 21 14  1  0  0  0
 14 15  2  0  0  0
 15 16  1  0  0  0
 16 17  2  0  0  0
 17 18  1  0  0  0
 18 19  2  0  0  0
 18  1  1  0  0  0
  1  2  1  0  0  0
  2  3  1  0  0  0
  3  4  1  0  0  0
  4  5  2  0  0  0
  5  6  1  0  0  0
  6  7  1  0  0  0
  6  8  2  0  0  0
  8  9  1  0  0  0
  9 10  2  0  0  0
 10 11  1  0  0  0
 11 12  1  0  0  0
 11 23  1  0  0  0
 23 24  2  0  0  0
 24 25  1  0  0  0
 25 26  2  0  0  0
 26 29  1  0  0  0
 29 30  1  0  0  0
 30 31  1  0  0  0
 31 32  1  0  0  0
 32 33  1  0  0  0
 33 34  1  0  0  0
 34 35  1  0  0  0
 35 36  1  0  0  0
 36 37  1  0  0  0
 26 27  1  0  0  0
 27 28  2  0  0  0
 19 14  1  0  0  0
 11  1  1  0  0  0
 28 23  1  0  0  0
 10  4  1  0  0  0
 37 32  1  0  0  0
  7 13  1  0  0  0
M  END
> <minimizedAffinity>
28.10818

> <CNNscore>
0.3866646588

> <CNNaffinity>
7.8016805649

> <CNN_VS>
3.0166342258

> <CNNaffinity_variance>
2.0924177170

$$$$
[H]Oc1c([H])c([H])c2c(c1[H])C([H])([H])C([H])([H])N(c1c([H])c([H])c([H])c(N(C([H])([H])[H])C([H])([H])[H])c1[H])C2(c1c([H])c([H])c(OC([H])([H])C([H])([H])N2C([H])([H])C([H])([H])C([H])([H])C([H])([H])C2([H])[H])c([H])c1[H])C([H])([H])[H]


 37 41  0  0  0  0  0  0  0  0999 V2000
    9.7066   44.0794  131.5757 N   0  0  0  0  0  0  0  0  0  0  0  0
   10.5760   44.2989  132.7652 C   0  0  0  0  0  0  0  0  0  0  0  0
   11.9906   43.9282  132.4451 C   0  0  0  0  0  0  0  0  0  0  0  0
   12.3017   44.2862  131.0411 C   0  0  0  0  0  0  0  0  0  0  0  0
   13.6574   44.1034  130.6907 C   0  0  0  0  0  0  0  0  0  0  0  0
   14.1078   44.3878  129.4256 C   0  0  0  0  0  0  0  0  0  0  0  0
   15.4574   44.2008  129.0935 O   0  0  0  0  0  0  0  0  0  0  0  0
   13.1995   44.8586  128.5014 C   0  0  0  0  0  0  0  0  0  0  0  0
   11.8751   45.0368  128.8449 C   0  0  0  0  0  0  0  0  0  0  0  0
   11.4074   44.7557  130.1116 C   0  0  0  0  0  0  0  0  0  0  0  0
    9.9642   44.9579  130.4670 C   0  0  0  0  0  0  0  0  0  0  0  0
    9.1648   44.6730  129.2273 C   0  0  0  0  0  0  0  0  0  0  0  0
   15.6883   43.2699  128.7287 H   0  0  0  0  0  0  0  0  0  0  0  0
    7.4636   41.6082  133.1331 C   0  0  0  0  0  0  0  0  0  0  0  0
    6.7951   41.1101  132.0394 C   0  0  0  0  0  0  0  0  0  0  0  0
    7.0743   41.5734  130.7744 C   0  0  0  0  0  0  0  0  0  0  0  0
    8.0421   42.5543  130.6038 C   0  0  0  0  0  0  0  0  0  0  0  0
    8.7289   43.0768  131.6608 C   0  0  0  0  0  0  0  0  0  0  0  0
    8.4032   42.5675  132.9232 C   0  0  0  0  0  0  0  0  0  0  0  0
    5.7608   41.0614  134.8605 C   0  0  0  0  0  0  0  0  0  0  0  0
    7.1605   41.1169  134.4330 N   0  0  0  0  0  0  0  0  0  0  0  0
    8.1391   40.6660  135.3684 C   0  0  0  0  0  0  0  0  0  0  0  0
    9.7130   46.3907  130.8111 C   0  0  0  0  0  0  0  0  0  0  0  0
   10.0009   47.3240  129.8295 C   0  0  0  0  0  0  0  0  0  0  0  0
    9.8225   48.6754  130.0288 C   0  0  0  0  0  0  0  0  0  0  0  0
    9.3424   49.1115  131.2432 C   0  0  0  0  0  0  0  0  0  0  0  0
    9.0580   48.1740  132.2160 C   0  0  0  0  0  0  0  0  0  0  0  0
    9.2405   46.8257  132.0052 C   0  0  0  0  0  0  0  0  0  0  0  0
    9.1620   50.4648  131.4474 O   0  0  0  0  0  0  0  0  0  0  0  0
    8.1333   51.1865  130.8647 C   0  0  0  0  0  0  0  0  0  0  0  0
    6.8487   50.4543  130.8093 C   0  0  0  0  0  0  0  0  0  0  0  0
    6.2588   50.1972  129.5524 N   0  0  0  0  0  0  0  0  0  0  0  0
    7.2953   49.8676  128.5667 C   0  0  0  0  0  0  0  0  0  0  0  0
    7.0380   48.5852  127.8471 C   0  0  0  0  0  0  0  0  0  0  0  0
    6.6819   47.4235  128.7217 C   0  0  0  0  0  0  0  0  0  0  0  0
    5.6708   47.8286  129.7806 C   0  0  0  0  0  0  0  0  0  0  0  0
    5.2024   49.2512  129.4671 C   0  0  0  0  0  0  0  0  0  0  0  0
 20 21  1  0  0  0
 21 22  1  0  0  0
 21 14  1  0  0  0
 14 15  2  0  0  0
 15 16  1  0  0  0
 16 17  2  0  0  0
 17 18  1  0  0  0
 18 19  2  0  0  0
 18  1  1  0  0  0
  1  2  1  0  0  0
  2  3  1  0  0  0
  3  4  1  0  0  0
  4  5  2  0  0  0
  5  6  1  0  0  0
  6  7  1  0  0  0
  6  8  2  0  0  0
  8  9  1  0  0  0
  9 10  2  0  0  0
 10 11  1  0  0  0
 11 12  1  0  0  0
 11 23  1  0  0  0
 23 24  2  0  0  0
 24 25  1  0  0  0
 25 26  2  0  0  0
 26 29  1  0  0  0
 29 30  1  0  0  0
 30 31  1  0  0  0
 31 32  1  0  0  0
 32 33  1  0  0  0
 33 34  1  0  0  0
 34 35  1  0  0  0
 35 36  1  0  0  0
 36 37  1  0  0  0
 26 27  1  0  0  0
 27 28  2  0  0  0
 19 14  1  0  0  0
 11  1  1  0  0  0
 28 23  1  0  0  0
 10  4  1  0  0  0
 37 32  1  0  0  0
  7 13  1  0  0  0
M  END
> <minimizedAffinity>
10.95042

> <CNNscore>
0.3836921155

> <CNNaffinity>
7.8835358620

> <CNN_VS>
3.0248506069

> <CNNaffinity_variance>
0.7273288965

$$$$
[H]Oc1c([H])c([H])c2c(c1[H])C([H])([H])C([H])([H])N(c1c([H])c([H])c([H])c(N(C([H])([H])[H])C([H])([H])[H])c1[H])C2(c1c([H])c([H])c(OC([H])([H])C([H])([H])N2C([H])([H])C([H])([H])C([H])([H])C([H])([H])C2([H])[H])c([H])c1[H])C([H])([H])[H]


 37 41  0  0  0  0  0  0  0  0999 V2000
    8.6639   47.0348  132.1684 N   0  0  0  0  0  0  0  0  0  0  0  0
    7.4328   46.3934  131.6279 C   0  0  0  0  0  0  0  0  0  0  0  0
    6.4840   47.4383  131.1287 C   0  0  0  0  0  0  0  0  0  0  0  0
    7.2399   48.5589  130.5214 C   0  0  0  0  0  0  0  0  0  0  0  0
    6.4242   49.5268  129.8954 C   0  0  0  0  0  0  0  0  0  0  0  0
    6.9708   50.6290  129.2868 C   0  0  0  0  0  0  0  0  0  0  0  0
    6.1469   51.5812  128.6694 O   0  0  0  0  0  0  0  0  0  0  0  0
    8.3424   50.7680  129.3017 C   0  0  0  0  0  0  0  0  0  0  0  0
    9.1385   49.8217  129.9135 C   0  0  0  0  0  0  0  0  0  0  0  0
    8.6043   48.7090  130.5292 C   0  0  0  0  0  0  0  0  0  0  0  0
    9.4862   47.6897  131.1873 C   0  0  0  0  0  0  0  0  0  0  0  0
   10.6721   48.4287  131.7389 C   0  0  0  0  0  0  0  0  0  0  0  0
    5.8362   52.3453  129.2798 H   0  0  0  0  0  0  0  0  0  0  0  0
   10.0168   45.6507  135.3017 C   0  0  0  0  0  0  0  0  0  0  0  0
    9.5284   46.5377  136.2321 C   0  0  0  0  0  0  0  0  0  0  0  0
    8.7432   47.5995  135.8462 C   0  0  0  0  0  0  0  0  0  0  0  0
    8.4427   47.7743  134.5019 C   0  0  0  0  0  0  0  0  0  0  0  0
    8.9066   46.9190  133.5454 C   0  0  0  0  0  0  0  0  0  0  0  0
    9.6999   45.8575  133.9963 C   0  0  0  0  0  0  0  0  0  0  0  0
   11.7163   43.9229  134.7457 C   0  0  0  0  0  0  0  0  0  0  0  0
   10.8274   44.5595  135.7202 N   0  0  0  0  0  0  0  0  0  0  0  0
   10.8375   44.0298  137.0451 C   0  0  0  0  0  0  0  0  0  0  0  0
   10.0203   46.7345  130.1693 C   0  0  0  0  0  0  0  0  0  0  0  0
    9.1188   46.2587  129.2320 C   0  0  0  0  0  0  0  0  0  0  0  0
    9.4863   45.3657  128.2495 C   0  0  0  0  0  0  0  0  0  0  0  0
   10.7921   44.9326  128.1983 C   0  0  0  0  0  0  0  0  0  0  0  0
   11.6841   45.4121  129.1367 C   0  0  0  0  0  0  0  0  0  0  0  0
   11.3050   46.3046  130.1142 C   0  0  0  0  0  0  0  0  0  0  0  0
   11.1649   44.0377  127.2156 O   0  0  0  0  0  0  0  0  0  0  0  0
   10.7274   42.7239  127.1843 C   0  0  0  0  0  0  0  0  0  0  0  0
    9.5840   42.4551  128.0843 C   0  0  0  0  0  0  0  0  0  0  0  0
    9.8165   41.7965  129.3115 N   0  0  0  0  0  0  0  0  0  0  0  0
   10.8610   42.4958  130.0694 C   0  0  0  0  0  0  0  0  0  0  0  0
   10.4481   42.8406  131.4619 C   0  0  0  0  0  0  0  0  0  0  0  0
    9.1076   43.4954  131.5861 C   0  0  0  0  0  0  0  0  0  0  0  0
    8.0757   42.7923  130.7207 C   0  0  0  0  0  0  0  0  0  0  0  0
    8.7148   41.5183  130.1641 C   0  0  0  0  0  0  0  0  0  0  0  0
 20 21  1  0  0  0
 21 22  1  0  0  0
 21 14  1  0  0  0
 14 15  2  0  0  0
 15 16  1  0  0  0
 16 17  2  0  0  0
 17 18  1  0  0  0
 18 19  2  0  0  0
 18  1  1  0  0  0
  1  2  1  0  0  0
  2  3  1  0  0  0
  3  4  1  0  0  0
  4  5  2  0  0  0
  5  6  1  0  0  0
  6  7  1  0  0  0
  6  8  2  0  0  0
  8  9  1  0  0  0
  9 10  2  0  0  0
 10 11  1  0  0  0
 11 12  1  0  0  0
 11 23  1  0  0  0
 23 24  2  0  0  0
 24 25  1  0  0  0
 25 26  2  0  0  0
 26 29  1  0  0  0
 29 30  1  0  0  0
 30 31  1  0  0  0
 31 32  1  0  0  0
 32 33  1  0  0  0
 33 34  1  0  0  0
 34 35  1  0  0  0
 35 36  1  0  0  0
 36 37  1  0  0  0
 26 27  1  0  0  0
 27 28  2  0  0  0
 19 14  1  0  0  0
 11  1  1  0  0  0
 28 23  1  0  0  0
 10  4  1  0  0  0
 37 32  1  0  0  0
  7 13  1  0  0  0
M  END
> <minimizedAffinity>
9.26952

> <CNNscore>
0.3812924325

> <CNNaffinity>
7.7648954391

> <CNN_VS>
2.9606959820

> <CNNaffinity_variance>
0.4409920275

$$$$
[H]Oc1c([H])c([H])c(C(=C(c2c([H])c([H])c([H])c([H])c2[H])C([H])([H])[H])c2c([H])c([H])c(O[H])c([H])c2[H])c([H])c1[H]


 25 27  0  0  0  0  0  0  0  0999 V2000
    9.7042   48.1457  133.0303 C   0  0  0  0  0  0  0  0  0  0  0  0
    9.9075   46.9346  132.1915 C   0  0  0  0  0  0  0  0  0  0  0  0
    9.4762   46.9245  130.9608 C   0  0  0  0  0  0  0  0  0  0  0  0
    9.6425   45.7717  130.0446 C   0  0  0  0  0  0  0  0  0  0  0  0
   10.6485   45.6801  129.1205 C   0  0  0  0  0  0  0  0  0  0  0  0
   10.7508   44.5692  128.2866 C   0  0  0  0  0  0  0  0  0  0  0  0
    9.8341   43.5389  128.3805 C   0  0  0  0  0  0  0  0  0  0  0  0
    9.9238   42.4267  127.5568 O   0  0  0  0  0  0  0  0  0  0  0  0
    8.8203   43.6220  129.3050 C   0  0  0  0  0  0  0  0  0  0  0  0
    8.7386   44.7311  130.1206 C   0  0  0  0  0  0  0  0  0  0  0  0
   10.4769   41.6399  127.8903 H   0  0  0  0  0  0  0  0  0  0  0  0
    8.7372   48.0663  130.4254 C   0  0  0  0  0  0  0  0  0  0  0  0
    8.8539   49.3248  130.9510 C   0  0  0  0  0  0  0  0  0  0  0  0
    8.1762   50.4402  130.4389 C   0  0  0  0  0  0  0  0  0  0  0  0
    7.3485   50.2692  129.3524 C   0  0  0  0  0  0  0  0  0  0  0  0
    6.6953   51.3930  128.8721 O   0  0  0  0  0  0  0  0  0  0  0  0
    7.2005   49.0020  128.7862 C   0  0  0  0  0  0  0  0  0  0  0  0
    7.8872   47.9363  129.3238 C   0  0  0  0  0  0  0  0  0  0  0  0
    7.2016   51.9248  128.1480 H   0  0  0  0  0  0  0  0  0  0  0  0
   10.5384   45.8019  132.8865 C   0  0  0  0  0  0  0  0  0  0  0  0
   11.9198   45.6381  132.8546 C   0  0  0  0  0  0  0  0  0  0  0  0
   12.5716   44.6280  133.5291 C   0  0  0  0  0  0  0  0  0  0  0  0
   11.8143   43.7419  134.2682 C   0  0  0  0  0  0  0  0  0  0  0  0
   10.4459   43.8482  134.3403 C   0  0  0  0  0  0  0  0  0  0  0  0
    9.8363   44.8869  133.6402 C   0  0  0  0  0  0  0  0  0  0  0  0
  1  2  1  0  0  0
  2  3  2  0  0  0
  3  4  1  0  0  0
  4  5  2  0  0  0
  5  6  1  0  0  0
  6  7  2  0  0  0
  7  8  1  0  0  0
  7  9  1  0  0  0
  9 10  2  0  0  0
  3 12  1  0  0  0
 12 13  2  0  0  0
 13 14  1  0  0  0
 14 15  2  0  0  0
 15 16  1  0  0  0
 15 17  1  0  0  0
 17 18  2  0  0  0
  2 20  1  0  0  0
 20 21  2  0  0  0
 21 22  1  0  0  0
 22 23  2  0  0  0
 23 24  1  0  0  0
 24 25  2  0  0  0
 10  4  1  0  0  0
 18 12  1  0  0  0
 25 20  1  0  0  0
  8 11  1  0  0  0
 16 19  1  0  0  0
M  END
> <minimizedAffinity>
-10.23479

> <CNNscore>
0.8255866766

> <CNNaffinity>
8.0361394882

> <CNN_VS>
6.6345295906

> <CNNaffinity_variance>
1.0419796705

$$$$
[H]Oc1c([H])c([H])c(C(=C(c2c([H])c([H])c([H])c([H])c2[H])C([H])([H])[H])c2c([H])c([H])c(O[H])c([H])c2[H])c([H])c1[H]


 25 27  0  0  0  0  0  0  0  0999 V2000
   10.0118   48.3975  132.9232 C   0  0  0  0  0  0  0  0  0  0  0  0
   10.0996   47.1203  132.1664 C   0  0  0  0  0  0  0  0  0  0  0  0
    9.5528   47.0332  130.9857 C   0  0  0  0  0  0  0  0  0  0  0  0
    9.5981   45.8096  130.1510 C   0  0  0  0  0  0  0  0  0  0  0  0
    8.7401   44.7545  130.3095 C   0  0  0  0  0  0  0  0  0  0  0  0
    8.8342   43.6308  129.4922 C   0  0  0  0  0  0  0  0  0  0  0  0
    9.7994   43.5642  128.5050 C   0  0  0  0  0  0  0  0  0  0  0  0
    9.9047   42.4516  127.6838 O   0  0  0  0  0  0  0  0  0  0  0  0
   10.6657   44.6184  128.3383 C   0  0  0  0  0  0  0  0  0  0  0  0
   10.5539   45.7212  129.1588 C   0  0  0  0  0  0  0  0  0  0  0  0
    9.3676   42.4548  126.8191 H   0  0  0  0  0  0  0  0  0  0  0  0
    8.7990   48.1572  130.4336 C   0  0  0  0  0  0  0  0  0  0  0  0
    8.8181   49.4014  131.0039 C   0  0  0  0  0  0  0  0  0  0  0  0
    8.1250   50.5011  130.4786 C   0  0  0  0  0  0  0  0  0  0  0  0
    7.3844   50.3289  129.3312 C   0  0  0  0  0  0  0  0  0  0  0  0
    6.7131   51.4370  128.8395 O   0  0  0  0  0  0  0  0  0  0  0  0
    7.3375   49.0759  128.7178 C   0  0  0  0  0  0  0  0  0  0  0  0
    8.0353   48.0253  129.2707 C   0  0  0  0  0  0  0  0  0  0  0  0
    7.2427   52.0154  128.1698 H   0  0  0  0  0  0  0  0  0  0  0  0
   10.7613   46.0212  132.8863 C   0  0  0  0  0  0  0  0  0  0  0  0
   10.1663   45.4583  134.0111 C   0  0  0  0  0  0  0  0  0  0  0  0
   10.7120   44.3932  134.6952 C   0  0  0  0  0  0  0  0  0  0  0  0
   11.9028   43.8653  134.2390 C   0  0  0  0  0  0  0  0  0  0  0  0
   12.5417   44.3757  133.1343 C   0  0  0  0  0  0  0  0  0  0  0  0
   11.9481   45.4522  132.4789 C   0  0  0  0  0  0  0  0  0  0  0  0
  1  2  1  0  0  0
  2  3  2  0  0  0
  3  4  1  0  0  0
  4  5  2  0  0  0
  5  6  1  0  0  0
  6  7  2  0  0  0
  7  8  1  0  0  0
  7  9  1  0  0  0
  9 10  2  0  0  0
  3 12  1  0  0  0
 12 13  2  0  0  0
 13 14  1  0  0  0
 14 15  2  0  0  0
 15 16  1  0  0  0
 15 17  1  0  0  0
 17 18  2  0  0  0
  2 20  1  0  0  0
 20 21  2  0  0  0
 21 22  1  0  0  0
 22 23  2  0  0  0
 23 24  1  0  0  0
 24 25  2  0  0  0
 10  4  1  0  0  0
 18 12  1  0  0  0
 25 20  1  0  0  0
  8 11  1  0  0  0
 16 19  1  0  0  0
M  END
> <minimizedAffinity>
-10.59421

> <CNNscore>
0.8173756599

> <CNNaffinity>
8.0137186050

> <CNN_VS>
6.5502185822

> <CNNaffinity_variance>
0.9981895685

$$$$
[H]Oc1c([H])c([H])c(C(=C(c2c([H])c([H])c([H])c([H])c2[H])C([H])([H])[H])c2c([H])c([H])c(O[H])c([H])c2[H])c([H])c1[H]


 25 27  0  0  0  0  0  0  0  0999 V2000
    9.6668   46.0974  128.6276 C   0  0  0  0  0  0  0  0  0  0  0  0
    9.7549   45.9152  130.1010 C   0  0  0  0  0  0  0  0  0  0  0  0
    9.1844   46.7814  130.8916 C   0  0  0  0  0  0  0  0  0  0  0  0
    9.2062   46.6789  132.3698 C   0  0  0  0  0  0  0  0  0  0  0  0
    8.2380   46.0402  133.0973 C   0  0  0  0  0  0  0  0  0  0  0  0
    8.3152   45.9785  134.4865 C   0  0  0  0  0  0  0  0  0  0  0  0
    9.3750   46.5637  135.1537 C   0  0  0  0  0  0  0  0  0  0  0  0
    9.4649   46.5100  136.5365 O   0  0  0  0  0  0  0  0  0  0  0  0
   10.3518   47.2076  134.4320 C   0  0  0  0  0  0  0  0  0  0  0  0
   10.2552   47.2560  133.0571 C   0  0  0  0  0  0  0  0  0  0  0  0
    9.9611   45.7198  136.9436 H   0  0  0  0  0  0  0  0  0  0  0  0
    8.5200   47.9614  130.3415 C   0  0  0  0  0  0  0  0  0  0  0  0
    8.7857   49.2267  130.7911 C   0  0  0  0  0  0  0  0  0  0  0  0
    8.1813   50.3757  130.2620 C   0  0  0  0  0  0  0  0  0  0  0  0
    7.2723   50.2326  129.2381 C   0  0  0  0  0  0  0  0  0  0  0  0
    6.6951   51.3892  128.7387 O   0  0  0  0  0  0  0  0  0  0  0  0
    6.9721   48.9597  128.7504 C   0  0  0  0  0  0  0  0  0  0  0  0
    7.5917   47.8603  129.3018 C   0  0  0  0  0  0  0  0  0  0  0  0
    7.1999   51.8355  127.9580 H   0  0  0  0  0  0  0  0  0  0  0  0
   10.5683   44.7681  130.5330 C   0  0  0  0  0  0  0  0  0  0  0  0
   11.9486   44.8917  130.6573 C   0  0  0  0  0  0  0  0  0  0  0  0
   12.7561   43.8691  131.1074 C   0  0  0  0  0  0  0  0  0  0  0  0
   12.1629   42.6706  131.4488 C   0  0  0  0  0  0  0  0  0  0  0  0
   10.8049   42.4837  131.3483 C   0  0  0  0  0  0  0  0  0  0  0  0
   10.0339   43.5489  130.8882 C   0  0  0  0  0  0  0  0  0  0  0  0
  1  2  1  0  0  0
  2  3  2  0  0  0
  3  4  1  0  0  0
  4  5  2  0  0  0
  5  6  1  0  0  0
  6  7  2  0  0  0
  7  8  1  0  0  0
  7  9  1  0  0  0
  9 10  2  0  0  0
  3 12  1  0  0  0
 12 13  2  0  0  0
 13 14  1  0  0  0
 14 15  2  0  0  0
 15 16  1  0  0  0
 15 17  1  0  0  0
 17 18  2  0  0  0
  2 20  1  0  0  0
 20 21  2  0  0  0
 21 22  1  0  0  0
 22 23  2  0  0  0
 23 24  1  0  0  0
 24 25  2  0  0  0
 10  4  1  0  0  0
 18 12  1  0  0  0
 25 20  1  0  0  0
  8 11  1  0  0  0
 16 19  1  0  0  0
M  END
> <minimizedAffinity>
-7.75704

> <CNNscore>
0.4646649957

> <CNNaffinity>
7.2999267578

> <CNN_VS>
3.3920204639

> <CNNaffinity_variance>
0.4734469056

$$$$
[H]Oc1c([H])c([H])c(C(=C(c2c([H])c([H])c([H])c([H])c2[H])C([H])([H])[H])c2c([H])c([H])c(O[H])c([H])c2[H])c([H])c1[H]


 25 27  0  0  0  0  0  0  0  0999 V2000
   10.7034   44.8101  132.2481 C   0  0  0  0  0  0  0  0  0  0  0  0
    9.7351   45.8718  131.8646 C   0  0  0  0  0  0  0  0  0  0  0  0
    9.1484   45.8176  130.7012 C   0  0  0  0  0  0  0  0  0  0  0  0
    8.1612   46.8197  130.2350 C   0  0  0  0  0  0  0  0  0  0  0  0
    8.4967   48.0932  129.8605 C   0  0  0  0  0  0  0  0  0  0  0  0
    7.5211   48.9897  129.4312 C   0  0  0  0  0  0  0  0  0  0  0  0
    6.1946   48.6050  129.3768 C   0  0  0  0  0  0  0  0  0  0  0  0
    5.2126   49.4870  128.9513 O   0  0  0  0  0  0  0  0  0  0  0  0
    5.8479   47.3286  129.7511 C   0  0  0  0  0  0  0  0  0  0  0  0
    6.8305   46.4575  130.1726 C   0  0  0  0  0  0  0  0  0  0  0  0
    4.9962   49.5032  127.9567 H   0  0  0  0  0  0  0  0  0  0  0  0
    9.4865   44.7611  129.7494 C   0  0  0  0  0  0  0  0  0  0  0  0
    8.9655   43.4988  129.8420 C   0  0  0  0  0  0  0  0  0  0  0  0
    9.2539   42.4765  128.9269 C   0  0  0  0  0  0  0  0  0  0  0  0
   10.1044   42.7479  127.8791 C   0  0  0  0  0  0  0  0  0  0  0  0
   10.3666   41.7149  126.9935 O   0  0  0  0  0  0  0  0  0  0  0  0
   10.6583   44.0225  127.7481 C   0  0  0  0  0  0  0  0  0  0  0  0
   10.3452   44.9946  128.6718 C   0  0  0  0  0  0  0  0  0  0  0  0
    9.7240   41.6456  126.1899 H   0  0  0  0  0  0  0  0  0  0  0  0
    9.5854   46.9546  132.8491 C   0  0  0  0  0  0  0  0  0  0  0  0
   10.1958   48.1869  132.6376 C   0  0  0  0  0  0  0  0  0  0  0  0
   10.0487   49.2547  133.4970 C   0  0  0  0  0  0  0  0  0  0  0  0
    9.2588   49.0878  134.6164 C   0  0  0  0  0  0  0  0  0  0  0  0
    8.6289   47.8958  134.8833 C   0  0  0  0  0  0  0  0  0  0  0  0
    8.8100   46.8483  133.9830 C   0  0  0  0  0  0  0  0  0  0  0  0
  1  2  1  0  0  0
  2  3  2  0  0  0
  3  4  1  0  0  0
  4  5  2  0  0  0
  5  6  1  0  0  0
  6  7  2  0  0  0
  7  8  1  0  0  0
  7  9  1  0  0  0
  9 10  2  0  0  0
  3 12  1  0  0  0
 12 13  2  0  0  0
 13 14  1  0  0  0
 14 15  2  0  0  0
 15 16  1  0  0  0
 15 17  1  0  0  0
 17 18  2  0  0  0
  2 20  1  0  0  0
 20 21  2  0  0  0
 21 22  1  0  0  0
 22 23  2  0  0  0
 23 24  1  0  0  0
 24 25  2  0  0  0
 10  4  1  0  0  0
 18 12  1  0  0  0
 25 20  1  0  0  0
  8 11  1  0  0  0
 16 19  1  0  0  0
M  END
> <minimizedAffinity>
-2.38824

> <CNNscore>
0.4601100087

> <CNNaffinity>
7.3223509789

> <CNN_VS>
3.3690869808

> <CNNaffinity_variance>
1.7108128071

$$$$
[H]Oc1c([H])c([H])c(C(=C(c2c([H])c([H])c([H])c([H])c2[H])C([H])([H])[H])c2c([H])c([H])c(O[H])c([H])c2[H])c([H])c1[H]


 25 27  0  0  0  0  0  0  0  0999 V2000
    9.5012   41.6786  127.0718 C   0  0  0  0  0  0  0  0  0  0  0  0
   10.1836   42.4279  128.1602 C   0  0  0  0  0  0  0  0  0  0  0  0
   11.4739   42.6095  128.1054 C   0  0  0  0  0  0  0  0  0  0  0  0
   12.2403   43.3523  129.1334 C   0  0  0  0  0  0  0  0  0  0  0  0
   13.3509   44.1022  128.8527 C   0  0  0  0  0  0  0  0  0  0  0  0
   14.0288   44.7776  129.8647 C   0  0  0  0  0  0  0  0  0  0  0  0
   13.5882   44.7002  131.1725 C   0  0  0  0  0  0  0  0  0  0  0  0
   14.2532   45.3675  132.1903 O   0  0  0  0  0  0  0  0  0  0  0  0
   12.4742   43.9495  131.4643 C   0  0  0  0  0  0  0  0  0  0  0  0
   11.8184   43.2895  130.4464 C   0  0  0  0  0  0  0  0  0  0  0  0
   13.9539   46.3172  132.4018 H   0  0  0  0  0  0  0  0  0  0  0  0
   12.2589   42.0248  127.0199 C   0  0  0  0  0  0  0  0  0  0  0  0
   12.3685   40.6719  126.8429 C   0  0  0  0  0  0  0  0  0  0  0  0
   13.0936   40.0876  125.7948 C   0  0  0  0  0  0  0  0  0  0  0  0
   13.7314   40.9097  124.8936 C   0  0  0  0  0  0  0  0  0  0  0  0
   14.4378   40.2986  123.8701 O   0  0  0  0  0  0  0  0  0  0  0  0
   13.6456   42.2955  125.0381 C   0  0  0  0  0  0  0  0  0  0  0  0
   12.9213   42.8232  126.0836 C   0  0  0  0  0  0  0  0  0  0  0  0
   13.8999   40.1103  123.0106 H   0  0  0  0  0  0  0  0  0  0  0  0
    9.3071   42.8440  129.2659 C   0  0  0  0  0  0  0  0  0  0  0  0
    9.0828   41.9934  130.3440 C   0  0  0  0  0  0  0  0  0  0  0  0
    8.3147   42.3478  131.4325 C   0  0  0  0  0  0  0  0  0  0  0  0
    7.7448   43.6047  131.4480 C   0  0  0  0  0  0  0  0  0  0  0  0
    7.9270   44.4919  130.4143 C   0  0  0  0  0  0  0  0  0  0  0  0
    8.7121   44.0846  129.3380 C   0  0  0  0  0  0  0  0  0  0  0  0
  1  2  1  0  0  0
  2  3  2  0  0  0
  3  4  1  0  0  0
  4  5  2  0  0  0
  5  6  1  0  0  0
  6  7  2  0  0  0
  7  8  1  0  0  0
  7  9  1  0  0  0
  9 10  2  0  0  0
  3 12  1  0  0  0
 12 13  2  0  0  0
 13 14  1  0  0  0
 14 15  2  0  0  0
 15 16  1  0  0  0
 15 17  1  0  0  0
 17 18  2  0  0  0
  2 20  1  0  0  0
 20 21  2  0  0  0
 21 22  1  0  0  0
 22 23  2  0  0  0
 23 24  1  0  0  0
 24 25  2  0  0  0
 10  4  1  0  0  0
 18 12  1  0  0  0
 25 20  1  0  0  0
  8 11  1  0  0  0
 16 19  1  0  0  0
M  END
> <minimizedAffinity>
41.94283

> <CNNscore>
0.4521755576

> <CNNaffinity>
6.0825371742

> <CNN_VS>
2.7503745556

> <CNNaffinity_variance>
1.5642557144

$$$$
[H]Oc1c([H])c([H])c(C(=C(c2c([H])c([H])c([H])c([H])c2[H])C([H])([H])[H])c2c([H])c([H])c(O[H])c([H])c2[H])c([H])c1[H]


 25 27  0  0  0  0  0  0  0  0999 V2000
   10.1105   44.0892  132.5501 C   0  0  0  0  0  0  0  0  0  0  0  0
    9.5831   45.4496  132.2619 C   0  0  0  0  0  0  0  0  0  0  0  0
    9.2781   45.7751  131.0365 C   0  0  0  0  0  0  0  0  0  0  0  0
    8.7351   47.0993  130.6524 C   0  0  0  0  0  0  0  0  0  0  0  0
    7.4699   47.2840  130.1626 C   0  0  0  0  0  0  0  0  0  0  0  0
    7.0178   48.5556  129.8187 C   0  0  0  0  0  0  0  0  0  0  0  0
    7.8434   49.6542  129.9675 C   0  0  0  0  0  0  0  0  0  0  0  0
    7.4065   50.9263  129.6292 O   0  0  0  0  0  0  0  0  0  0  0  0
    9.1155   49.4789  130.4582 C   0  0  0  0  0  0  0  0  0  0  0  0
    9.5419   48.2107  130.7926 C   0  0  0  0  0  0  0  0  0  0  0  0
    6.9517   51.4744  130.3565 H   0  0  0  0  0  0  0  0  0  0  0  0
    9.5147   44.8377  129.9402 C   0  0  0  0  0  0  0  0  0  0  0  0
   10.5067   45.0278  129.0165 C   0  0  0  0  0  0  0  0  0  0  0  0
   10.7700   44.1304  127.9720 C   0  0  0  0  0  0  0  0  0  0  0  0
    9.9950   42.9980  127.8625 C   0  0  0  0  0  0  0  0  0  0  0  0
   10.2835   42.1327  126.8193 O   0  0  0  0  0  0  0  0  0  0  0  0
    8.9721   42.7661  128.7835 C   0  0  0  0  0  0  0  0  0  0  0  0
    8.7514   43.6764  129.7930 C   0  0  0  0  0  0  0  0  0  0  0  0
   10.9731   41.3960  127.0317 H   0  0  0  0  0  0  0  0  0  0  0  0
    9.5228   46.3469  133.4261 C   0  0  0  0  0  0  0  0  0  0  0  0
    8.3814   46.3925  134.2206 C   0  0  0  0  0  0  0  0  0  0  0  0
    8.2857   47.1732  135.3527 C   0  0  0  0  0  0  0  0  0  0  0  0
    9.3748   47.9424  135.7094 C   0  0  0  0  0  0  0  0  0  0  0  0
   10.5314   47.9429  134.9670 C   0  0  0  0  0  0  0  0  0  0  0  0
   10.5765   47.1363  133.8321 C   0  0  0  0  0  0  0  0  0  0  0  0
  1  2  1  0  0  0
  2  3  2  0  0  0
  3  4  1  0  0  0
  4  5  2  0  0  0
  5  6  1  0  0  0
  6  7  2  0  0  0
  7  8  1  0  0  0
  7  9  1  0  0  0
  9 10  2  0  0  0
  3 12  1  0  0  0
 12 13  2  0  0  0
 13 14  1  0  0  0
 14 15  2  0  0  0
 15 16  1  0  0  0
 15 17  1  0  0  0
 17 18  2  0  0  0
  2 20  1  0  0  0
 20 21  2  0  0  0
 21 22  1  0  0  0
 22 23  2  0  0  0
 23 24  1  0  0  0
 24 25  2  0  0  0
 10  4  1  0  0  0
 18 12  1  0  0  0
 25 20  1  0  0  0
  8 11  1  0  0  0
 16 19  1  0  0  0
M  END
> <minimizedAffinity>
-2.00445

> <CNNscore>
0.4446387887

> <CNNaffinity>
7.4866943359

> <CNN_VS>
3.3288745880

> <CNNaffinity_variance>
2.2667458057

$$$$
[H]Oc1c([H])c([H])c(C(=C(c2c([H])c([H])c([H])c([H])c2[H])C([H])([H])[H])c2c([H])c([H])c(O[H])c([H])c2[H])c([H])c1[H]


 25 27  0  0  0  0  0  0  0  0999 V2000
    7.1872   45.5353  130.4705 C   0  0  0  0  0  0  0  0  0  0  0  0
    8.4776   45.4994  131.2091 C   0  0  0  0  0  0  0  0  0  0  0  0
    9.1291   46.6091  131.4201 C   0  0  0  0  0  0  0  0  0  0  0  0
   10.4139   46.6767  132.1555 C   0  0  0  0  0  0  0  0  0  0  0  0
   10.5028   46.9142  133.5010 C   0  0  0  0  0  0  0  0  0  0  0  0
   11.7419   46.9664  134.1348 C   0  0  0  0  0  0  0  0  0  0  0  0
   12.9047   46.7783  133.4114 C   0  0  0  0  0  0  0  0  0  0  0  0
   14.1453   46.8274  134.0293 O   0  0  0  0  0  0  0  0  0  0  0  0
   12.8257   46.5396  132.0600 C   0  0  0  0  0  0  0  0  0  0  0  0
   11.5881   46.4919  131.4534 C   0  0  0  0  0  0  0  0  0  0  0  0
   14.5208   45.9553  134.3965 H   0  0  0  0  0  0  0  0  0  0  0  0
    8.6345   47.8733  130.8781 C   0  0  0  0  0  0  0  0  0  0  0  0
    8.4368   48.0670  129.5376 C   0  0  0  0  0  0  0  0  0  0  0  0
    7.9389   49.2606  128.9962 C   0  0  0  0  0  0  0  0  0  0  0  0
    7.6313   50.2958  129.8497 C   0  0  0  0  0  0  0  0  0  0  0  0
    7.1407   51.4601  129.2807 O   0  0  0  0  0  0  0  0  0  0  0  0
    7.8186   50.1401  131.2242 C   0  0  0  0  0  0  0  0  0  0  0  0
    8.3101   48.9487  131.7095 C   0  0  0  0  0  0  0  0  0  0  0  0
    6.1155   51.5065  129.1791 H   0  0  0  0  0  0  0  0  0  0  0  0
    8.9385   44.1525  131.5800 C   0  0  0  0  0  0  0  0  0  0  0  0
    8.1212   43.3105  132.3277 C   0  0  0  0  0  0  0  0  0  0  0  0
    8.4765   42.0208  132.6604 C   0  0  0  0  0  0  0  0  0  0  0  0
    9.6997   41.5487  132.2293 C   0  0  0  0  0  0  0  0  0  0  0  0
   10.5536   42.3299  131.4881 C   0  0  0  0  0  0  0  0  0  0  0  0
   10.1467   43.6259  131.1788 C   0  0  0  0  0  0  0  0  0  0  0  0
  1  2  1  0  0  0
  2  3  2  0  0  0
  3  4  1  0  0  0
  4  5  2  0  0  0
  5  6  1  0  0  0
  6  7  2  0  0  0
  7  8  1  0  0  0
  7  9  1  0  0  0
  9 10  2  0  0  0
  3 12  1  0  0  0
 12 13  2  0  0  0
 13 14  1  0  0  0
 14 15  2  0  0  0
 15 16  1  0  0  0
 15 17  1  0  0  0
 17 18  2  0  0  0
  2 20  1  0  0  0
 20 21  2  0  0  0
 21 22  1  0  0  0
 22 23  2  0  0  0
 23 24  1  0  0  0
 24 25  2  0  0  0
 10  4  1  0  0  0
 18 12  1  0  0  0
 25 20  1  0  0  0
  8 11  1  0  0  0
 16 19  1  0  0  0
M  END
> <minimizedAffinity>
2.78198

> <CNNscore>
0.4332215190

> <CNNaffinity>
7.4471483231

> <CNN_VS>
3.2262649536

> <CNNaffinity_variance>
3.0658512115

$$$$
[H]Oc1c([H])c([H])c(C(=C(c2c([H])c([H])c([H])c([H])c2[H])C([H])([H])[H])c2c([H])c([H])c(O[H])c([H])c2[H])c([H])c1[H]


 25 27  0  0  0  0  0  0  0  0999 V2000
    7.8694   46.5424  130.6807 C   0  0  0  0  0  0  0  0  0  0  0  0
    8.9042   46.2093  131.6957 C   0  0  0  0  0  0  0  0  0  0  0  0
    9.8050   45.3064  131.4236 C   0  0  0  0  0  0  0  0  0  0  0  0
   10.8822   44.9158  132.3634 C   0  0  0  0  0  0  0  0  0  0  0  0
   11.9927   45.6809  132.6000 C   0  0  0  0  0  0  0  0  0  0  0  0
   12.9715   45.2578  133.4960 C   0  0  0  0  0  0  0  0  0  0  0  0
   12.8352   44.0543  134.1620 C   0  0  0  0  0  0  0  0  0  0  0  0
   13.8018   43.6206  135.0570 O   0  0  0  0  0  0  0  0  0  0  0  0
   11.7239   43.2790  133.9309 C   0  0  0  0  0  0  0  0  0  0  0  0
   10.7672   43.7179  133.0397 C   0  0  0  0  0  0  0  0  0  0  0  0
   13.6943   43.8939  136.0317 H   0  0  0  0  0  0  0  0  0  0  0  0
    9.7625   44.5750  130.1589 C   0  0  0  0  0  0  0  0  0  0  0  0
    8.9347   43.5029  129.9613 C   0  0  0  0  0  0  0  0  0  0  0  0
    8.8569   42.8018  128.7497 C   0  0  0  0  0  0  0  0  0  0  0  0
    9.6510   43.2055  127.7003 C   0  0  0  0  0  0  0  0  0  0  0  0
    9.5478   42.4906  126.5177 O   0  0  0  0  0  0  0  0  0  0  0  0
   10.5102   44.2940  127.8597 C   0  0  0  0  0  0  0  0  0  0  0  0
   10.5517   44.9518  129.0688 C   0  0  0  0  0  0  0  0  0  0  0  0
    8.8403   42.8353  125.8513 H   0  0  0  0  0  0  0  0  0  0  0  0
    8.7569   46.9116  132.9798 C   0  0  0  0  0  0  0  0  0  0  0  0
    8.9634   48.2853  133.0580 C   0  0  0  0  0  0  0  0  0  0  0  0
    8.7892   49.0056  134.2204 C   0  0  0  0  0  0  0  0  0  0  0  0
    8.3916   48.3278  135.3551 C   0  0  0  0  0  0  0  0  0  0  0  0
    8.1716   46.9712  135.3448 C   0  0  0  0  0  0  0  0  0  0  0  0
    8.3617   46.2903  134.1444 C   0  0  0  0  0  0  0  0  0  0  0  0
  1  2  1  0  0  0
  2  3  2  0  0  0
  3  4  1  0  0  0
  4  5  2  0  0  0
  5  6  1  0  0  0
  6  7  2  0  0  0
  7  8  1  0  0  0
  7  9  1  0  0  0
  9 10  2  0  0  0
  3 12  1  0  0  0
 12 13  2  0  0  0
 13 14  1  0  0  0
 14 15  2  0  0  0
 15 16  1  0  0  0
 15 17  1  0  0  0
 17 18  2  0  0  0
  2 20  1  0  0  0
 20 21  2  0  0  0
 21 22  1  0  0  0
 22 23  2  0  0  0
 23 24  1  0  0  0
 24 25  2  0  0  0
 10  4  1  0  0  0
 18 12  1  0  0  0
 25 20  1  0  0  0
  8 11  1  0  0  0
 16 19  1  0  0  0
M  END
> <minimizedAffinity>
2.30680

> <CNNscore>
0.3514244854

> <CNNaffinity>
7.0093359947

> <CNN_VS>
2.4632523060

> <CNNaffinity_variance>
1.7418758869

$$$$
[H]Oc1c([H])c([H])c(C(=C(c2c([H])c([H])c([H])c([H])c2[H])C([H])([H])[H])c2c([H])c([H])c(O[H])c([H])c2[H])c([H])c1[H]


 25 27  0  0  0  0  0  0  0  0999 V2000
    9.6372   42.0814  130.1690 C   0  0  0  0  0  0  0  0  0  0  0  0
    9.8512   43.4787  130.6314 C   0  0  0  0  0  0  0  0  0  0  0  0
    9.3018   43.8794  131.7442 C   0  0  0  0  0  0  0  0  0  0  0  0
    9.4669   45.2461  132.2927 C   0  0  0  0  0  0  0  0  0  0  0  0
    8.8667   45.6749  133.4462 C   0  0  0  0  0  0  0  0  0  0  0  0
    9.0611   46.9737  133.9100 C   0  0  0  0  0  0  0  0  0  0  0  0
    9.8661   47.8522  133.2094 C   0  0  0  0  0  0  0  0  0  0  0  0
   10.0688   49.1483  133.6594 O   0  0  0  0  0  0  0  0  0  0  0  0
   10.4727   47.4310  132.0500 C   0  0  0  0  0  0  0  0  0  0  0  0
   10.2664   46.1405  131.6096 C   0  0  0  0  0  0  0  0  0  0  0  0
   10.8546   49.3093  134.2862 H   0  0  0  0  0  0  0  0  0  0  0  0
    8.4255   42.9874  132.5010 C   0  0  0  0  0  0  0  0  0  0  0  0
    7.3236   42.3976  131.9428 C   0  0  0  0  0  0  0  0  0  0  0  0
    6.4831   41.5185  132.6401 C   0  0  0  0  0  0  0  0  0  0  0  0
    6.7735   41.2290  133.9541 C   0  0  0  0  0  0  0  0  0  0  0  0
    5.9224   40.3558  134.6124 O   0  0  0  0  0  0  0  0  0  0  0  0
    7.8878   41.8097  134.5621 C   0  0  0  0  0  0  0  0  0  0  0  0
    8.6845   42.6671  133.8364 C   0  0  0  0  0  0  0  0  0  0  0  0
    6.1738   39.3578  134.5474 H   0  0  0  0  0  0  0  0  0  0  0  0
   10.6354   44.3187  129.7131 C   0  0  0  0  0  0  0  0  0  0  0  0
   12.0204   44.1974  129.6581 C   0  0  0  0  0  0  0  0  0  0  0  0
   12.8029   44.9187  128.7818 C   0  0  0  0  0  0  0  0  0  0  0  0
   12.1784   45.7997  127.9223 C   0  0  0  0  0  0  0  0  0  0  0  0
   10.8142   45.9667  127.9266 C   0  0  0  0  0  0  0  0  0  0  0  0
   10.0694   45.2137  128.8316 C   0  0  0  0  0  0  0  0  0  0  0  0
  1  2  1  0  0  0
  2  3  2  0  0  0
  3  4  1  0  0  0
  4  5  2  0  0  0
  5  6  1  0  0  0
  6  7  2  0  0  0
  7  8  1  0  0  0
  7  9  1  0  0  0
  9 10  2  0  0  0
  3 12  1  0  0  0
 12 13  2  0  0  0
 13 14  1  0  0  0
 14 15  2  0  0  0
 15 16  1  0  0  0
 15 17  1  0  0  0
 17 18  2  0  0  0
  2 20  1  0  0  0
 20 21  2  0  0  0
 21 22  1  0  0  0
 22 23  2  0  0  0
 23 24  1  0  0  0
 24 25  2  0  0  0
 10  4  1  0  0  0
 18 12  1  0  0  0
 25 20  1  0  0  0
  8 11  1  0  0  0
 16 19  1  0  0  0
M  END
> <minimizedAffinity>
7.18287

> <CNNscore>
0.3287489712

> <CNNaffinity>
6.5620193481

> <CNN_VS>
2.1572570801

> <CNNaffinity_variance>
1.1244305372

$$$$
[H]Oc1c([H])c([H])c2c(c1[H])c(C([H])([H])[H])c(-c1c([H])c([H])c(OC([H])(C([H])([H])[H])C([H])([H])[H])c([H])c1[H])n2C([H])([H])c1c([H])c([H])c(OC2([H])C([H])=C([H])C([H])=C2[H])c([H])c1[H]


 35 39  0  0  0  0  0  0  0  0999 V2000
   11.3656   44.6963  131.8834 C   0  0  0  0  0  0  0  0  0  0  0  0
   11.9155   44.0678  130.7594 C   0  0  0  0  0  0  0  0  0  0  0  0
   13.3578   43.7109  130.5015 C   0  0  0  0  0  0  0  0  0  0  0  0
   10.8671   43.7849  129.9292 C   0  0  0  0  0  0  0  0  0  0  0  0
   10.8811   43.1567  128.7010 C   0  0  0  0  0  0  0  0  0  0  0  0
    9.7120   42.9515  128.0322 C   0  0  0  0  0  0  0  0  0  0  0  0
    9.7503   42.3182  126.7984 O   0  0  0  0  0  0  0  0  0  0  0  0
    8.5435   43.3858  128.6185 C   0  0  0  0  0  0  0  0  0  0  0  0
    8.5481   44.0178  129.8578 C   0  0  0  0  0  0  0  0  0  0  0  0
    9.7307   44.2335  130.5459 C   0  0  0  0  0  0  0  0  0  0  0  0
   10.0364   44.8020  131.7559 N   0  0  0  0  0  0  0  0  0  0  0  0
    9.6702   41.3010  126.7891 H   0  0  0  0  0  0  0  0  0  0  0  0
   13.9671   46.1282  135.0034 C   0  0  0  0  0  0  0  0  0  0  0  0
   13.5292   46.9733  133.9725 C   0  0  0  0  0  0  0  0  0  0  0  0
   12.6678   46.4906  133.0079 C   0  0  0  0  0  0  0  0  0  0  0  0
   12.1823   45.2084  132.9618 C   0  0  0  0  0  0  0  0  0  0  0  0
   12.6146   44.3796  133.9761 C   0  0  0  0  0  0  0  0  0  0  0  0
   13.4874   44.8409  134.9698 C   0  0  0  0  0  0  0  0  0  0  0  0
   14.8254   46.6274  135.9564 O   0  0  0  0  0  0  0  0  0  0  0  0
   15.4718   48.1915  137.6870 C   0  0  0  0  0  0  0  0  0  0  0  0
   14.8963   47.9764  136.2756 C   0  0  0  0  0  0  0  0  0  0  0  0
   13.4848   48.5913  136.3693 C   0  0  0  0  0  0  0  0  0  0  0  0
    8.9953   45.4101  132.5413 C   0  0  0  0  0  0  0  0  0  0  0  0
    8.6616   46.8071  132.1409 C   0  0  0  0  0  0  0  0  0  0  0  0
    7.9018   47.1404  131.0269 C   0  0  0  0  0  0  0  0  0  0  0  0
    7.6345   48.4570  130.6840 C   0  0  0  0  0  0  0  0  0  0  0  0
    8.1188   49.5089  131.4448 C   0  0  0  0  0  0  0  0  0  0  0  0
    8.8642   49.2033  132.5377 C   0  0  0  0  0  0  0  0  0  0  0  0
    9.1149   47.8965  132.8561 C   0  0  0  0  0  0  0  0  0  0  0  0
    7.7900   50.7745  131.0090 O   0  0  0  0  0  0  0  0  0  0  0  0
    6.8599   51.1329  130.0399 C   0  0  0  0  0  0  0  0  0  0  0  0
    7.0519   50.4579  128.7527 C   0  0  0  0  0  0  0  0  0  0  0  0
    5.9882   49.7328  128.4884 C   0  0  0  0  0  0  0  0  0  0  0  0
    5.0147   49.8643  129.5638 C   0  0  0  0  0  0  0  0  0  0  0  0
    5.5113   50.6783  130.4749 C   0  0  0  0  0  0  0  0  0  0  0  0
 20 21  1  0  0  0
 21 22  1  0  0  0
 21 19  1  0  0  0
 19 13  1  0  0  0
 13 14  2  0  0  0
 14 15  1  0  0  0
 15 16  2  0  0  0
 16 17  1  0  0  0
 17 18  2  0  0  0
 16  1  1  0  0  0
  1  2  2  0  0  0
  2  3  1  0  0  0
  2  4  1  0  0  0
  4  5  2  0  0  0
  5  6  1  0  0  0
  6  7  1  0  0  0
  6  8  2  0  0  0
  8  9  1  0  0  0
  9 10  2  0  0  0
 10 11  1  0  0  0
 11 23  1  0  0  0
 23 24  1  0  0  0
 24 25  2  0  0  0
 25 26  1  0  0  0
 26 27  2  0  0  0
 27 30  1  0  0  0
 30 31  1  0  0  0
 31 32  1  0  0  0
 32 33  2  0  0  0
 33 34  1  0  0  0
 34 35  2  0  0  0
 27 28  1  0  0  0
 28 29  2  0  0  0
 18 13  1  0  0  0
 11  1  1  0  0  0
 29 24  1  0  0  0
 10  4  1  0  0  0
 35 31  1  0  0  0
  7 12  1  0  0  0
M  END
> <minimizedAffinity>
12.31774

> <CNNscore>
0.5313104987

> <CNNaffinity>
7.9239373207

> <CNN_VS>
4.2100710869

> <CNNaffinity_variance>
2.2750208378

$$$$
[H]Oc1c([H])c([H])c2c(c1[H])c(C([H])([H])[H])c(-c1c([H])c([H])c(OC([H])(C([H])([H])[H])C([H])([H])[H])c([H])c1[H])n2C([H])([H])c1c([H])c([H])c(OC2([H])C([H])=C([H])C([H])=C2[H])c([H])c1[H]


 35 39  0  0  0  0  0  0  0  0999 V2000
    9.8932   46.1791  129.8846 C   0  0  0  0  0  0  0  0  0  0  0  0
   10.8530   45.8461  128.9208 C   0  0  0  0  0  0  0  0  0  0  0  0
   10.8981   46.2520  127.4692 C   0  0  0  0  0  0  0  0  0  0  0  0
   11.7985   45.0991  129.5661 C   0  0  0  0  0  0  0  0  0  0  0  0
   12.9544   44.5418  129.0597 C   0  0  0  0  0  0  0  0  0  0  0  0
   13.7832   43.8386  129.8813 C   0  0  0  0  0  0  0  0  0  0  0  0
   14.9399   43.2866  129.3502 O   0  0  0  0  0  0  0  0  0  0  0  0
   13.4288   43.7106  131.2064 C   0  0  0  0  0  0  0  0  0  0  0  0
   12.2589   44.2791  131.6998 C   0  0  0  0  0  0  0  0  0  0  0  0
   11.4079   44.9944  130.8736 C   0  0  0  0  0  0  0  0  0  0  0  0
   10.2255   45.6598  131.0737 N   0  0  0  0  0  0  0  0  0  0  0  0
   15.7841   43.8596  129.3644 H   0  0  0  0  0  0  0  0  0  0  0  0
    6.3965   48.4087  128.7208 C   0  0  0  0  0  0  0  0  0  0  0  0
    6.3854   47.0066  128.7702 C   0  0  0  0  0  0  0  0  0  0  0  0
    7.5133   46.3250  129.1812 C   0  0  0  0  0  0  0  0  0  0  0  0
    8.6919   46.9163  129.5593 C   0  0  0  0  0  0  0  0  0  0  0  0
    8.7002   48.2947  129.5094 C   0  0  0  0  0  0  0  0  0  0  0  0
    7.5710   49.0142  129.0981 C   0  0  0  0  0  0  0  0  0  0  0  0
    5.2625   49.0710  128.3090 O   0  0  0  0  0  0  0  0  0  0  0  0
    4.9734   50.3549  130.3406 C   0  0  0  0  0  0  0  0  0  0  0  0
    4.3149   49.5667  129.1941 C   0  0  0  0  0  0  0  0  0  0  0  0
    3.5920   48.4154  129.9228 C   0  0  0  0  0  0  0  0  0  0  0  0
    9.5917   45.6147  132.3647 C   0  0  0  0  0  0  0  0  0  0  0  0
   10.2609   46.4462  133.4059 C   0  0  0  0  0  0  0  0  0  0  0  0
   10.4272   46.0571  134.7289 C   0  0  0  0  0  0  0  0  0  0  0  0
   11.0396   46.8748  135.6664 C   0  0  0  0  0  0  0  0  0  0  0  0
   11.5171   48.1289  135.3214 C   0  0  0  0  0  0  0  0  0  0  0  0
   11.3635   48.5275  134.0326 C   0  0  0  0  0  0  0  0  0  0  0  0
   10.7557   47.7032  133.1252 C   0  0  0  0  0  0  0  0  0  0  0  0
   12.1072   48.8532  136.3348 O   0  0  0  0  0  0  0  0  0  0  0  0
   13.4349   49.2507  136.4438 C   0  0  0  0  0  0  0  0  0  0  0  0
   13.9543   49.2204  137.8144 C   0  0  0  0  0  0  0  0  0  0  0  0
   14.9484   48.3628  137.8750 C   0  0  0  0  0  0  0  0  0  0  0  0
   15.1686   47.7607  136.5672 C   0  0  0  0  0  0  0  0  0  0  0  0
   14.2921   48.2702  135.7236 C   0  0  0  0  0  0  0  0  0  0  0  0
 20 21  1  0  0  0
 21 22  1  0  0  0
 21 19  1  0  0  0
 19 13  1  0  0  0
 13 14  2  0  0  0
 14 15  1  0  0  0
 15 16  2  0  0  0
 16 17  1  0  0  0
 17 18  2  0  0  0
 16  1  1  0  0  0
  1  2  2  0  0  0
  2  3  1  0  0  0
  2  4  1  0  0  0
  4  5  2  0  0  0
  5  6  1  0  0  0
  6  7  1  0  0  0
  6  8  2  0  0  0
  8  9  1  0  0  0
  9 10  2  0  0  0
 10 11  1  0  0  0
 11 23  1  0  0  0
 23 24  1  0  0  0
 24 25  2  0  0  0
 25 26  1  0  0  0
 26 27  2  0  0  0
 27 30  1  0  0  0
 30 31  1  0  0  0
 31 32  1  0  0  0
 32 33  2  0  0  0
 33 34  1  0  0  0
 34 35  2  0  0  0
 27 28  1  0  0  0
 28 29  2  0  0  0
 18 13  1  0  0  0
 11  1  1  0  0  0
 29 24  1  0  0  0
 10  4  1  0  0  0
 35 31  1  0  0  0
  7 12  1  0  0  0
M  END
> <minimizedAffinity>
18.06797

> <CNNscore>
0.5291809440

> <CNNaffinity>
7.5147566795

> <CNN_VS>
3.9766659737

> <CNNaffinity_variance>
2.4054272175

$$$$
[H]Oc1c([H])c([H])c2c(c1[H])c(C([H])([H])[H])c(-c1c([H])c([H])c(OC([H])(C([H])([H])[H])C([H])([H])[H])c([H])c1[H])n2C([H])([H])c1c([H])c([H])c(OC2([H])C([H])=C([H])C([H])=C2[H])c([H])c1[H]


 35 39  0  0  0  0  0  0  0  0999 V2000
    9.6488   48.4715  130.9915 C   0  0  0  0  0  0  0  0  0  0  0  0
    9.0034   49.5702  131.5724 C   0  0  0  0  0  0  0  0  0  0  0  0
    9.0844   50.0536  132.9985 C   0  0  0  0  0  0  0  0  0  0  0  0
    8.2986   50.1733  130.5685 C   0  0  0  0  0  0  0  0  0  0  0  0
    7.5082   51.3026  130.6240 C   0  0  0  0  0  0  0  0  0  0  0  0
    6.8976   51.7578  129.4942 C   0  0  0  0  0  0  0  0  0  0  0  0
    6.1070   52.8950  129.5739 O   0  0  0  0  0  0  0  0  0  0  0  0
    7.0975   51.0616  128.3225 C   0  0  0  0  0  0  0  0  0  0  0  0
    7.8977   49.9243  128.2850 C   0  0  0  0  0  0  0  0  0  0  0  0
    8.5219   49.4513  129.4275 C   0  0  0  0  0  0  0  0  0  0  0  0
    9.3556   48.3937  129.6869 N   0  0  0  0  0  0  0  0  0  0  0  0
    6.5610   53.7955  129.4181 H   0  0  0  0  0  0  0  0  0  0  0  0
   12.1664   45.8543  133.3077 C   0  0  0  0  0  0  0  0  0  0  0  0
   11.0699   46.5123  133.8850 C   0  0  0  0  0  0  0  0  0  0  0  0
   10.2632   47.3166  133.1054 C   0  0  0  0  0  0  0  0  0  0  0  0
   10.4434   47.5422  131.7643 C   0  0  0  0  0  0  0  0  0  0  0  0
   11.5222   46.8945  131.1992 C   0  0  0  0  0  0  0  0  0  0  0  0
   12.3579   46.0708  131.9641 C   0  0  0  0  0  0  0  0  0  0  0  0
   12.9590   45.0561  134.1006 O   0  0  0  0  0  0  0  0  0  0  0  0
   12.4768   42.9899  132.9355 C   0  0  0  0  0  0  0  0  0  0  0  0
   12.7247   43.6996  134.2788 C   0  0  0  0  0  0  0  0  0  0  0  0
   11.4099   43.4684  135.0515 C   0  0  0  0  0  0  0  0  0  0  0  0
    9.6632   47.4551  128.6405 C   0  0  0  0  0  0  0  0  0  0  0  0
    9.4391   46.0283  129.0111 C   0  0  0  0  0  0  0  0  0  0  0  0
   10.3075   44.9923  128.6920 C   0  0  0  0  0  0  0  0  0  0  0  0
   10.0454   43.6765  129.0419 C   0  0  0  0  0  0  0  0  0  0  0  0
    8.8939   43.3336  129.7320 C   0  0  0  0  0  0  0  0  0  0  0  0
    8.0321   44.3325  130.0527 C   0  0  0  0  0  0  0  0  0  0  0  0
    8.3121   45.6236  129.6966 C   0  0  0  0  0  0  0  0  0  0  0  0
    8.7388   41.9960  130.0265 O   0  0  0  0  0  0  0  0  0  0  0  0
    8.7149   41.3907  131.2778 C   0  0  0  0  0  0  0  0  0  0  0  0
    9.7939   41.8260  132.1698 C   0  0  0  0  0  0  0  0  0  0  0  0
    9.2671   42.4030  133.2265 C   0  0  0  0  0  0  0  0  0  0  0  0
    7.8141   42.3988  133.1252 C   0  0  0  0  0  0  0  0  0  0  0  0
    7.4795   41.8111  131.9929 C   0  0  0  0  0  0  0  0  0  0  0  0
 20 21  1  0  0  0
 21 22  1  0  0  0
 21 19  1  0  0  0
 19 13  1  0  0  0
 13 14  2  0  0  0
 14 15  1  0  0  0
 15 16  2  0  0  0
 16 17  1  0  0  0
 17 18  2  0  0  0
 16  1  1  0  0  0
  1  2  2  0  0  0
  2  3  1  0  0  0
  2  4  1  0  0  0
  4  5  2  0  0  0
  5  6  1  0  0  0
  6  7  1  0  0  0
  6  8  2  0  0  0
  8  9  1  0  0  0
  9 10  2  0  0  0
 10 11  1  0  0  0
 11 23  1  0  0  0
 23 24  1  0  0  0
 24 25  2  0  0  0
 25 26  1  0  0  0
 26 27  2  0  0  0
 27 30  1  0  0  0
 30 31  1  0  0  0
 31 32  1  0  0  0
 32 33  2  0  0  0
 33 34  1  0  0  0
 34 35  2  0  0  0
 27 28  1  0  0  0
 28 29  2  0  0  0
 18 13  1  0  0  0
 11  1  1  0  0  0
 29 24  1  0  0  0
 10  4  1  0  0  0
 35 31  1  0  0  0
  7 12  1  0  0  0
M  END
> <minimizedAffinity>
5.53813

> <CNNscore>
0.5029050708

> <CNNaffinity>
7.7519745827

> <CNN_VS>
3.8985073566

> <CNNaffinity_variance>
0.4569362998

$$$$
[H]Oc1c([H])c([H])c2c(c1[H])c(C([H])([H])[H])c(-c1c([H])c([H])c(OC([H])(C([H])([H])[H])C([H])([H])[H])c([H])c1[H])n2C([H])([H])c1c([H])c([H])c(OC2([H])C([H])=C([H])C([H])=C2[H])c([H])c1[H]


 35 39  0  0  0  0  0  0  0  0999 V2000
   10.3318   45.6634  129.7566 C   0  0  0  0  0  0  0  0  0  0  0  0
   11.3861   45.9301  128.8743 C   0  0  0  0  0  0  0  0  0  0  0  0
   11.4796   47.0166  127.8328 C   0  0  0  0  0  0  0  0  0  0  0  0
   12.3679   45.0257  129.1685 C   0  0  0  0  0  0  0  0  0  0  0  0
   13.6125   44.8815  128.5911 C   0  0  0  0  0  0  0  0  0  0  0  0
   14.4618   43.9177  129.0451 C   0  0  0  0  0  0  0  0  0  0  0  0
   15.7081   43.7906  128.4490 O   0  0  0  0  0  0  0  0  0  0  0  0
   14.0375   43.1131  130.0797 C   0  0  0  0  0  0  0  0  0  0  0  0
   12.7787   43.2725  130.6499 C   0  0  0  0  0  0  0  0  0  0  0  0
   11.9063   44.2476  130.1953 C   0  0  0  0  0  0  0  0  0  0  0  0
   10.6431   44.6379  130.5600 N   0  0  0  0  0  0  0  0  0  0  0  0
   16.4762   44.3336  128.8444 H   0  0  0  0  0  0  0  0  0  0  0  0
    6.6638   47.8961  129.4204 C   0  0  0  0  0  0  0  0  0  0  0  0
    6.7384   46.5509  129.0286 C   0  0  0  0  0  0  0  0  0  0  0  0
    7.9206   45.8553  129.1826 C   0  0  0  0  0  0  0  0  0  0  0  0
    9.0765   46.3800  129.7028 C   0  0  0  0  0  0  0  0  0  0  0  0
    9.0006   47.7026  130.0869 C   0  0  0  0  0  0  0  0  0  0  0  0
    7.8147   48.4342  129.9444 C   0  0  0  0  0  0  0  0  0  0  0  0
    5.4764   48.5733  129.2598 O   0  0  0  0  0  0  0  0  0  0  0  0
    6.7124   50.6078  128.8208 C   0  0  0  0  0  0  0  0  0  0  0  0
    5.3907   49.9588  129.2697 C   0  0  0  0  0  0  0  0  0  0  0  0
    5.2062   50.4851  130.7078 C   0  0  0  0  0  0  0  0  0  0  0  0
    9.9346   43.9027  131.5739 C   0  0  0  0  0  0  0  0  0  0  0  0
    9.6769   44.6742  132.8236 C   0  0  0  0  0  0  0  0  0  0  0  0
   10.6464   44.9704  133.7731 C   0  0  0  0  0  0  0  0  0  0  0  0
   10.3535   45.6749  134.9308 C   0  0  0  0  0  0  0  0  0  0  0  0
    9.0677   46.1187  135.1945 C   0  0  0  0  0  0  0  0  0  0  0  0
    8.1057   45.8385  134.2783 C   0  0  0  0  0  0  0  0  0  0  0  0
    8.4187   45.1416  133.1432 C   0  0  0  0  0  0  0  0  0  0  0  0
    8.8942   46.8083  136.3752 O   0  0  0  0  0  0  0  0  0  0  0  0
    8.7321   48.1776  136.5524 C   0  0  0  0  0  0  0  0  0  0  0  0
    8.9733   48.9669  135.3407 C   0  0  0  0  0  0  0  0  0  0  0  0
    7.8672   49.5978  135.0154 C   0  0  0  0  0  0  0  0  0  0  0  0
    6.8141   49.2841  135.9713 C   0  0  0  0  0  0  0  0  0  0  0  0
    7.3058   48.4566  136.8728 C   0  0  0  0  0  0  0  0  0  0  0  0
 20 21  1  0  0  0
 21 22  1  0  0  0
 21 19  1  0  0  0
 19 13  1  0  0  0
 13 14  2  0  0  0
 14 15  1  0  0  0
 15 16  2  0  0  0
 16 17  1  0  0  0
 17 18  2  0  0  0
 16  1  1  0  0  0
  1  2  2  0  0  0
  2  3  1  0  0  0
  2  4  1  0  0  0
  4  5  2  0  0  0
  5  6  1  0  0  0
  6  7  1  0  0  0
  6  8  2  0  0  0
  8  9  1  0  0  0
  9 10  2  0  0  0
 10 11  1  0  0  0
 11 23  1  0  0  0
 23 24  1  0  0  0
 24 25  2  0  0  0
 25 26  1  0  0  0
 26 27  2  0  0  0
 27 30  1  0  0  0
 30 31  1  0  0  0
 31 32  1  0  0  0
 32 33  2  0  0  0
 33 34  1  0  0  0
 34 35  2  0  0  0
 27 28  1  0  0  0
 28 29  2  0  0  0
 18 13  1  0  0  0
 11  1  1  0  0  0
 29 24  1  0  0  0
 10  4  1  0  0  0
 35 31  1  0  0  0
  7 12  1  0  0  0
M  END
> <minimizedAffinity>
19.60404

> <CNNscore>
0.4897471070

> <CNNaffinity>
7.6313352585

> <CNN_VS>
3.7374243736

> <CNNaffinity_variance>
1.2445474863

$$$$
[H]Oc1c([H])c([H])c2c(c1[H])c(C([H])([H])[H])c(-c1c([H])c([H])c(OC([H])(C([H])([H])[H])C([H])([H])[H])c([H])c1[H])n2C([H])([H])c1c([H])c([H])c(OC2([H])C([H])=C([H])C([H])=C2[H])c([H])c1[H]


 35 39  0  0  0  0  0  0  0  0999 V2000
   10.1333   44.1042  132.4679 C   0  0  0  0  0  0  0  0  0  0  0  0
   11.0626   43.1157  132.1210 C   0  0  0  0  0  0  0  0  0  0  0  0
   12.5162   43.0228  132.5112 C   0  0  0  0  0  0  0  0  0  0  0  0
   10.3798   42.1943  131.3773 C   0  0  0  0  0  0  0  0  0  0  0  0
   10.8433   41.0252  130.8102 C   0  0  0  0  0  0  0  0  0  0  0  0
    9.9884   40.2258  130.1126 C   0  0  0  0  0  0  0  0  0  0  0  0
   10.4767   39.0552  129.5506 O   0  0  0  0  0  0  0  0  0  0  0  0
    8.6741   40.6227  130.0001 C   0  0  0  0  0  0  0  0  0  0  0  0
    8.2240   41.8052  130.5783 C   0  0  0  0  0  0  0  0  0  0  0  0
    9.0844   42.6266  131.2880 C   0  0  0  0  0  0  0  0  0  0  0  0
    8.9289   43.8120  131.9600 N   0  0  0  0  0  0  0  0  0  0  0  0
   10.4417   38.2094  130.1204 H   0  0  0  0  0  0  0  0  0  0  0  0
   11.4176   47.5397  134.7263 C   0  0  0  0  0  0  0  0  0  0  0  0
   11.5341   47.4994  133.3286 C   0  0  0  0  0  0  0  0  0  0  0  0
   11.0803   46.3968  132.6331 C   0  0  0  0  0  0  0  0  0  0  0  0
   10.5044   45.2914  133.2062 C   0  0  0  0  0  0  0  0  0  0  0  0
   10.3914   45.3334  134.5803 C   0  0  0  0  0  0  0  0  0  0  0  0
   10.8413   46.4390  135.3133 C   0  0  0  0  0  0  0  0  0  0  0  0
   11.8751   48.6477  135.4025 O   0  0  0  0  0  0  0  0  0  0  0  0
   14.0481   47.5941  135.5681 C   0  0  0  0  0  0  0  0  0  0  0  0
   13.2233   48.8926  135.6248 C   0  0  0  0  0  0  0  0  0  0  0  0
   13.4573   49.4005  137.0623 C   0  0  0  0  0  0  0  0  0  0  0  0
    7.6582   44.4866  131.9311 C   0  0  0  0  0  0  0  0  0  0  0  0
    7.5923   45.6292  130.9754 C   0  0  0  0  0  0  0  0  0  0  0  0
    6.4595   46.4039  130.7606 C   0  0  0  0  0  0  0  0  0  0  0  0
    6.4413   47.4452  129.8452 C   0  0  0  0  0  0  0  0  0  0  0  0
    7.5634   47.7619  129.0967 C   0  0  0  0  0  0  0  0  0  0  0  0
    8.6807   47.0156  129.2921 C   0  0  0  0  0  0  0  0  0  0  0  0
    8.6747   45.9928  130.2009 C   0  0  0  0  0  0  0  0  0  0  0  0
    7.4292   48.8159  128.2187 O   0  0  0  0  0  0  0  0  0  0  0  0
    7.3972   50.1751  128.5093 C   0  0  0  0  0  0  0  0  0  0  0  0
    6.0840   50.6591  128.9462 C   0  0  0  0  0  0  0  0  0  0  0  0
    6.1869   51.1248  130.1707 C   0  0  0  0  0  0  0  0  0  0  0  0
    7.5584   50.9906  130.6423 C   0  0  0  0  0  0  0  0  0  0  0  0
    8.2743   50.4379  129.6824 C   0  0  0  0  0  0  0  0  0  0  0  0
 20 21  1  0  0  0
 21 22  1  0  0  0
 21 19  1  0  0  0
 19 13  1  0  0  0
 13 14  2  0  0  0
 14 15  1  0  0  0
 15 16  2  0  0  0
 16 17  1  0  0  0
 17 18  2  0  0  0
 16  1  1  0  0  0
  1  2  2  0  0  0
  2  3  1  0  0  0
  2  4  1  0  0  0
  4  5  2  0  0  0
  5  6  1  0  0  0
  6  7  1  0  0  0
  6  8  2  0  0  0
  8  9  1  0  0  0
  9 10  2  0  0  0
 10 11  1  0  0  0
 11 23  1  0  0  0
 23 24  1  0  0  0
 24 25  2  0  0  0
 25 26  1  0  0  0
 26 27  2  0  0  0
 27 30  1  0  0  0
 30 31  1  0  0  0
 31 32  1  0  0  0
 32 33  2  0  0  0
 33 34  1  0  0  0
 34 35  2  0  0  0
 27 28  1  0  0  0
 28 29  2  0  0  0
 18 13  1  0  0  0
 11  1  1  0  0  0
 29 24  1  0  0  0
 10  4  1  0  0  0
 35 31  1  0  0  0
  7 12  1  0  0  0
M  END
> <minimizedAffinity>
17.27011

> <CNNscore>
0.4872612655

> <CNNaffinity>
7.5856094360

> <CNN_VS>
3.6961736679

> <CNNaffinity_variance>
1.3207873106

$$$$
[H]Oc1c([H])c([H])c2c(c1[H])c(C([H])([H])[H])c(-c1c([H])c([H])c(OC([H])(C([H])([H])[H])C([H])([H])[H])c([H])c1[H])n2C([H])([H])c1c([H])c([H])c(OC2([H])C([H])=C([H])C([H])=C2[H])c([H])c1[H]


 35 39  0  0  0  0  0  0  0  0999 V2000
   10.7657   45.0552  131.1815 C   0  0  0  0  0  0  0  0  0  0  0  0
   12.1535   45.1186  131.3567 C   0  0  0  0  0  0  0  0  0  0  0  0
   12.9212   45.5576  132.5782 C   0  0  0  0  0  0  0  0  0  0  0  0
   12.7063   44.6515  130.1971 C   0  0  0  0  0  0  0  0  0  0  0  0
   14.0388   44.5013  129.8730 C   0  0  0  0  0  0  0  0  0  0  0  0
   14.3868   43.9954  128.6568 C   0  0  0  0  0  0  0  0  0  0  0  0
   15.7329   43.8536  128.3523 O   0  0  0  0  0  0  0  0  0  0  0  0
   13.3781   43.6478  127.7852 C   0  0  0  0  0  0  0  0  0  0  0  0
   12.0395   43.8065  128.1286 C   0  0  0  0  0  0  0  0  0  0  0  0
   11.6739   44.3215  129.3615 C   0  0  0  0  0  0  0  0  0  0  0  0
   10.4696   44.5737  129.9672 N   0  0  0  0  0  0  0  0  0  0  0  0
   16.1793   42.9686  128.5945 H   0  0  0  0  0  0  0  0  0  0  0  0
    8.1541   46.4664  134.3025 C   0  0  0  0  0  0  0  0  0  0  0  0
    8.7164   47.3477  133.3668 C   0  0  0  0  0  0  0  0  0  0  0  0
    9.5213   46.8569  132.3584 C   0  0  0  0  0  0  0  0  0  0  0  0
    9.8360   45.5335  132.1811 C   0  0  0  0  0  0  0  0  0  0  0  0
    9.2821   44.6693  133.1025 C   0  0  0  0  0  0  0  0  0  0  0  0
    8.4604   45.1371  134.1358 C   0  0  0  0  0  0  0  0  0  0  0  0
    7.3538   46.9740  135.3005 O   0  0  0  0  0  0  0  0  0  0  0  0
    7.6045   49.2479  136.0919 C   0  0  0  0  0  0  0  0  0  0  0  0
    7.8462   47.7483  136.3421 C   0  0  0  0  0  0  0  0  0  0  0  0
    9.3830   47.6440  136.4220 C   0  0  0  0  0  0  0  0  0  0  0  0
    9.2472   44.3701  129.2359 C   0  0  0  0  0  0  0  0  0  0  0  0
    8.3014   45.5214  129.2897 C   0  0  0  0  0  0  0  0  0  0  0  0
    8.4574   46.6955  128.5641 C   0  0  0  0  0  0  0  0  0  0  0  0
    7.5601   47.7480  128.6628 C   0  0  0  0  0  0  0  0  0  0  0  0
    6.4573   47.6742  129.4984 C   0  0  0  0  0  0  0  0  0  0  0  0
    6.2877   46.5345  130.2166 C   0  0  0  0  0  0  0  0  0  0  0  0
    7.1866   45.5093  130.1026 C   0  0  0  0  0  0  0  0  0  0  0  0
    5.6342   48.7797  129.5154 O   0  0  0  0  0  0  0  0  0  0  0  0
    5.9105   50.0467  130.0166 C   0  0  0  0  0  0  0  0  0  0  0  0
    6.9618   50.0659  131.0383 C   0  0  0  0  0  0  0  0  0  0  0  0
    7.9645   50.7965  130.6048 C   0  0  0  0  0  0  0  0  0  0  0  0
    7.6662   51.3162  129.2773 C   0  0  0  0  0  0  0  0  0  0  0  0
    6.4710   50.8859  128.9229 C   0  0  0  0  0  0  0  0  0  0  0  0
 20 21  1  0  0  0
 21 22  1  0  0  0
 21 19  1  0  0  0
 19 13  1  0  0  0
 13 14  2  0  0  0
 14 15  1  0  0  0
 15 16  2  0  0  0
 16 17  1  0  0  0
 17 18  2  0  0  0
 16  1  1  0  0  0
  1  2  2  0  0  0
  2  3  1  0  0  0
  2  4  1  0  0  0
  4  5  2  0  0  0
  5  6  1  0  0  0
  6  7  1  0  0  0
  6  8  2  0  0  0
  8  9  1  0  0  0
  9 10  2  0  0  0
 10 11  1  0  0  0
 11 23  1  0  0  0
 23 24  1  0  0  0
 24 25  2  0  0  0
 25 26  1  0  0  0
 26 27  2  0  0  0
 27 30  1  0  0  0
 30 31  1  0  0  0
 31 32  1  0  0  0
 32 33  2  0  0  0
 33 34  1  0  0  0
 34 35  2  0  0  0
 27 28  1  0  0  0
 28 29  2  0  0  0
 18 13  1  0  0  0
 11  1  1  0  0  0
 29 24  1  0  0  0
 10  4  1  0  0  0
 35 31  1  0  0  0
  7 12  1  0  0  0
M  END
> <minimizedAffinity>
11.19613

> <CNNscore>
0.4819531739

> <CNNaffinity>
7.7043428421

> <CNN_VS>
3.7131323814

> <CNNaffinity_variance>
1.0317351818

$$$$
[H]Oc1c([H])c([H])c2c(c1[H])c(C([H])([H])[H])c(-c1c([H])c([H])c(OC([H])(C([H])([H])[H])C([H])([H])[H])c([H])c1[H])n2C([H])([H])c1c([H])c([H])c(OC2([H])C([H])=C([H])C([H])=C2[H])c([H])c1[H]


 35 39  0  0  0  0  0  0  0  0999 V2000
   10.2876   46.9251  133.8288 C   0  0  0  0  0  0  0  0  0  0  0  0
    9.9356   46.6872  135.1631 C   0  0  0  0  0  0  0  0  0  0  0  0
   10.4662   45.6257  136.0936 C   0  0  0  0  0  0  0  0  0  0  0  0
    9.0266   47.6523  135.4958 C   0  0  0  0  0  0  0  0  0  0  0  0
    8.3874   47.8602  136.7005 C   0  0  0  0  0  0  0  0  0  0  0  0
    7.5191   48.9015  136.8353 C   0  0  0  0  0  0  0  0  0  0  0  0
    6.8873   49.0910  138.0559 O   0  0  0  0  0  0  0  0  0  0  0  0
    7.3110   49.7188  135.7461 C   0  0  0  0  0  0  0  0  0  0  0  0
    7.9641   49.4940  134.5385 C   0  0  0  0  0  0  0  0  0  0  0  0
    8.8475   48.4376  134.3894 C   0  0  0  0  0  0  0  0  0  0  0  0
    9.6250   47.9875  133.3531 N   0  0  0  0  0  0  0  0  0  0  0  0
    7.3539   49.6880  138.7394 H   0  0  0  0  0  0  0  0  0  0  0  0
   12.8442   44.3744  131.4814 C   0  0  0  0  0  0  0  0  0  0  0  0
   13.2070   45.6964  131.7798 C   0  0  0  0  0  0  0  0  0  0  0  0
   12.3800   46.4752  132.5642 C   0  0  0  0  0  0  0  0  0  0  0  0
   11.1871   46.0590  133.0986 C   0  0  0  0  0  0  0  0  0  0  0  0
   10.8326   44.7591  132.8034 C   0  0  0  0  0  0  0  0  0  0  0  0
   11.6516   43.9441  132.0116 C   0  0  0  0  0  0  0  0  0  0  0  0
   13.6816   43.6129  130.6983 O   0  0  0  0  0  0  0  0  0  0  0  0
   15.1926   44.2575  128.9205 C   0  0  0  0  0  0  0  0  0  0  0  0
   13.7866   43.7780  129.3241 C   0  0  0  0  0  0  0  0  0  0  0  0
   12.8686   44.9182  128.8383 C   0  0  0  0  0  0  0  0  0  0  0  0
    9.5347   48.6235  132.0656 C   0  0  0  0  0  0  0  0  0  0  0  0
    9.2204   47.6938  130.9430 C   0  0  0  0  0  0  0  0  0  0  0  0
    9.6174   47.8950  129.6272 C   0  0  0  0  0  0  0  0  0  0  0  0
    9.2832   47.0105  128.6130 C   0  0  0  0  0  0  0  0  0  0  0  0
    8.5308   45.8759  128.8698 C   0  0  0  0  0  0  0  0  0  0  0  0
    8.1327   45.6619  130.1502 C   0  0  0  0  0  0  0  0  0  0  0  0
    8.4745   46.5490  131.1343 C   0  0  0  0  0  0  0  0  0  0  0  0
    8.2596   45.0695  127.7853 O   0  0  0  0  0  0  0  0  0  0  0  0
    8.7420   43.7920  127.5250 C   0  0  0  0  0  0  0  0  0  0  0  0
   10.1782   43.7463  127.2343 C   0  0  0  0  0  0  0  0  0  0  0  0
   10.7752   43.0140  128.1478 C   0  0  0  0  0  0  0  0  0  0  0  0
    9.7981   42.5194  129.1080 C   0  0  0  0  0  0  0  0  0  0  0  0
    8.6082   42.9662  128.7558 C   0  0  0  0  0  0  0  0  0  0  0  0
 20 21  1  0  0  0
 21 22  1  0  0  0
 21 19  1  0  0  0
 19 13  1  0  0  0
 13 14  2  0  0  0
 14 15  1  0  0  0
 15 16  2  0  0  0
 16 17  1  0  0  0
 17 18  2  0  0  0
 16  1  1  0  0  0
  1  2  2  0  0  0
  2  3  1  0  0  0
  2  4  1  0  0  0
  4  5  2  0  0  0
  5  6  1  0  0  0
  6  7  1  0  0  0
  6  8  2  0  0  0
  8  9  1  0  0  0
  9 10  2  0  0  0
 10 11  1  0  0  0
 11 23  1  0  0  0
 23 24  1  0  0  0
 24 25  2  0  0  0
 25 26  1  0  0  0
 26 27  2  0  0  0
 27 30  1  0  0  0
 30 31  1  0  0  0
 31 32  1  0  0  0
 32 33  2  0  0  0
 33 34  1  0  0  0
 34 35  2  0  0  0
 27 28  1  0  0  0
 28 29  2  0  0  0
 18 13  1  0  0  0
 11  1  1  0  0  0
 29 24  1  0  0  0
 10  4  1  0  0  0
 35 31  1  0  0  0
  7 12  1  0  0  0
M  END
> <minimizedAffinity>
20.84485

> <CNNscore>
0.4755253792

> <CNNaffinity>
7.4750990868

> <CNN_VS>
3.5545992851

> <CNNaffinity_variance>
0.8339306116

$$$$
[H]Oc1c([H])c([H])c2c(c1[H])c(C([H])([H])[H])c(-c1c([H])c([H])c(OC([H])(C([H])([H])[H])C([H])([H])[H])c([H])c1[H])n2C([H])([H])c1c([H])c([H])c(OC2([H])C([H])=C([H])C([H])=C2[H])c([H])c1[H]


 35 39  0  0  0  0  0  0  0  0999 V2000
    9.6442   46.1346  129.1491 C   0  0  0  0  0  0  0  0  0  0  0  0
    8.6855   45.6539  128.2487 C   0  0  0  0  0  0  0  0  0  0  0  0
    7.4146   46.3249  127.7918 C   0  0  0  0  0  0  0  0  0  0  0  0
    9.1477   44.4454  127.8082 C   0  0  0  0  0  0  0  0  0  0  0  0
    8.5747   43.5785  126.9008 C   0  0  0  0  0  0  0  0  0  0  0  0
    9.2111   42.4176  126.5787 C   0  0  0  0  0  0  0  0  0  0  0  0
    8.6159   41.5608  125.6642 O   0  0  0  0  0  0  0  0  0  0  0  0
   10.4210   42.1515  127.1812 C   0  0  0  0  0  0  0  0  0  0  0  0
   10.9840   43.0371  128.0944 C   0  0  0  0  0  0  0  0  0  0  0  0
   10.3453   44.2193  128.4308 C   0  0  0  0  0  0  0  0  0  0  0  0
   10.6544   45.2628  129.2653 N   0  0  0  0  0  0  0  0  0  0  0  0
    8.8435   41.6932  124.6784 H   0  0  0  0  0  0  0  0  0  0  0  0
    9.2518   49.7367  131.4779 C   0  0  0  0  0  0  0  0  0  0  0  0
   10.0989   49.6779  130.3609 C   0  0  0  0  0  0  0  0  0  0  0  0
   10.1742   48.5180  129.6163 C   0  0  0  0  0  0  0  0  0  0  0  0
    9.4698   47.3707  129.8798 C   0  0  0  0  0  0  0  0  0  0  0  0
    8.6380   47.4310  130.9785 C   0  0  0  0  0  0  0  0  0  0  0  0
    8.5392   48.5942  131.7525 C   0  0  0  0  0  0  0  0  0  0  0  0
    9.1895   50.9019  132.2078 O   0  0  0  0  0  0  0  0  0  0  0  0
   10.4915   49.9865  134.0316 C   0  0  0  0  0  0  0  0  0  0  0  0
   10.1087   51.2223  133.1973 C   0  0  0  0  0  0  0  0  0  0  0  0
    9.4833   52.1741  134.2375 C   0  0  0  0  0  0  0  0  0  0  0  0
   11.8385   45.1973  130.0802 C   0  0  0  0  0  0  0  0  0  0  0  0
   11.5730   45.1804  131.5474 C   0  0  0  0  0  0  0  0  0  0  0  0
   11.6963   46.2878  132.3767 C   0  0  0  0  0  0  0  0  0  0  0  0
   11.4572   46.2176  133.7407 C   0  0  0  0  0  0  0  0  0  0  0  0
   11.0814   45.0276  134.3427 C   0  0  0  0  0  0  0  0  0  0  0  0
   10.9560   43.9334  133.5486 C   0  0  0  0  0  0  0  0  0  0  0  0
   11.1973   44.0271  132.2050 C   0  0  0  0  0  0  0  0  0  0  0  0
   10.8703   45.0766  135.7039 O   0  0  0  0  0  0  0  0  0  0  0  0
    9.8033   45.6502  136.3859 C   0  0  0  0  0  0  0  0  0  0  0  0
    9.9293   47.0982  136.5777 C   0  0  0  0  0  0  0  0  0  0  0  0
    8.9348   47.6980  135.9626 C   0  0  0  0  0  0  0  0  0  0  0  0
    8.0775   46.7113  135.3200 C   0  0  0  0  0  0  0  0  0  0  0  0
    8.5734   45.5129  135.5595 C   0  0  0  0  0  0  0  0  0  0  0  0
 20 21  1  0  0  0
 21 22  1  0  0  0
 21 19  1  0  0  0
 19 13  1  0  0  0
 13 14  2  0  0  0
 14 15  1  0  0  0
 15 16  2  0  0  0
 16 17  1  0  0  0
 17 18  2  0  0  0
 16  1  1  0  0  0
  1  2  2  0  0  0
  2  3  1  0  0  0
  2  4  1  0  0  0
  4  5  2  0  0  0
  5  6  1  0  0  0
  6  7  1  0  0  0
  6  8  2  0  0  0
  8  9  1  0  0  0
  9 10  2  0  0  0
 10 11  1  0  0  0
 11 23  1  0  0  0
 23 24  1  0  0  0
 24 25  2  0  0  0
 25 26  1  0  0  0
 26 27  2  0  0  0
 27 30  1  0  0  0
 30 31  1  0  0  0
 31 32  1  0  0  0
 32 33  2  0  0  0
 33 34  1  0  0  0
 34 35  2  0  0  0
 27 28  1  0  0  0
 28 29  2  0  0  0
 18 13  1  0  0  0
 11  1  1  0  0  0
 29 24  1  0  0  0
 10  4  1  0  0  0
 35 31  1  0  0  0
  7 12  1  0  0  0
M  END
> <minimizedAffinity>
23.99376

> <CNNscore>
0.4682586789

> <CNNaffinity>
7.4475898743

> <CNN_VS>
3.4873986244

> <CNNaffinity_variance>
1.1755796671

$$$$
[H]Oc1c([H])c([H])c2c(c1[H])c(C([H])([H])[H])c(-c1c([H])c([H])c(OC([H])(C([H])([H])[H])C([H])([H])[H])c([H])c1[H])n2C([H])([H])c1c([H])c([H])c(OC2([H])C([H])=C([H])C([H])=C2[H])c([H])c1[H]


 35 39  0  0  0  0  0  0  0  0999 V2000
   10.3103   46.3192  129.7877 C   0  0  0  0  0  0  0  0  0  0  0  0
   10.9604   45.8615  128.6350 C   0  0  0  0  0  0  0  0  0  0  0  0
   10.5506   46.0481  127.1958 C   0  0  0  0  0  0  0  0  0  0  0  0
   12.0966   45.2329  129.0618 C   0  0  0  0  0  0  0  0  0  0  0  0
   13.0821   44.6242  128.3124 C   0  0  0  0  0  0  0  0  0  0  0  0
   14.1566   44.0633  128.9347 C   0  0  0  0  0  0  0  0  0  0  0  0
   15.1351   43.4562  128.1610 O   0  0  0  0  0  0  0  0  0  0  0  0
   14.2176   44.1280  130.3095 C   0  0  0  0  0  0  0  0  0  0  0  0
   13.2144   44.7456  131.0493 C   0  0  0  0  0  0  0  0  0  0  0  0
   12.1166   45.3174  130.4276 C   0  0  0  0  0  0  0  0  0  0  0  0
   11.0091   45.9871  130.8811 N   0  0  0  0  0  0  0  0  0  0  0  0
   15.9106   44.0377  127.8420 H   0  0  0  0  0  0  0  0  0  0  0  0
    6.5673   48.4325  129.5112 C   0  0  0  0  0  0  0  0  0  0  0  0
    6.7752   47.2234  128.8304 C   0  0  0  0  0  0  0  0  0  0  0  0
    7.9748   46.5546  128.9691 C   0  0  0  0  0  0  0  0  0  0  0  0
    9.0253   46.9817  129.7411 C   0  0  0  0  0  0  0  0  0  0  0  0
    8.8184   48.1707  130.4090 C   0  0  0  0  0  0  0  0  0  0  0  0
    7.6115   48.8714  130.2893 C   0  0  0  0  0  0  0  0  0  0  0  0
    5.3647   49.0847  129.3611 O   0  0  0  0  0  0  0  0  0  0  0  0
    6.5516   51.1580  128.9711 C   0  0  0  0  0  0  0  0  0  0  0  0
    5.2457   50.4671  129.4034 C   0  0  0  0  0  0  0  0  0  0  0  0
    5.0479   50.9550  130.8531 C   0  0  0  0  0  0  0  0  0  0  0  0
   10.7888   46.1244  132.2964 C   0  0  0  0  0  0  0  0  0  0  0  0
   10.2006   44.9178  132.9454 C   0  0  0  0  0  0  0  0  0  0  0  0
    8.8733   44.8119  133.3411 C   0  0  0  0  0  0  0  0  0  0  0  0
    8.3769   43.6746  133.9597 C   0  0  0  0  0  0  0  0  0  0  0  0
    9.1913   42.5828  134.2134 C   0  0  0  0  0  0  0  0  0  0  0  0
   10.4923   42.6672  133.8344 C   0  0  0  0  0  0  0  0  0  0  0  0
   10.9594   43.8000  133.2255 C   0  0  0  0  0  0  0  0  0  0  0  0
    8.5897   41.5083  134.8326 O   0  0  0  0  0  0  0  0  0  0  0  0
    7.5890   40.6817  134.3345 C   0  0  0  0  0  0  0  0  0  0  0  0
    6.3993   40.6074  135.1879 C   0  0  0  0  0  0  0  0  0  0  0  0
    5.3658   41.0687  134.5199 C   0  0  0  0  0  0  0  0  0  0  0  0
    5.7780   41.4820  133.1855 C   0  0  0  0  0  0  0  0  0  0  0  0
    7.0726   41.2613  133.0649 C   0  0  0  0  0  0  0  0  0  0  0  0
 20 21  1  0  0  0
 21 22  1  0  0  0
 21 19  1  0  0  0
 19 13  1  0  0  0
 13 14  2  0  0  0
 14 15  1  0  0  0
 15 16  2  0  0  0
 16 17  1  0  0  0
 17 18  2  0  0  0
 16  1  1  0  0  0
  1  2  2  0  0  0
  2  3  1  0  0  0
  2  4  1  0  0  0
  4  5  2  0  0  0
  5  6  1  0  0  0
  6  7  1  0  0  0
  6  8  2  0  0  0
  8  9  1  0  0  0
  9 10  2  0  0  0
 10 11  1  0  0  0
 11 23  1  0  0  0
 23 24  1  0  0  0
 24 25  2  0  0  0
 25 26  1  0  0  0
 26 27  2  0  0  0
 27 30  1  0  0  0
 30 31  1  0  0  0
 31 32  1  0  0  0
 32 33  2  0  0  0
 33 34  1  0  0  0
 34 35  2  0  0  0
 27 28  1  0  0  0
 28 29  2  0  0  0
 18 13  1  0  0  0
 11  1  1  0  0  0
 29 24  1  0  0  0
 10  4  1  0  0  0
 35 31  1  0  0  0
  7 12  1  0  0  0
M  END
> <minimizedAffinity>
18.49522

> <CNNscore>
0.4680708945

> <CNNaffinity>
7.6335573196

> <CNN_VS>
3.5730459690

> <CNNaffinity_variance>
2.2370986938

$$$$
[H]OC(=O)/C([H])=C(\[H])c1c([H])c([H])c(Oc2c(-c3c([H])c([H])c(F)c([H])c3C([H])([H])C(F)(F)F)sc3c([H])c(O[H])c([H])c([H])c23)c([H])c1[H]


 36 39  0  0  0  0  0  0  0  0999 V2000
    8.4385   46.6426  131.2977 C   0  0  0  0  0  0  0  0  0  0  0  0
    9.4396   46.7670  132.1774 C   0  0  0  0  0  0  0  0  0  0  0  0
    9.7691   48.5015  132.0949 S   0  0  0  0  0  0  0  0  0  0  0  0
    8.6129   48.9510  130.9475 C   0  0  0  0  0  0  0  0  0  0  0  0
    8.2637   50.1765  130.3429 C   0  0  0  0  0  0  0  0  0  0  0  0
    7.2656   50.2417  129.4011 C   0  0  0  0  0  0  0  0  0  0  0  0
    6.8901   51.4229  128.7826 O   0  0  0  0  0  0  0  0  0  0  0  0
    6.6527   49.0592  129.1021 C   0  0  0  0  0  0  0  0  0  0  0  0
    6.9754   47.8573  129.6776 C   0  0  0  0  0  0  0  0  0  0  0  0
    7.9978   47.7830  130.6459 C   0  0  0  0  0  0  0  0  0  0  0  0
    7.3791   51.6630  127.9173 H   0  0  0  0  0  0  0  0  0  0  0  0
   10.3487   45.8802  132.9373 C   0  0  0  0  0  0  0  0  0  0  0  0
    9.7677   45.4362  134.1793 C   0  0  0  0  0  0  0  0  0  0  0  0
   10.3948   44.5654  135.0112 C   0  0  0  0  0  0  0  0  0  0  0  0
   11.6356   44.0814  134.6628 C   0  0  0  0  0  0  0  0  0  0  0  0
   12.2610   43.2162  135.4919 F   0  0  0  0  0  0  0  0  0  0  0  0
   12.1738   44.5119  133.4771 C   0  0  0  0  0  0  0  0  0  0  0  0
   11.5388   45.4094  132.6061 C   0  0  0  0  0  0  0  0  0  0  0  0
   12.2221   45.6769  131.3370 C   0  0  0  0  0  0  0  0  0  0  0  0
   12.4057   44.4540  130.4560 C   0  0  0  0  0  0  0  0  0  0  0  0
   12.0316   44.8550  129.1817 F   0  0  0  0  0  0  0  0  0  0  0  0
   11.7786   43.3335  130.8437 F   0  0  0  0  0  0  0  0  0  0  0  0
   13.7791   44.1616  130.3542 F   0  0  0  0  0  0  0  0  0  0  0  0
    7.7919   45.3885  130.9876 O   0  0  0  0  0  0  0  0  0  0  0  0
    9.6307   42.6811  128.3132 C   0  0  0  0  0  0  0  0  0  0  0  0
    9.3885   44.0018  127.9303 C   0  0  0  0  0  0  0  0  0  0  0  0
    8.7878   44.8836  128.8046 C   0  0  0  0  0  0  0  0  0  0  0  0
    8.4077   44.5050  130.0722 C   0  0  0  0  0  0  0  0  0  0  0  0
    8.6566   43.1973  130.4277 C   0  0  0  0  0  0  0  0  0  0  0  0
    9.2532   42.2927  129.5809 C   0  0  0  0  0  0  0  0  0  0  0  0
    9.9189   40.5101  127.2262 C   0  0  0  0  0  0  0  0  0  0  0  0
   10.2673   41.7717  127.3706 C   0  0  0  0  0  0  0  0  0  0  0  0
   12.0207   39.6723  126.1977 O   0  0  0  0  0  0  0  0  0  0  0  0
   10.6345   39.7061  126.2486 C   0  0  0  0  0  0  0  0  0  0  0  0
    9.9744   39.0218  125.4258 O   0  0  0  0  0  0  0  0  0  0  0  0
   12.5343   39.4328  125.3630 H   0  0  0  0  0  0  0  0  0  0  0  0
 33 34  1  0  0  0
 34 35  2  0  0  0
 34 31  1  0  0  0
 31 32  2  0  0  0
 32 25  1  0  0  0
 25 26  2  0  0  0
 26 27  1  0  0  0
 27 28  2  0  0  0
 28 24  1  0  0  0
 24  1  1  0  0  0
  1  2  2  0  0  0
  2  3  1  0  0  0
  3  4  1  0  0  0
  4  5  2  0  0  0
  5  6  1  0  0  0
  6  7  1  0  0  0
  6  8  2  0  0  0
  8  9  1  0  0  0
  9 10  2  0  0  0
  2 12  1  0  0  0
 12 13  2  0  0  0
 13 14  1  0  0  0
 14 15  2  0  0  0
 15 16  1  0  0  0
 15 17  1  0  0  0
 17 18  2  0  0  0
 18 19  1  0  0  0
 19 20  1  0  0  0
 20 21  1  0  0  0
 20 22  1  0  0  0
 20 23  1  0  0  0
 28 29  1  0  0  0
 29 30  2  0  0  0
 30 25  1  0  0  0
 10  1  1  0  0  0
 18 12  1  0  0  0
 10  4  1  0  0  0
 33 36  1  0  0  0
  7 11  1  0  0  0
M  END
> <minimizedAffinity>
2.13879

> <CNNscore>
0.5329012275

> <CNNaffinity>
8.3368082047

> <CNN_VS>
4.4426951408

> <CNNaffinity_variance>
0.7607350349

$$$$
[H]OC(=O)/C([H])=C(\[H])c1c([H])c([H])c(Oc2c(-c3c([H])c([H])c(F)c([H])c3C([H])([H])C(F)(F)F)sc3c([H])c(O[H])c([H])c([H])c23)c([H])c1[H]


 36 39  0  0  0  0  0  0  0  0999 V2000
    8.5823   46.7631  130.7759 C   0  0  0  0  0  0  0  0  0  0  0  0
    9.3283   46.7799  131.8870 C   0  0  0  0  0  0  0  0  0  0  0  0
    9.3503   48.5049  132.2719 S   0  0  0  0  0  0  0  0  0  0  0  0
    8.4108   49.0879  130.9942 C   0  0  0  0  0  0  0  0  0  0  0  0
    7.9874   50.3752  130.6029 C   0  0  0  0  0  0  0  0  0  0  0  0
    7.2237   50.5564  129.4753 C   0  0  0  0  0  0  0  0  0  0  0  0
    6.7861   51.8015  129.0546 O   0  0  0  0  0  0  0  0  0  0  0  0
    6.9137   49.4239  128.7793 C   0  0  0  0  0  0  0  0  0  0  0  0
    7.3139   48.1634  129.1415 C   0  0  0  0  0  0  0  0  0  0  0  0
    8.0967   47.9696  130.2982 C   0  0  0  0  0  0  0  0  0  0  0  0
    7.4007   52.3122  128.4166 H   0  0  0  0  0  0  0  0  0  0  0  0
   10.1940   45.8462  132.6413 C   0  0  0  0  0  0  0  0  0  0  0  0
   11.5346   46.3507  132.8004 C   0  0  0  0  0  0  0  0  0  0  0  0
   12.4853   45.6926  133.5123 C   0  0  0  0  0  0  0  0  0  0  0  0
   12.1650   44.4946  134.1101 C   0  0  0  0  0  0  0  0  0  0  0  0
   13.1118   43.8381  134.8170 F   0  0  0  0  0  0  0  0  0  0  0  0
   10.8848   44.0291  133.9512 C   0  0  0  0  0  0  0  0  0  0  0  0
    9.8911   44.6971  133.2207 C   0  0  0  0  0  0  0  0  0  0  0  0
    8.5534   44.0977  133.2443 C   0  0  0  0  0  0  0  0  0  0  0  0
    8.4451   42.7812  132.4958 C   0  0  0  0  0  0  0  0  0  0  0  0
    7.7924   41.9149  133.3608 F   0  0  0  0  0  0  0  0  0  0  0  0
    9.5875   42.2636  132.0202 F   0  0  0  0  0  0  0  0  0  0  0  0
    7.5633   42.9399  131.4098 F   0  0  0  0  0  0  0  0  0  0  0  0
    8.2554   45.5606  130.0452 O   0  0  0  0  0  0  0  0  0  0  0  0
   11.2676   43.8194  127.6456 C   0  0  0  0  0  0  0  0  0  0  0  0
   10.1402   43.0826  128.0138 C   0  0  0  0  0  0  0  0  0  0  0  0
    9.1585   43.6527  128.7975 C   0  0  0  0  0  0  0  0  0  0  0  0
    9.2471   44.9522  129.2426 C   0  0  0  0  0  0  0  0  0  0  0  0
   10.3683   45.6595  128.8669 C   0  0  0  0  0  0  0  0  0  0  0  0
   11.3652   45.1216  128.0870 C   0  0  0  0  0  0  0  0  0  0  0  0
   12.1103   42.0566  126.1757 C   0  0  0  0  0  0  0  0  0  0  0  0
   12.2882   43.1929  126.8168 C   0  0  0  0  0  0  0  0  0  0  0  0
   14.2415   42.3482  124.9306 O   0  0  0  0  0  0  0  0  0  0  0  0
   13.2102   41.5358  125.3800 C   0  0  0  0  0  0  0  0  0  0  0  0
   13.2245   40.3120  125.0919 O   0  0  0  0  0  0  0  0  0  0  0  0
   14.8028   42.1270  124.1220 H   0  0  0  0  0  0  0  0  0  0  0  0
 33 34  1  0  0  0
 34 35  2  0  0  0
 34 31  1  0  0  0
 31 32  2  0  0  0
 32 25  1  0  0  0
 25 26  2  0  0  0
 26 27  1  0  0  0
 27 28  2  0  0  0
 28 24  1  0  0  0
 24  1  1  0  0  0
  1  2  2  0  0  0
  2  3  1  0  0  0
  3  4  1  0  0  0
  4  5  2  0  0  0
  5  6  1  0  0  0
  6  7  1  0  0  0
  6  8  2  0  0  0
  8  9  1  0  0  0
  9 10  2  0  0  0
  2 12  1  0  0  0
 12 13  2  0  0  0
 13 14  1  0  0  0
 14 15  2  0  0  0
 15 16  1  0  0  0
 15 17  1  0  0  0
 17 18  2  0  0  0
 18 19  1  0  0  0
 19 20  1  0  0  0
 20 21  1  0  0  0
 20 22  1  0  0  0
 20 23  1  0  0  0
 28 29  1  0  0  0
 29 30  2  0  0  0
 30 25  1  0  0  0
 10  1  1  0  0  0
 18 12  1  0  0  0
 10  4  1  0  0  0
 33 36  1  0  0  0
  7 11  1  0  0  0
M  END
> <minimizedAffinity>
3.88572

> <CNNscore>
0.5165893435

> <CNNaffinity>
8.2449121475

> <CNN_VS>
4.2592339516

> <CNNaffinity_variance>
0.4495263696

$$$$
[H]OC(=O)/C([H])=C(\[H])c1c([H])c([H])c(Oc2c(-c3c([H])c([H])c(F)c([H])c3C([H])([H])C(F)(F)F)sc3c([H])c(O[H])c([H])c([H])c23)c([H])c1[H]


 36 39  0  0  0  0  0  0  0  0999 V2000
    8.4185   46.4452  130.7434 C   0  0  0  0  0  0  0  0  0  0  0  0
    9.4388   46.4678  131.6093 C   0  0  0  0  0  0  0  0  0  0  0  0
    9.7787   48.1994  131.7100 S   0  0  0  0  0  0  0  0  0  0  0  0
    8.6016   48.7772  130.6443 C   0  0  0  0  0  0  0  0  0  0  0  0
    8.2483   50.0633  130.1852 C   0  0  0  0  0  0  0  0  0  0  0  0
    7.2310   50.2359  129.2782 C   0  0  0  0  0  0  0  0  0  0  0  0
    6.8508   51.4795  128.8011 O   0  0  0  0  0  0  0  0  0  0  0  0
    6.6035   49.0962  128.8651 C   0  0  0  0  0  0  0  0  0  0  0  0
    6.9299   47.8369  129.2983 C   0  0  0  0  0  0  0  0  0  0  0  0
    7.9721   47.6522  130.2301 C   0  0  0  0  0  0  0  0  0  0  0  0
    7.3229   51.8107  127.9568 H   0  0  0  0  0  0  0  0  0  0  0  0
   10.3576   45.4989  132.2475 C   0  0  0  0  0  0  0  0  0  0  0  0
   11.4940   45.1930  131.4156 C   0  0  0  0  0  0  0  0  0  0  0  0
   12.5003   44.3766  131.8214 C   0  0  0  0  0  0  0  0  0  0  0  0
   12.4416   43.8139  133.0764 C   0  0  0  0  0  0  0  0  0  0  0  0
   13.4421   42.9994  133.4798 F   0  0  0  0  0  0  0  0  0  0  0  0
   11.3549   44.1164  133.8564 C   0  0  0  0  0  0  0  0  0  0  0  0
   10.3083   44.9586  133.4531 C   0  0  0  0  0  0  0  0  0  0  0  0
    9.2810   45.2459  134.4586 C   0  0  0  0  0  0  0  0  0  0  0  0
    9.3833   46.6275  135.0797 C   0  0  0  0  0  0  0  0  0  0  0  0
    9.6165   46.4112  136.4301 F   0  0  0  0  0  0  0  0  0  0  0  0
    8.3544   47.4611  134.8661 F   0  0  0  0  0  0  0  0  0  0  0  0
   10.5499   47.2592  134.6082 F   0  0  0  0  0  0  0  0  0  0  0  0
    7.7567   45.2357  130.3120 O   0  0  0  0  0  0  0  0  0  0  0  0
    9.8823   42.4003  128.0087 C   0  0  0  0  0  0  0  0  0  0  0  0
    9.6010   43.6663  127.4916 C   0  0  0  0  0  0  0  0  0  0  0  0
    8.9066   44.5901  128.2449 C   0  0  0  0  0  0  0  0  0  0  0  0
    8.4687   44.3074  129.5188 C   0  0  0  0  0  0  0  0  0  0  0  0
    8.7577   43.0522  130.0078 C   0  0  0  0  0  0  0  0  0  0  0  0
    9.4474   42.1080  129.2837 C   0  0  0  0  0  0  0  0  0  0  0  0
   10.1450   40.2660  126.8452 C   0  0  0  0  0  0  0  0  0  0  0  0
   10.6179   41.4449  127.1919 C   0  0  0  0  0  0  0  0  0  0  0  0
   12.3046   39.1411  126.3474 O   0  0  0  0  0  0  0  0  0  0  0  0
   10.9805   39.4031  126.0257 C   0  0  0  0  0  0  0  0  0  0  0  0
   10.4854   38.8800  124.9950 O   0  0  0  0  0  0  0  0  0  0  0  0
   12.9912   38.8608  125.6633 H   0  0  0  0  0  0  0  0  0  0  0  0
 33 34  1  0  0  0
 34 35  2  0  0  0
 34 31  1  0  0  0
 31 32  2  0  0  0
 32 25  1  0  0  0
 25 26  2  0  0  0
 26 27  1  0  0  0
 27 28  2  0  0  0
 28 24  1  0  0  0
 24  1  1  0  0  0
  1  2  2  0  0  0
  2  3  1  0  0  0
  3  4  1  0  0  0
  4  5  2  0  0  0
  5  6  1  0  0  0
  6  7  1  0  0  0
  6  8  2  0  0  0
  8  9  1  0  0  0
  9 10  2  0  0  0
  2 12  1  0  0  0
 12 13  2  0  0  0
 13 14  1  0  0  0
 14 15  2  0  0  0
 15 16  1  0  0  0
 15 17  1  0  0  0
 17 18  2  0  0  0
 18 19  1  0  0  0
 19 20  1  0  0  0
 20 21  1  0  0  0
 20 22  1  0  0  0
 20 23  1  0  0  0
 28 29  1  0  0  0
 29 30  2  0  0  0
 30 25  1  0  0  0
 10  1  1  0  0  0
 18 12  1  0  0  0
 10  4  1  0  0  0
 33 36  1  0  0  0
  7 11  1  0  0  0
M  END
> <minimizedAffinity>
3.12211

> <CNNscore>
0.4873426855

> <CNNaffinity>
8.4912605286

> <CNN_VS>
4.1381535530

> <CNNaffinity_variance>
1.3276717663

$$$$
[H]OC(=O)/C([H])=C(\[H])c1c([H])c([H])c(Oc2c(-c3c([H])c([H])c(F)c([H])c3C([H])([H])C(F)(F)F)sc3c([H])c(O[H])c([H])c([H])c23)c([H])c1[H]


 36 39  0  0  0  0  0  0  0  0999 V2000
   10.7615   44.7482  131.3542 C   0  0  0  0  0  0  0  0  0  0  0  0
   10.4564   44.0285  132.4406 C   0  0  0  0  0  0  0  0  0  0  0  0
    9.7794   42.5652  131.7164 S   0  0  0  0  0  0  0  0  0  0  0  0
    9.9292   42.9676  130.0821 C   0  0  0  0  0  0  0  0  0  0  0  0
    9.5925   42.3098  128.8807 C   0  0  0  0  0  0  0  0  0  0  0  0
    9.8189   42.9026  127.6622 C   0  0  0  0  0  0  0  0  0  0  0  0
    9.5044   42.2933  126.4586 O   0  0  0  0  0  0  0  0  0  0  0  0
   10.3804   44.1461  127.7016 C   0  0  0  0  0  0  0  0  0  0  0  0
   10.7159   44.8035  128.8571 C   0  0  0  0  0  0  0  0  0  0  0  0
   10.4877   44.2008  130.1113 C   0  0  0  0  0  0  0  0  0  0  0  0
    8.5674   42.4668  126.0878 H   0  0  0  0  0  0  0  0  0  0  0  0
   10.3700   44.2335  133.9037 C   0  0  0  0  0  0  0  0  0  0  0  0
   11.3680   43.4810  134.6214 C   0  0  0  0  0  0  0  0  0  0  0  0
   11.5187   43.5626  135.9683 C   0  0  0  0  0  0  0  0  0  0  0  0
   10.6898   44.3952  136.6860 C   0  0  0  0  0  0  0  0  0  0  0  0
   10.8382   44.4749  138.0271 F   0  0  0  0  0  0  0  0  0  0  0  0
    9.7469   45.1058  135.9883 C   0  0  0  0  0  0  0  0  0  0  0  0
    9.5792   45.0341  134.5976 C   0  0  0  0  0  0  0  0  0  0  0  0
    8.5864   45.9419  134.0151 C   0  0  0  0  0  0  0  0  0  0  0  0
    8.7856   47.4025  134.3787 C   0  0  0  0  0  0  0  0  0  0  0  0
   10.1577   47.6068  134.3568 F   0  0  0  0  0  0  0  0  0  0  0  0
    8.2254   47.8194  135.5238 F   0  0  0  0  0  0  0  0  0  0  0  0
    8.2836   48.2086  133.3392 F   0  0  0  0  0  0  0  0  0  0  0  0
   11.3583   46.0630  131.4025 O   0  0  0  0  0  0  0  0  0  0  0  0
    8.9020   49.3876  130.5213 C   0  0  0  0  0  0  0  0  0  0  0  0
   10.1140   49.5597  131.1927 C   0  0  0  0  0  0  0  0  0  0  0  0
   10.9139   48.4731  131.4798 C   0  0  0  0  0  0  0  0  0  0  0  0
   10.5569   47.1929  131.1217 C   0  0  0  0  0  0  0  0  0  0  0  0
    9.3570   47.0476  130.4604 C   0  0  0  0  0  0  0  0  0  0  0  0
    8.5359   48.1090  130.1589 C   0  0  0  0  0  0  0  0  0  0  0  0
    7.5364   50.7865  129.0529 C   0  0  0  0  0  0  0  0  0  0  0  0
    8.0777   50.5524  130.2301 C   0  0  0  0  0  0  0  0  0  0  0  0
    6.7669   52.7437  127.7283 O   0  0  0  0  0  0  0  0  0  0  0  0
    6.7330   51.9876  128.8913 C   0  0  0  0  0  0  0  0  0  0  0  0
    5.9859   52.3495  129.8357 O   0  0  0  0  0  0  0  0  0  0  0  0
    6.5222   53.7221  127.7016 H   0  0  0  0  0  0  0  0  0  0  0  0
 33 34  1  0  0  0
 34 35  2  0  0  0
 34 31  1  0  0  0
 31 32  2  0  0  0
 32 25  1  0  0  0
 25 26  2  0  0  0
 26 27  1  0  0  0
 27 28  2  0  0  0
 28 24  1  0  0  0
 24  1  1  0  0  0
  1  2  2  0  0  0
  2  3  1  0  0  0
  3  4  1  0  0  0
  4  5  2  0  0  0
  5  6  1  0  0  0
  6  7  1  0  0  0
  6  8  2  0  0  0
  8  9  1  0  0  0
  9 10  2  0  0  0
  2 12  1  0  0  0
 12 13  2  0  0  0
 13 14  1  0  0  0
 14 15  2  0  0  0
 15 16  1  0  0  0
 15 17  1  0  0  0
 17 18  2  0  0  0
 18 19  1  0  0  0
 19 20  1  0  0  0
 20 21  1  0  0  0
 20 22  1  0  0  0
 20 23  1  0  0  0
 28 29  1  0  0  0
 29 30  2  0  0  0
 30 25  1  0  0  0
 10  1  1  0  0  0
 18 12  1  0  0  0
 10  4  1  0  0  0
 33 36  1  0  0  0
  7 11  1  0  0  0
M  END
> <minimizedAffinity>
2.77138

> <CNNscore>
0.4370200932

> <CNNaffinity>
8.0585231781

> <CNN_VS>
3.5217366219

> <CNNaffinity_variance>
1.1288115978

$$$$
[H]OC(=O)/C([H])=C(\[H])c1c([H])c([H])c(Oc2c(-c3c([H])c([H])c(F)c([H])c3C([H])([H])C(F)(F)F)sc3c([H])c(O[H])c([H])c([H])c23)c([H])c1[H]


 36 39  0  0  0  0  0  0  0  0999 V2000
    9.2107   45.7960  130.6807 C   0  0  0  0  0  0  0  0  0  0  0  0
    9.8799   45.9929  131.8230 C   0  0  0  0  0  0  0  0  0  0  0  0
   11.4533   45.2860  131.4372 S   0  0  0  0  0  0  0  0  0  0  0  0
   11.1538   44.7874  129.8508 C   0  0  0  0  0  0  0  0  0  0  0  0
   11.9264   44.1248  128.8742 C   0  0  0  0  0  0  0  0  0  0  0  0
   11.4007   43.8231  127.6413 C   0  0  0  0  0  0  0  0  0  0  0  0
   12.1229   43.1742  126.6533 O   0  0  0  0  0  0  0  0  0  0  0  0
   10.1057   44.2038  127.4381 C   0  0  0  0  0  0  0  0  0  0  0  0
    9.3370   44.8490  128.3724 C   0  0  0  0  0  0  0  0  0  0  0  0
    9.8701   45.1630  129.6395 C   0  0  0  0  0  0  0  0  0  0  0  0
   12.0747   42.1529  126.6459 H   0  0  0  0  0  0  0  0  0  0  0  0
    9.5822   46.4140  133.2101 C   0  0  0  0  0  0  0  0  0  0  0  0
    9.1120   47.7746  133.2797 C   0  0  0  0  0  0  0  0  0  0  0  0
    8.7183   48.3550  134.4424 C   0  0  0  0  0  0  0  0  0  0  0  0
    8.7663   47.6222  135.6068 C   0  0  0  0  0  0  0  0  0  0  0  0
    8.3766   48.2004  136.7648 F   0  0  0  0  0  0  0  0  0  0  0  0
    9.2140   46.3286  135.5235 C   0  0  0  0  0  0  0  0  0  0  0  0
    9.6227   45.7139  134.3309 C   0  0  0  0  0  0  0  0  0  0  0  0
    9.9750   44.2936  134.4192 C   0  0  0  0  0  0  0  0  0  0  0  0
   11.4596   44.0276  134.5939 C   0  0  0  0  0  0  0  0  0  0  0  0
   11.5784   43.3697  135.8096 F   0  0  0  0  0  0  0  0  0  0  0  0
   12.2756   45.0884  134.5053 F   0  0  0  0  0  0  0  0  0  0  0  0
   11.8754   43.0873  133.6320 F   0  0  0  0  0  0  0  0  0  0  0  0
    7.8408   46.2038  130.4709 O   0  0  0  0  0  0  0  0  0  0  0  0
    7.1264   50.1749  129.2124 C   0  0  0  0  0  0  0  0  0  0  0  0
    6.1346   49.2008  129.0829 C   0  0  0  0  0  0  0  0  0  0  0  0
    6.3701   47.9052  129.4938 C   0  0  0  0  0  0  0  0  0  0  0  0
    7.5741   47.5236  130.0409 C   0  0  0  0  0  0  0  0  0  0  0  0
    8.5375   48.5015  130.1586 C   0  0  0  0  0  0  0  0  0  0  0  0
    8.3358   49.8020  129.7589 C   0  0  0  0  0  0  0  0  0  0  0  0
    7.4747   52.1171  127.7687 C   0  0  0  0  0  0  0  0  0  0  0  0
    6.8505   51.5351  128.7713 C   0  0  0  0  0  0  0  0  0  0  0  0
    7.1186   53.9405  126.1178 O   0  0  0  0  0  0  0  0  0  0  0  0
    7.1060   53.4815  127.4272 C   0  0  0  0  0  0  0  0  0  0  0  0
    6.7659   54.2668  128.3484 O   0  0  0  0  0  0  0  0  0  0  0  0
    7.2167   54.9157  125.8783 H   0  0  0  0  0  0  0  0  0  0  0  0
 33 34  1  0  0  0
 34 35  2  0  0  0
 34 31  1  0  0  0
 31 32  2  0  0  0
 32 25  1  0  0  0
 25 26  2  0  0  0
 26 27  1  0  0  0
 27 28  2  0  0  0
 28 24  1  0  0  0
 24  1  1  0  0  0
  1  2  2  0  0  0
  2  3  1  0  0  0
  3  4  1  0  0  0
  4  5  2  0  0  0
  5  6  1  0  0  0
  6  7  1  0  0  0
  6  8  2  0  0  0
  8  9  1  0  0  0
  9 10  2  0  0  0
  2 12  1  0  0  0
 12 13  2  0  0  0
 13 14  1  0  0  0
 14 15  2  0  0  0
 15 16  1  0  0  0
 15 17  1  0  0  0
 17 18  2  0  0  0
 18 19  1  0  0  0
 19 20  1  0  0  0
 20 21  1  0  0  0
 20 22  1  0  0  0
 20 23  1  0  0  0
 28 29  1  0  0  0
 29 30  2  0  0  0
 30 25  1  0  0  0
 10  1  1  0  0  0
 18 12  1  0  0  0
 10  4  1  0  0  0
 33 36  1  0  0  0
  7 11  1  0  0  0
M  END
> <minimizedAffinity>
1.76775

> <CNNscore>
0.4248563051

> <CNNaffinity>
7.8405938148

> <CNN_VS>
3.3311257362

> <CNNaffinity_variance>
1.0610060692

$$$$
[H]OC(=O)/C([H])=C(\[H])c1c([H])c([H])c(Oc2c(-c3c([H])c([H])c(F)c([H])c3C([H])([H])C(F)(F)F)sc3c([H])c(O[H])c([H])c([H])c23)c([H])c1[H]


 36 39  0  0  0  0  0  0  0  0999 V2000
    8.3192   47.3220  130.1720 C   0  0  0  0  0  0  0  0  0  0  0  0
    8.0554   46.0327  130.4161 C   0  0  0  0  0  0  0  0  0  0  0  0
    6.3113   45.9697  130.1365 S   0  0  0  0  0  0  0  0  0  0  0  0
    6.0354   47.5863  129.7292 C   0  0  0  0  0  0  0  0  0  0  0  0
    4.8826   48.3223  129.3848 C   0  0  0  0  0  0  0  0  0  0  0  0
    4.9566   49.6672  129.1140 C   0  0  0  0  0  0  0  0  0  0  0  0
    3.8509   50.4283  128.7719 O   0  0  0  0  0  0  0  0  0  0  0  0
    6.2001   50.2233  129.2016 C   0  0  0  0  0  0  0  0  0  0  0  0
    7.3337   49.5270  129.5337 C   0  0  0  0  0  0  0  0  0  0  0  0
    7.2655   48.1463  129.8117 C   0  0  0  0  0  0  0  0  0  0  0  0
    3.3397   50.8662  129.5415 H   0  0  0  0  0  0  0  0  0  0  0  0
    8.7515   44.8605  130.9919 C   0  0  0  0  0  0  0  0  0  0  0  0
    8.4876   44.7051  132.4003 C   0  0  0  0  0  0  0  0  0  0  0  0
    8.9698   43.6632  133.1252 C   0  0  0  0  0  0  0  0  0  0  0  0
    9.7426   42.7117  132.4984 C   0  0  0  0  0  0  0  0  0  0  0  0
   10.2246   41.6756  133.2204 F   0  0  0  0  0  0  0  0  0  0  0  0
    9.9828   42.8728  131.1579 C   0  0  0  0  0  0  0  0  0  0  0  0
    9.4912   43.9419  130.3945 C   0  0  0  0  0  0  0  0  0  0  0  0
    9.7672   43.8941  128.9556 C   0  0  0  0  0  0  0  0  0  0  0  0
   10.9961   44.6767  128.5285 C   0  0  0  0  0  0  0  0  0  0  0  0
   11.5156   43.9882  127.4418 F   0  0  0  0  0  0  0  0  0  0  0  0
   11.9188   44.9109  129.4733 F   0  0  0  0  0  0  0  0  0  0  0  0
   10.5920   45.9210  128.0083 F   0  0  0  0  0  0  0  0  0  0  0  0
    9.6382   47.9041  130.2637 O   0  0  0  0  0  0  0  0  0  0  0  0
   11.4811   48.2222  134.0539 C   0  0  0  0  0  0  0  0  0  0  0  0
   11.7562   47.1362  133.2207 C   0  0  0  0  0  0  0  0  0  0  0  0
   11.1532   47.0341  131.9842 C   0  0  0  0  0  0  0  0  0  0  0  0
   10.2686   47.9840  131.5262 C   0  0  0  0  0  0  0  0  0  0  0  0
   10.0125   49.0462  132.3655 C   0  0  0  0  0  0  0  0  0  0  0  0
   10.5960   49.1785  133.6038 C   0  0  0  0  0  0  0  0  0  0  0  0
   13.2650   48.9442  135.5621 C   0  0  0  0  0  0  0  0  0  0  0  0
   12.1325   48.3054  135.3537 C   0  0  0  0  0  0  0  0  0  0  0  0
   13.2518   49.7125  137.9257 O   0  0  0  0  0  0  0  0  0  0  0  0
   13.8126   48.9528  136.9090 C   0  0  0  0  0  0  0  0  0  0  0  0
   14.8251   48.2496  137.1568 O   0  0  0  0  0  0  0  0  0  0  0  0
   13.7723   50.0190  138.7337 H   0  0  0  0  0  0  0  0  0  0  0  0
 33 34  1  0  0  0
 34 35  2  0  0  0
 34 31  1  0  0  0
 31 32  2  0  0  0
 32 25  1  0  0  0
 25 26  2  0  0  0
 26 27  1  0  0  0
 27 28  2  0  0  0
 28 24  1  0  0  0
 24  1  1  0  0  0
  1  2  2  0  0  0
  2  3  1  0  0  0
  3  4  1  0  0  0
  4  5  2  0  0  0
  5  6  1  0  0  0
  6  7  1  0  0  0
  6  8  2  0  0  0
  8  9  1  0  0  0
  9 10  2  0  0  0
  2 12  1  0  0  0
 12 13  2  0  0  0
 13 14  1  0  0  0
 14 15  2  0  0  0
 15 16  1  0  0  0
 15 17  1  0  0  0
 17 18  2  0  0  0
 18 19  1  0  0  0
 19 20  1  0  0  0
 20 21  1  0  0  0
 20 22  1  0  0  0
 20 23  1  0  0  0
 28 29  1  0  0  0
 29 30  2  0  0  0
 30 25  1  0  0  0
 10  1  1  0  0  0
 18 12  1  0  0  0
 10  4  1  0  0  0
 33 36  1  0  0  0
  7 11  1  0  0  0
M  END
> <minimizedAffinity>
3.45433

> <CNNscore>
0.4245955348

> <CNNaffinity>
8.0234813690

> <CNN_VS>
3.4067344666

> <CNNaffinity_variance>
1.0294030905

$$$$
[H]OC(=O)/C([H])=C(\[H])c1c([H])c([H])c(Oc2c(-c3c([H])c([H])c(F)c([H])c3C([H])([H])C(F)(F)F)sc3c([H])c(O[H])c([H])c([H])c23)c([H])c1[H]


 36 39  0  0  0  0  0  0  0  0999 V2000
   10.5471   45.5504  130.7103 C   0  0  0  0  0  0  0  0  0  0  0  0
   10.6294   45.8406  132.0143 C   0  0  0  0  0  0  0  0  0  0  0  0
   12.3090   45.4167  132.3653 S   0  0  0  0  0  0  0  0  0  0  0  0
   12.7926   44.8986  130.8314 C   0  0  0  0  0  0  0  0  0  0  0  0
   14.0006   44.3914  130.3090 C   0  0  0  0  0  0  0  0  0  0  0  0
   14.1014   44.0237  128.9891 C   0  0  0  0  0  0  0  0  0  0  0  0
   15.2672   43.5217  128.4344 O   0  0  0  0  0  0  0  0  0  0  0  0
   12.9713   44.1824  128.2401 C   0  0  0  0  0  0  0  0  0  0  0  0
   11.7873   44.6736  128.7269 C   0  0  0  0  0  0  0  0  0  0  0  0
   11.6768   45.0542  130.0800 C   0  0  0  0  0  0  0  0  0  0  0  0
   15.3907   42.5072  128.4669 H   0  0  0  0  0  0  0  0  0  0  0  0
    9.7099   46.1840  133.1218 C   0  0  0  0  0  0  0  0  0  0  0  0
   10.0336   47.4506  133.7286 C   0  0  0  0  0  0  0  0  0  0  0  0
    9.2882   47.9984  134.7226 C   0  0  0  0  0  0  0  0  0  0  0  0
    8.1764   47.3244  135.1754 C   0  0  0  0  0  0  0  0  0  0  0  0
    7.4354   47.8684  136.1664 F   0  0  0  0  0  0  0  0  0  0  0  0
    7.8808   46.1217  134.5865 C   0  0  0  0  0  0  0  0  0  0  0  0
    8.6391   45.5430  133.5582 C   0  0  0  0  0  0  0  0  0  0  0  0
    8.1135   44.3014  132.9827 C   0  0  0  0  0  0  0  0  0  0  0  0
    9.0242   43.0986  133.1537 C   0  0  0  0  0  0  0  0  0  0  0  0
    8.2013   42.0680  133.5842 F   0  0  0  0  0  0  0  0  0  0  0  0
   10.0948   43.2620  133.9450 F   0  0  0  0  0  0  0  0  0  0  0  0
    9.4865   42.6875  131.8890 F   0  0  0  0  0  0  0  0  0  0  0  0
    9.3486   45.7232  129.9223 O   0  0  0  0  0  0  0  0  0  0  0  0
    7.7620   49.5853  129.2670 C   0  0  0  0  0  0  0  0  0  0  0  0
    8.9902   49.4232  129.9109 C   0  0  0  0  0  0  0  0  0  0  0  0
    9.5060   48.1617  130.1242 C   0  0  0  0  0  0  0  0  0  0  0  0
    8.8421   47.0267  129.7173 C   0  0  0  0  0  0  0  0  0  0  0  0
    7.6323   47.2113  129.0844 C   0  0  0  0  0  0  0  0  0  0  0  0
    7.0897   48.4542  128.8561 C   0  0  0  0  0  0  0  0  0  0  0  0
    7.5427   51.6698  128.0081 C   0  0  0  0  0  0  0  0  0  0  0  0
    7.2416   50.9287  129.0539 C   0  0  0  0  0  0  0  0  0  0  0  0
    6.8747   53.6797  126.7076 O   0  0  0  0  0  0  0  0  0  0  0  0
    6.9558   52.9967  127.9127 C   0  0  0  0  0  0  0  0  0  0  0  0
    6.5091   53.5389  128.9555 O   0  0  0  0  0  0  0  0  0  0  0  0
    6.8123   54.6849  126.6489 H   0  0  0  0  0  0  0  0  0  0  0  0
 33 34  1  0  0  0
 34 35  2  0  0  0
 34 31  1  0  0  0
 31 32  2  0  0  0
 32 25  1  0  0  0
 25 26  2  0  0  0
 26 27  1  0  0  0
 27 28  2  0  0  0
 28 24  1  0  0  0
 24  1  1  0  0  0
  1  2  2  0  0  0
  2  3  1  0  0  0
  3  4  1  0  0  0
  4  5  2  0  0  0
  5  6  1  0  0  0
  6  7  1  0  0  0
  6  8  2  0  0  0
  8  9  1  0  0  0
  9 10  2  0  0  0
  2 12  1  0  0  0
 12 13  2  0  0  0
 13 14  1  0  0  0
 14 15  2  0  0  0
 15 16  1  0  0  0
 15 17  1  0  0  0
 17 18  2  0  0  0
 18 19  1  0  0  0
 19 20  1  0  0  0
 20 21  1  0  0  0
 20 22  1  0  0  0
 20 23  1  0  0  0
 28 29  1  0  0  0
 29 30  2  0  0  0
 30 25  1  0  0  0
 10  1  1  0  0  0
 18 12  1  0  0  0
 10  4  1  0  0  0
 33 36  1  0  0  0
  7 11  1  0  0  0
M  END
> <minimizedAffinity>
1.07210

> <CNNscore>
0.4168025553

> <CNNaffinity>
7.8152847290

> <CNN_VS>
3.2574305534

> <CNNaffinity_variance>
0.7785814404

$$$$
[H]OC(=O)/C([H])=C(\[H])c1c([H])c([H])c(Oc2c(-c3c([H])c([H])c(F)c([H])c3C([H])([H])C(F)(F)F)sc3c([H])c(O[H])c([H])c([H])c23)c([H])c1[H]


 36 39  0  0  0  0  0  0  0  0999 V2000
    8.5981   45.5285  132.1933 C   0  0  0  0  0  0  0  0  0  0  0  0
    9.5205   44.7385  131.6307 C   0  0  0  0  0  0  0  0  0  0  0  0
   10.7466   44.6661  132.9017 S   0  0  0  0  0  0  0  0  0  0  0  0
   10.0044   45.6454  134.0616 C   0  0  0  0  0  0  0  0  0  0  0  0
   10.3734   46.0805  135.3515 C   0  0  0  0  0  0  0  0  0  0  0  0
    9.5564   46.9121  136.0784 C   0  0  0  0  0  0  0  0  0  0  0  0
    9.8788   47.3632  137.3477 O   0  0  0  0  0  0  0  0  0  0  0  0
    8.3889   47.2765  135.4721 C   0  0  0  0  0  0  0  0  0  0  0  0
    8.0101   46.8653  134.2201 C   0  0  0  0  0  0  0  0  0  0  0  0
    8.8430   46.0108  133.4689 C   0  0  0  0  0  0  0  0  0  0  0  0
   10.4018   48.2400  137.4037 H   0  0  0  0  0  0  0  0  0  0  0  0
    9.8083   44.1662  130.2966 C   0  0  0  0  0  0  0  0  0  0  0  0
    8.7278   43.3470  129.8082 C   0  0  0  0  0  0  0  0  0  0  0  0
    8.7438   42.7701  128.5791 C   0  0  0  0  0  0  0  0  0  0  0  0
    9.8315   42.9702  127.7592 C   0  0  0  0  0  0  0  0  0  0  0  0
    9.8486   42.3942  126.5365 F   0  0  0  0  0  0  0  0  0  0  0  0
   10.8502   43.7537  128.2377 C   0  0  0  0  0  0  0  0  0  0  0  0
   10.8486   44.3579  129.5036 C   0  0  0  0  0  0  0  0  0  0  0  0
   11.9788   45.2422  129.8031 C   0  0  0  0  0  0  0  0  0  0  0  0
   13.1767   44.5395  130.4168 C   0  0  0  0  0  0  0  0  0  0  0  0
   13.5513   45.3216  131.4997 F   0  0  0  0  0  0  0  0  0  0  0  0
   14.2050   44.2762  129.5968 F   0  0  0  0  0  0  0  0  0  0  0  0
   12.7564   43.3196  130.9802 F   0  0  0  0  0  0  0  0  0  0  0  0
    7.3630   45.9085  131.5474 O   0  0  0  0  0  0  0  0  0  0  0  0
    7.3503   49.4125  129.1842 C   0  0  0  0  0  0  0  0  0  0  0  0
    6.4980   48.3492  128.8803 C   0  0  0  0  0  0  0  0  0  0  0  0
    6.5041   47.2063  129.6526 C   0  0  0  0  0  0  0  0  0  0  0  0
    7.3377   47.0677  130.7392 C   0  0  0  0  0  0  0  0  0  0  0  0
    8.1696   48.1295  131.0197 C   0  0  0  0  0  0  0  0  0  0  0  0
    8.1889   49.2827  130.2705 C   0  0  0  0  0  0  0  0  0  0  0  0
    7.1234   51.8204  128.8255 C   0  0  0  0  0  0  0  0  0  0  0  0
    7.3223   50.6077  128.3526 C   0  0  0  0  0  0  0  0  0  0  0  0
    7.6279   52.8130  126.6035 O   0  0  0  0  0  0  0  0  0  0  0  0
    7.1184   52.9323  127.8886 C   0  0  0  0  0  0  0  0  0  0  0  0
    6.6372   54.0340  128.2570 O   0  0  0  0  0  0  0  0  0  0  0  0
    7.9599   53.6013  126.0686 H   0  0  0  0  0  0  0  0  0  0  0  0
 33 34  1  0  0  0
 34 35  2  0  0  0
 34 31  1  0  0  0
 31 32  2  0  0  0
 32 25  1  0  0  0
 25 26  2  0  0  0
 26 27  1  0  0  0
 27 28  2  0  0  0
 28 24  1  0  0  0
 24  1  1  0  0  0
  1  2  2  0  0  0
  2  3  1  0  0  0
  3  4  1  0  0  0
  4  5  2  0  0  0
  5  6  1  0  0  0
  6  7  1  0  0  0
  6  8  2  0  0  0
  8  9  1  0  0  0
  9 10  2  0  0  0
  2 12  1  0  0  0
 12 13  2  0  0  0
 13 14  1  0  0  0
 14 15  2  0  0  0
 15 16  1  0  0  0
 15 17  1  0  0  0
 17 18  2  0  0  0
 18 19  1  0  0  0
 19 20  1  0  0  0
 20 21  1  0  0  0
 20 22  1  0  0  0
 20 23  1  0  0  0
 28 29  1  0  0  0
 29 30  2  0  0  0
 30 25  1  0  0  0
 10  1  1  0  0  0
 18 12  1  0  0  0
 10  4  1  0  0  0
 33 36  1  0  0  0
  7 11  1  0  0  0
M  END
> <minimizedAffinity>
1.68805

> <CNNscore>
0.3697789013

> <CNNaffinity>
7.7727708817

> <CNN_VS>
2.8742067814

> <CNNaffinity_variance>
1.0993922949

$$$$
[H]OC(=O)/C([H])=C(\[H])c1c([H])c([H])c(Oc2c(-c3c([H])c([H])c(F)c([H])c3C([H])([H])C(F)(F)F)sc3c([H])c(O[H])c([H])c([H])c23)c([H])c1[H]


 36 39  0  0  0  0  0  0  0  0999 V2000
    8.0900   47.5830  130.9979 C   0  0  0  0  0  0  0  0  0  0  0  0
    8.4848   47.7923  132.2595 C   0  0  0  0  0  0  0  0  0  0  0  0
    8.3535   49.5505  132.3839 S   0  0  0  0  0  0  0  0  0  0  0  0
    7.8066   49.9006  130.8239 C   0  0  0  0  0  0  0  0  0  0  0  0
    7.4821   51.0960  130.1493 C   0  0  0  0  0  0  0  0  0  0  0  0
    7.0703   51.0794  128.8388 C   0  0  0  0  0  0  0  0  0  0  0  0
    6.7417   52.2284  128.1383 O   0  0  0  0  0  0  0  0  0  0  0  0
    7.0008   49.8483  128.2534 C   0  0  0  0  0  0  0  0  0  0  0  0
    7.3106   48.6741  128.8900 C   0  0  0  0  0  0  0  0  0  0  0  0
    7.7328   48.6833  130.2354 C   0  0  0  0  0  0  0  0  0  0  0  0
    7.5010   52.6899  127.6324 H   0  0  0  0  0  0  0  0  0  0  0  0
    9.1199   47.0223  133.3522 C   0  0  0  0  0  0  0  0  0  0  0  0
    8.2390   46.8433  134.4788 C   0  0  0  0  0  0  0  0  0  0  0  0
    8.5855   46.1150  135.5711 C   0  0  0  0  0  0  0  0  0  0  0  0
    9.8260   45.5196  135.6132 C   0  0  0  0  0  0  0  0  0  0  0  0
   10.1722   44.7963  136.7015 F   0  0  0  0  0  0  0  0  0  0  0  0
   10.6516   45.6977  134.5327 C   0  0  0  0  0  0  0  0  0  0  0  0
   10.3085   46.4452  133.3966 C   0  0  0  0  0  0  0  0  0  0  0  0
   11.2795   46.4413  132.2984 C   0  0  0  0  0  0  0  0  0  0  0  0
   12.4148   45.4481  132.4714 C   0  0  0  0  0  0  0  0  0  0  0  0
   13.3598   45.7944  131.5165 F   0  0  0  0  0  0  0  0  0  0  0  0
   12.0899   44.1478  132.4204 F   0  0  0  0  0  0  0  0  0  0  0  0
   13.0474   45.6823  133.7072 F   0  0  0  0  0  0  0  0  0  0  0  0
    8.0159   46.2770  130.3848 O   0  0  0  0  0  0  0  0  0  0  0  0
   11.6085   44.4567  129.1029 C   0  0  0  0  0  0  0  0  0  0  0  0
   10.6840   43.7410  129.8661 C   0  0  0  0  0  0  0  0  0  0  0  0
    9.5123   44.3372  130.2838 C   0  0  0  0  0  0  0  0  0  0  0  0
    9.2093   45.6429  129.9706 C   0  0  0  0  0  0  0  0  0  0  0  0
   10.1363   46.3292  129.2171 C   0  0  0  0  0  0  0  0  0  0  0  0
   11.3138   45.7652  128.7846 C   0  0  0  0  0  0  0  0  0  0  0  0
   14.0356   44.1618  129.0840 C   0  0  0  0  0  0  0  0  0  0  0  0
   12.8369   43.8023  128.6744 C   0  0  0  0  0  0  0  0  0  0  0  0
   15.9549   42.6150  129.4015 O   0  0  0  0  0  0  0  0  0  0  0  0
   15.1843   43.4261  128.5807 C   0  0  0  0  0  0  0  0  0  0  0  0
   15.4861   43.5301  127.3645 O   0  0  0  0  0  0  0  0  0  0  0  0
   16.9157   42.3832  129.1993 H   0  0  0  0  0  0  0  0  0  0  0  0
 33 34  1  0  0  0
 34 35  2  0  0  0
 34 31  1  0  0  0
 31 32  2  0  0  0
 32 25  1  0  0  0
 25 26  2  0  0  0
 26 27  1  0  0  0
 27 28  2  0  0  0
 28 24  1  0  0  0
 24  1  1  0  0  0
  1  2  2  0  0  0
  2  3  1  0  0  0
  3  4  1  0  0  0
  4  5  2  0  0  0
  5  6  1  0  0  0
  6  7  1  0  0  0
  6  8  2  0  0  0
  8  9  1  0  0  0
  9 10  2  0  0  0
  2 12  1  0  0  0
 12 13  2  0  0  0
 13 14  1  0  0  0
 14 15  2  0  0  0
 15 16  1  0  0  0
 15 17  1  0  0  0
 17 18  2  0  0  0
 18 19  1  0  0  0
 19 20  1  0  0  0
 20 21  1  0  0  0
 20 22  1  0  0  0
 20 23  1  0  0  0
 28 29  1  0  0  0
 29 30  2  0  0  0
 30 25  1  0  0  0
 10  1  1  0  0  0
 18 12  1  0  0  0
 10  4  1  0  0  0
 33 36  1  0  0  0
  7 11  1  0  0  0
M  END
> <minimizedAffinity>
2.79541

> <CNNscore>
0.3512262404

> <CNNaffinity>
7.6223983765

> <CNN_VS>
2.6771862507

> <CNNaffinity_variance>
0.6960763931

$$$$
[H]OC(=O)/C([H])=C(\[H])c1nc([H])c(Oc2c(-c3c([H])c([H])c([H])c([H])c3C([H])(C([H])([H])[H])C([H])([H])[H])sc3c([H])c(O[H])c([H])c([H])c23)c([H])c1[H]


 33 36  0  0  0  0  0  0  0  0999 V2000
   10.0086   46.9779  131.8613 C   0  0  0  0  0  0  0  0  0  0  0  0
    9.9787   48.6775  132.1223 S   0  0  0  0  0  0  0  0  0  0  0  0
    8.9013   49.1556  130.9123 C   0  0  0  0  0  0  0  0  0  0  0  0
    8.3320   50.3946  130.5560 C   0  0  0  0  0  0  0  0  0  0  0  0
    7.3869   50.4488  129.5359 C   0  0  0  0  0  0  0  0  0  0  0  0
    6.7938   51.6348  129.1523 O   0  0  0  0  0  0  0  0  0  0  0  0
    7.0469   49.2771  128.9091 C   0  0  0  0  0  0  0  0  0  0  0  0
    7.6257   48.0932  129.2892 C   0  0  0  0  0  0  0  0  0  0  0  0
    8.5829   48.0022  130.3159 C   0  0  0  0  0  0  0  0  0  0  0  0
    9.1397   46.8262  130.7705 C   0  0  0  0  0  0  0  0  0  0  0  0
    6.1058   51.6484  128.4122 H   0  0  0  0  0  0  0  0  0  0  0  0
   10.2580   45.6186  133.8995 C   0  0  0  0  0  0  0  0  0  0  0  0
   11.0887   44.7670  134.6799 C   0  0  0  0  0  0  0  0  0  0  0  0
   12.2615   44.2481  134.2402 C   0  0  0  0  0  0  0  0  0  0  0  0
   12.6811   44.5495  132.9905 C   0  0  0  0  0  0  0  0  0  0  0  0
   11.8653   45.4073  132.1904 C   0  0  0  0  0  0  0  0  0  0  0  0
   10.6798   45.9310  132.6383 C   0  0  0  0  0  0  0  0  0  0  0  0
    8.7443   47.1017  135.2662 C   0  0  0  0  0  0  0  0  0  0  0  0
    8.8903   45.8769  134.3857 C   0  0  0  0  0  0  0  0  0  0  0  0
    7.6915   45.1859  133.9141 C   0  0  0  0  0  0  0  0  0  0  0  0
    8.9190   45.5881  130.2591 O   0  0  0  0  0  0  0  0  0  0  0  0
    9.2866   44.5845  129.5274 C   0  0  0  0  0  0  0  0  0  0  0  0
   10.2032   44.9051  128.4791 C   0  0  0  0  0  0  0  0  0  0  0  0
   10.6745   43.9826  127.6216 C   0  0  0  0  0  0  0  0  0  0  0  0
   10.2530   42.6857  127.7706 C   0  0  0  0  0  0  0  0  0  0  0  0
    9.3947   42.3814  128.7526 N   0  0  0  0  0  0  0  0  0  0  0  0
    8.9106   43.2693  129.6151 C   0  0  0  0  0  0  0  0  0  0  0  0
   10.7643   41.6435  126.8648 C   0  0  0  0  0  0  0  0  0  0  0  0
   10.2947   40.4008  126.9043 C   0  0  0  0  0  0  0  0  0  0  0  0
   10.7864   39.3633  126.0260 C   0  0  0  0  0  0  0  0  0  0  0  0
    9.9031   38.8125  125.0870 O   0  0  0  0  0  0  0  0  0  0  0  0
   11.9344   38.9372  126.0579 O   0  0  0  0  0  0  0  0  0  0  0  0
    9.0562   38.3978  125.4288 H   0  0  0  0  0  0  0  0  0  0  0  0
 18 19  1  0  0  0
 19 20  1  0  0  0
 19 12  1  0  0  0
 12 13  2  0  0  0
 13 14  1  0  0  0
 14 15  2  0  0  0
 15 16  1  0  0  0
 16 17  2  0  0  0
 17  1  1  0  0  0
  1  2  1  0  0  0
  2  3  1  0  0  0
  3  4  2  0  0  0
  4  5  1  0  0  0
  5  6  1  0  0  0
  5  7  2  0  0  0
  7  8  1  0  0  0
  8  9  2  0  0  0
  9 10  1  0  0  0
 10 21  1  0  0  0
 21 22  1  0  0  0
 22 23  2  0  0  0
 23 24  1  0  0  0
 24 25  2  0  0  0
 25 28  1  0  0  0
 28 29  2  0  0  0
 29 30  1  0  0  0
 30 31  1  0  0  0
 30 32  2  0  0  0
 25 26  1  0  0  0
 26 27  2  0  0  0
 17 12  1  0  0  0
 10  1  2  0  0  0
 27 22  1  0  0  0
  9  3  1  0  0  0
  6 11  1  0  0  0
 31 33  1  0  0  0
M  END
> <minimizedAffinity>
3.13858

> <CNNscore>
0.5475222468

> <CNNaffinity>
8.3953762054

> <CNN_VS>
4.5966553688

> <CNNaffinity_variance>
1.4754273891

$$$$
[H]OC(=O)/C([H])=C(\[H])c1nc([H])c(Oc2c(-c3c([H])c([H])c([H])c([H])c3C([H])(C([H])([H])[H])C([H])([H])[H])sc3c([H])c(O[H])c([H])c([H])c23)c([H])c1[H]


 33 36  0  0  0  0  0  0  0  0999 V2000
    9.7010   47.0358  132.6525 C   0  0  0  0  0  0  0  0  0  0  0  0
    9.6014   48.7507  132.7366 S   0  0  0  0  0  0  0  0  0  0  0  0
    8.7503   49.0793  131.3149 C   0  0  0  0  0  0  0  0  0  0  0  0
    8.2364   50.2611  130.7443 C   0  0  0  0  0  0  0  0  0  0  0  0
    7.4875   50.1899  129.5735 C   0  0  0  0  0  0  0  0  0  0  0  0
    6.9558   51.3156  128.9772 O   0  0  0  0  0  0  0  0  0  0  0  0
    7.2811   48.9545  129.0144 C   0  0  0  0  0  0  0  0  0  0  0  0
    7.7993   47.8301  129.6046 C   0  0  0  0  0  0  0  0  0  0  0  0
    8.5594   47.8657  130.7876 C   0  0  0  0  0  0  0  0  0  0  0  0
    9.0426   46.7555  131.4460 C   0  0  0  0  0  0  0  0  0  0  0  0
    6.4107   51.2383  128.1299 H   0  0  0  0  0  0  0  0  0  0  0  0
   11.1958   45.1817  133.2785 C   0  0  0  0  0  0  0  0  0  0  0  0
   11.5015   44.1476  134.2068 C   0  0  0  0  0  0  0  0  0  0  0  0
   10.9035   44.0191  135.4166 C   0  0  0  0  0  0  0  0  0  0  0  0
    9.9581   44.9168  135.7762 C   0  0  0  0  0  0  0  0  0  0  0  0
    9.6312   45.9611  134.8577 C   0  0  0  0  0  0  0  0  0  0  0  0
   10.2375   46.0879  133.6343 C   0  0  0  0  0  0  0  0  0  0  0  0
   12.8243   46.7074  132.1043 C   0  0  0  0  0  0  0  0  0  0  0  0
   12.1093   45.3716  132.1370 C   0  0  0  0  0  0  0  0  0  0  0  0
   12.5127   44.3195  131.2057 C   0  0  0  0  0  0  0  0  0  0  0  0
    8.9338   45.4686  131.0275 O   0  0  0  0  0  0  0  0  0  0  0  0
    9.1821   44.5350  130.1646 C   0  0  0  0  0  0  0  0  0  0  0  0
    9.9382   44.9508  129.0257 C   0  0  0  0  0  0  0  0  0  0  0  0
   10.2713   44.1095  128.0308 C   0  0  0  0  0  0  0  0  0  0  0  0
    9.8652   42.8026  128.1255 C   0  0  0  0  0  0  0  0  0  0  0  0
    9.1571   42.4091  129.1920 N   0  0  0  0  0  0  0  0  0  0  0  0
    8.8118   43.2155  130.1906 C   0  0  0  0  0  0  0  0  0  0  0  0
   10.2298   41.8466  127.0666 C   0  0  0  0  0  0  0  0  0  0  0  0
   10.1835   40.5345  127.2729 C   0  0  0  0  0  0  0  0  0  0  0  0
   10.5409   39.5804  126.2473 C   0  0  0  0  0  0  0  0  0  0  0  0
    9.5128   38.9961  125.4946 O   0  0  0  0  0  0  0  0  0  0  0  0
   11.6951   39.2529  126.0002 O   0  0  0  0  0  0  0  0  0  0  0  0
    8.7971   38.4966  125.9890 H   0  0  0  0  0  0  0  0  0  0  0  0
 18 19  1  0  0  0
 19 20  1  0  0  0
 19 12  1  0  0  0
 12 13  2  0  0  0
 13 14  1  0  0  0
 14 15  2  0  0  0
 15 16  1  0  0  0
 16 17  2  0  0  0
 17  1  1  0  0  0
  1  2  1  0  0  0
  2  3  1  0  0  0
  3  4  2  0  0  0
  4  5  1  0  0  0
  5  6  1  0  0  0
  5  7  2  0  0  0
  7  8  1  0  0  0
  8  9  2  0  0  0
  9 10  1  0  0  0
 10 21  1  0  0  0
 21 22  1  0  0  0
 22 23  2  0  0  0
 23 24  1  0  0  0
 24 25  2  0  0  0
 25 28  1  0  0  0
 28 29  2  0  0  0
 29 30  1  0  0  0
 30 31  1  0  0  0
 30 32  2  0  0  0
 25 26  1  0  0  0
 26 27  2  0  0  0
 17 12  1  0  0  0
 10  1  2  0  0  0
 27 22  1  0  0  0
  9  3  1  0  0  0
  6 11  1  0  0  0
 31 33  1  0  0  0
M  END
> <minimizedAffinity>
3.83410

> <CNNscore>
0.5084028244

> <CNNaffinity>
8.2905702591

> <CNN_VS>
4.2149491310

> <CNNaffinity_variance>
1.5097558498

$$$$
[H]OC(=O)/C([H])=C(\[H])c1nc([H])c(Oc2c(-c3c([H])c([H])c([H])c([H])c3C([H])(C([H])([H])[H])C([H])([H])[H])sc3c([H])c(O[H])c([H])c([H])c23)c([H])c1[H]


 33 36  0  0  0  0  0  0  0  0999 V2000
    9.2542   48.1222  131.0450 C   0  0  0  0  0  0  0  0  0  0  0  0
    8.8086   49.7524  130.7263 S   0  0  0  0  0  0  0  0  0  0  0  0
    7.3349   49.5192  129.9342 C   0  0  0  0  0  0  0  0  0  0  0  0
    6.3518   50.3986  129.4379 C   0  0  0  0  0  0  0  0  0  0  0  0
    5.1773   49.8826  128.8983 C   0  0  0  0  0  0  0  0  0  0  0  0
    4.1800   50.6994  128.4048 O   0  0  0  0  0  0  0  0  0  0  0  0
    5.0256   48.5196  128.8691 C   0  0  0  0  0  0  0  0  0  0  0  0
    6.0083   47.7011  129.3644 C   0  0  0  0  0  0  0  0  0  0  0  0
    7.2064   48.1886  129.9171 C   0  0  0  0  0  0  0  0  0  0  0  0
    8.1885   47.4041  130.4826 C   0  0  0  0  0  0  0  0  0  0  0  0
    3.3333   50.3016  128.0226 H   0  0  0  0  0  0  0  0  0  0  0  0
   11.1266   46.5488  131.3329 C   0  0  0  0  0  0  0  0  0  0  0  0
   12.0663   45.9507  132.2182 C   0  0  0  0  0  0  0  0  0  0  0  0
   12.2795   46.3724  133.4889 C   0  0  0  0  0  0  0  0  0  0  0  0
   11.5641   47.4198  133.9579 C   0  0  0  0  0  0  0  0  0  0  0  0
   10.6108   48.0329  133.0881 C   0  0  0  0  0  0  0  0  0  0  0  0
   10.3970   47.6035  131.8035 C   0  0  0  0  0  0  0  0  0  0  0  0
   11.5445   44.7324  129.6344 C   0  0  0  0  0  0  0  0  0  0  0  0
   11.1974   46.1823  129.9067 C   0  0  0  0  0  0  0  0  0  0  0  0
   10.7594   47.0342  128.8024 C   0  0  0  0  0  0  0  0  0  0  0  0
    8.1984   46.0473  130.5294 O   0  0  0  0  0  0  0  0  0  0  0  0
    8.0621   44.9371  131.1825 C   0  0  0  0  0  0  0  0  0  0  0  0
    8.2675   45.0370  132.5930 C   0  0  0  0  0  0  0  0  0  0  0  0
    8.1759   43.9769  133.4154 C   0  0  0  0  0  0  0  0  0  0  0  0
    7.8707   42.7571  132.8669 C   0  0  0  0  0  0  0  0  0  0  0  0
    7.6766   42.6599  131.5453 N   0  0  0  0  0  0  0  0  0  0  0  0
    7.7604   43.6876  130.7066 C   0  0  0  0  0  0  0  0  0  0  0  0
    7.7398   41.5773  133.7381 C   0  0  0  0  0  0  0  0  0  0  0  0
    6.5532   41.1674  134.1745 C   0  0  0  0  0  0  0  0  0  0  0  0
    6.4048   40.0139  135.0331 C   0  0  0  0  0  0  0  0  0  0  0  0
    7.5130   39.5952  135.7826 O   0  0  0  0  0  0  0  0  0  0  0  0
    5.3620   39.3802  135.1410 O   0  0  0  0  0  0  0  0  0  0  0  0
    8.3536   39.3656  135.2861 H   0  0  0  0  0  0  0  0  0  0  0  0
 18 19  1  0  0  0
 19 20  1  0  0  0
 19 12  1  0  0  0
 12 13  2  0  0  0
 13 14  1  0  0  0
 14 15  2  0  0  0
 15 16  1  0  0  0
 16 17  2  0  0  0
 17  1  1  0  0  0
  1  2  1  0  0  0
  2  3  1  0  0  0
  3  4  2  0  0  0
  4  5  1  0  0  0
  5  6  1  0  0  0
  5  7  2  0  0  0
  7  8  1  0  0  0
  8  9  2  0  0  0
  9 10  1  0  0  0
 10 21  1  0  0  0
 21 22  1  0  0  0
 22 23  2  0  0  0
 23 24  1  0  0  0
 24 25  2  0  0  0
 25 28  1  0  0  0
 28 29  2  0  0  0
 29 30  1  0  0  0
 30 31  1  0  0  0
 30 32  2  0  0  0
 25 26  1  0  0  0
 26 27  2  0  0  0
 17 12  1  0  0  0
 10  1  2  0  0  0
 27 22  1  0  0  0
  9  3  1  0  0  0
  6 11  1  0  0  0
 31 33  1  0  0  0
M  END
> <minimizedAffinity>
12.96534

> <CNNscore>
0.4956564605

> <CNNaffinity>
7.8926339149

> <CNN_VS>
3.9120349884

> <CNNaffinity_variance>
1.5223881006

$$$$
[H]OC(=O)/C([H])=C(\[H])c1nc([H])c(Oc2c(-c3c([H])c([H])c([H])c([H])c3C([H])(C([H])([H])[H])C([H])([H])[H])sc3c([H])c(O[H])c([H])c([H])c23)c([H])c1[H]


 33 36  0  0  0  0  0  0  0  0999 V2000
    9.0729   46.3466  131.8733 C   0  0  0  0  0  0  0  0  0  0  0  0
    9.0121   47.9534  132.4834 S   0  0  0  0  0  0  0  0  0  0  0  0
    8.3457   48.7607  131.1577 C   0  0  0  0  0  0  0  0  0  0  0  0
    7.9366   50.0916  130.9390 C   0  0  0  0  0  0  0  0  0  0  0  0
    7.3306   50.4353  129.7343 C   0  0  0  0  0  0  0  0  0  0  0  0
    6.9053   51.7220  129.4718 O   0  0  0  0  0  0  0  0  0  0  0  0
    7.1574   49.4502  128.7956 C   0  0  0  0  0  0  0  0  0  0  0  0
    7.5701   48.1675  129.0514 C   0  0  0  0  0  0  0  0  0  0  0  0
    8.1848   47.7855  130.2575 C   0  0  0  0  0  0  0  0  0  0  0  0
    8.5550   46.4972  130.5784 C   0  0  0  0  0  0  0  0  0  0  0  0
    6.4628   51.9465  128.5916 H   0  0  0  0  0  0  0  0  0  0  0  0
   10.6504   44.4980  132.2711 C   0  0  0  0  0  0  0  0  0  0  0  0
   10.8602   43.1902  132.7907 C   0  0  0  0  0  0  0  0  0  0  0  0
    9.9556   42.5271  133.5523 C   0  0  0  0  0  0  0  0  0  0  0  0
    8.7799   43.1292  133.8421 C   0  0  0  0  0  0  0  0  0  0  0  0
    8.5452   44.4408  133.3266 C   0  0  0  0  0  0  0  0  0  0  0  0
    9.4621   45.1085  132.5560 C   0  0  0  0  0  0  0  0  0  0  0  0
   12.4796   46.1925  132.6466 C   0  0  0  0  0  0  0  0  0  0  0  0
   11.8133   45.2074  131.7073 C   0  0  0  0  0  0  0  0  0  0  0  0
   12.4619   44.8737  130.4404 C   0  0  0  0  0  0  0  0  0  0  0  0
    8.4607   45.4135  129.7662 O   0  0  0  0  0  0  0  0  0  0  0  0
    8.9977   44.3969  129.1696 C   0  0  0  0  0  0  0  0  0  0  0  0
    9.8748   44.7243  128.0901 C   0  0  0  0  0  0  0  0  0  0  0  0
   10.5042   43.7877  127.3585 C   0  0  0  0  0  0  0  0  0  0  0  0
   10.2893   42.4696  127.6719 C   0  0  0  0  0  0  0  0  0  0  0  0
    9.4685   42.1591  128.6836 N   0  0  0  0  0  0  0  0  0  0  0  0
    8.8319   43.0604  129.4245 C   0  0  0  0  0  0  0  0  0  0  0  0
   10.9781   41.4161  126.9078 C   0  0  0  0  0  0  0  0  0  0  0  0
   10.3773   40.2669  126.6168 C   0  0  0  0  0  0  0  0  0  0  0  0
   11.0380   39.2195  125.8710 C   0  0  0  0  0  0  0  0  0  0  0  0
   10.3696   38.6620  124.7721 O   0  0  0  0  0  0  0  0  0  0  0  0
   12.1515   38.7906  126.1478 O   0  0  0  0  0  0  0  0  0  0  0  0
    9.4678   38.2529  124.9315 H   0  0  0  0  0  0  0  0  0  0  0  0
 18 19  1  0  0  0
 19 20  1  0  0  0
 19 12  1  0  0  0
 12 13  2  0  0  0
 13 14  1  0  0  0
 14 15  2  0  0  0
 15 16  1  0  0  0
 16 17  2  0  0  0
 17  1  1  0  0  0
  1  2  1  0  0  0
  2  3  1  0  0  0
  3  4  2  0  0  0
  4  5  1  0  0  0
  5  6  1  0  0  0
  5  7  2  0  0  0
  7  8  1  0  0  0
  8  9  2  0  0  0
  9 10  1  0  0  0
 10 21  1  0  0  0
 21 22  1  0  0  0
 22 23  2  0  0  0
 23 24  1  0  0  0
 24 25  2  0  0  0
 25 28  1  0  0  0
 28 29  2  0  0  0
 29 30  1  0  0  0
 30 31  1  0  0  0
 30 32  2  0  0  0
 25 26  1  0  0  0
 26 27  2  0  0  0
 17 12  1  0  0  0
 10  1  2  0  0  0
 27 22  1  0  0  0
  9  3  1  0  0  0
  6 11  1  0  0  0
 31 33  1  0  0  0
M  END
> <minimizedAffinity>
5.12729

> <CNNscore>
0.4779990017

> <CNNaffinity>
8.0335540771

> <CNN_VS>
3.8400309086

> <CNNaffinity_variance>
0.9246318936

$$$$
[H]OC(=O)/C([H])=C(\[H])c1nc([H])c(Oc2c(-c3c([H])c([H])c([H])c([H])c3C([H])(C([H])([H])[H])C([H])([H])[H])sc3c([H])c(O[H])c([H])c([H])c23)c([H])c1[H]


 33 36  0  0  0  0  0  0  0  0999 V2000
    7.9899   48.5402  132.7695 C   0  0  0  0  0  0  0  0  0  0  0  0
    7.0496   49.6221  131.8192 S   0  0  0  0  0  0  0  0  0  0  0  0
    7.2884   48.9670  130.2806 C   0  0  0  0  0  0  0  0  0  0  0  0
    6.7746   49.2764  129.0052 C   0  0  0  0  0  0  0  0  0  0  0  0
    7.1073   48.4750  127.9171 C   0  0  0  0  0  0  0  0  0  0  0  0
    6.6263   48.7296  126.6486 O   0  0  0  0  0  0  0  0  0  0  0  0
    7.9360   47.4039  128.1349 C   0  0  0  0  0  0  0  0  0  0  0  0
    8.4121   47.1393  129.3936 C   0  0  0  0  0  0  0  0  0  0  0  0
    8.0956   47.9274  130.5148 C   0  0  0  0  0  0  0  0  0  0  0  0
    8.5004   47.6591  131.8048 C   0  0  0  0  0  0  0  0  0  0  0  0
    6.8775   48.1303  125.8748 H   0  0  0  0  0  0  0  0  0  0  0  0
    8.8872   49.4079  134.8922 C   0  0  0  0  0  0  0  0  0  0  0  0
    9.1845   49.1579  136.2610 C   0  0  0  0  0  0  0  0  0  0  0  0
    8.7653   48.0590  136.9353 C   0  0  0  0  0  0  0  0  0  0  0  0
    8.0224   47.1365  136.2827 C   0  0  0  0  0  0  0  0  0  0  0  0
    7.7158   47.3642  134.9060 C   0  0  0  0  0  0  0  0  0  0  0  0
    8.1419   48.4765  134.2266 C   0  0  0  0  0  0  0  0  0  0  0  0
    8.8763   51.8904  135.3349 C   0  0  0  0  0  0  0  0  0  0  0  0
    9.1569   50.7587  134.3667 C   0  0  0  0  0  0  0  0  0  0  0  0
    9.8510   51.0440  133.1122 C   0  0  0  0  0  0  0  0  0  0  0  0
    9.3228   46.6499  132.1900 O   0  0  0  0  0  0  0  0  0  0  0  0
    9.9022   45.5138  131.9632 C   0  0  0  0  0  0  0  0  0  0  0  0
    9.0145   44.4234  131.7086 C   0  0  0  0  0  0  0  0  0  0  0  0
    9.4514   43.1748  131.4667 C   0  0  0  0  0  0  0  0  0  0  0  0
   10.8050   42.9521  131.4649 C   0  0  0  0  0  0  0  0  0  0  0  0
   11.6400   43.9719  131.7023 N   0  0  0  0  0  0  0  0  0  0  0  0
   11.2399   45.2160  131.9451 C   0  0  0  0  0  0  0  0  0  0  0  0
   11.3223   41.6028  131.1820 C   0  0  0  0  0  0  0  0  0  0  0  0
   10.7233   40.5175  131.6609 C   0  0  0  0  0  0  0  0  0  0  0  0
   11.2178   39.1850  131.3972 C   0  0  0  0  0  0  0  0  0  0  0  0
   12.4703   38.8255  131.9143 O   0  0  0  0  0  0  0  0  0  0  0  0
   10.6020   38.3513  130.7443 O   0  0  0  0  0  0  0  0  0  0  0  0
   13.2612   39.3852  131.6553 H   0  0  0  0  0  0  0  0  0  0  0  0
 18 19  1  0  0  0
 19 20  1  0  0  0
 19 12  1  0  0  0
 12 13  2  0  0  0
 13 14  1  0  0  0
 14 15  2  0  0  0
 15 16  1  0  0  0
 16 17  2  0  0  0
 17  1  1  0  0  0
  1  2  1  0  0  0
  2  3  1  0  0  0
  3  4  2  0  0  0
  4  5  1  0  0  0
  5  6  1  0  0  0
  5  7  2  0  0  0
  7  8  1  0  0  0
  8  9  2  0  0  0
  9 10  1  0  0  0
 10 21  1  0  0  0
 21 22  1  0  0  0
 22 23  2  0  0  0
 23 24  1  0  0  0
 24 25  2  0  0  0
 25 28  1  0  0  0
 28 29  2  0  0  0
 29 30  1  0  0  0
 30 31  1  0  0  0
 30 32  2  0  0  0
 25 26  1  0  0  0
 26 27  2  0  0  0
 17 12  1  0  0  0
 10  1  2  0  0  0
 27 22  1  0  0  0
  9  3  1  0  0  0
  6 11  1  0  0  0
 31 33  1  0  0  0
M  END
> <minimizedAffinity>
40.79010

> <CNNscore>
0.4532195628

> <CNNaffinity>
7.3600335121

> <CNN_VS>
3.3357112408

> <CNNaffinity_variance>
1.9288918972

$$$$
[H]OC(=O)/C([H])=C(\[H])c1nc([H])c(Oc2c(-c3c([H])c([H])c([H])c([H])c3C([H])(C([H])([H])[H])C([H])([H])[H])sc3c([H])c(O[H])c([H])c([H])c23)c([H])c1[H]


 33 36  0  0  0  0  0  0  0  0999 V2000
   10.0546   47.2398  131.7304 C   0  0  0  0  0  0  0  0  0  0  0  0
    9.7336   48.8189  132.3313 S   0  0  0  0  0  0  0  0  0  0  0  0
    8.8046   49.4460  131.0675 C   0  0  0  0  0  0  0  0  0  0  0  0
    8.1233   50.6651  130.8780 C   0  0  0  0  0  0  0  0  0  0  0  0
    7.3555   50.8526  129.7325 C   0  0  0  0  0  0  0  0  0  0  0  0
    6.6632   52.0241  129.5012 O   0  0  0  0  0  0  0  0  0  0  0  0
    7.2960   49.8288  128.8216 C   0  0  0  0  0  0  0  0  0  0  0  0
    7.9746   48.6585  129.0474 C   0  0  0  0  0  0  0  0  0  0  0  0
    8.7586   48.4353  130.1937 C   0  0  0  0  0  0  0  0  0  0  0  0
    9.4027   47.2529  130.4884 C   0  0  0  0  0  0  0  0  0  0  0  0
    6.1077   52.1351  128.6644 H   0  0  0  0  0  0  0  0  0  0  0  0
   10.3223   45.6587  133.5993 C   0  0  0  0  0  0  0  0  0  0  0  0
   11.1645   44.7344  134.2779 C   0  0  0  0  0  0  0  0  0  0  0  0
   12.3442   44.2853  133.7834 C   0  0  0  0  0  0  0  0  0  0  0  0
   12.7597   44.7339  132.5773 C   0  0  0  0  0  0  0  0  0  0  0  0
   11.9324   45.6669  131.8797 C   0  0  0  0  0  0  0  0  0  0  0  0
   10.7399   46.1197  132.3830 C   0  0  0  0  0  0  0  0  0  0  0  0
    8.7905   46.9481  135.1322 C   0  0  0  0  0  0  0  0  0  0  0  0
    8.9513   45.8411  134.1098 C   0  0  0  0  0  0  0  0  0  0  0  0
    7.7608   45.1994  133.5547 C   0  0  0  0  0  0  0  0  0  0  0  0
    9.4510   46.1510  129.6967 O   0  0  0  0  0  0  0  0  0  0  0  0
    9.5266   44.8663  129.5496 C   0  0  0  0  0  0  0  0  0  0  0  0
    8.8380   44.1032  130.5422 C   0  0  0  0  0  0  0  0  0  0  0  0
    8.8265   42.7585  130.5434 C   0  0  0  0  0  0  0  0  0  0  0  0
    9.5046   42.1049  129.5459 C   0  0  0  0  0  0  0  0  0  0  0  0
   10.1503   42.8169  128.6134 N   0  0  0  0  0  0  0  0  0  0  0  0
   10.1811   44.1454  128.5849 C   0  0  0  0  0  0  0  0  0  0  0  0
    9.4963   40.6332  129.5009 C   0  0  0  0  0  0  0  0  0  0  0  0
    8.3836   39.9403  129.7198 C   0  0  0  0  0  0  0  0  0  0  0  0
    8.3562   38.4954  129.6835 C   0  0  0  0  0  0  0  0  0  0  0  0
    7.3336   37.8672  128.9590 O   0  0  0  0  0  0  0  0  0  0  0  0
    9.1785   37.7883  130.2531 O   0  0  0  0  0  0  0  0  0  0  0  0
    6.3856   38.0769  129.2105 H   0  0  0  0  0  0  0  0  0  0  0  0
 18 19  1  0  0  0
 19 20  1  0  0  0
 19 12  1  0  0  0
 12 13  2  0  0  0
 13 14  1  0  0  0
 14 15  2  0  0  0
 15 16  1  0  0  0
 16 17  2  0  0  0
 17  1  1  0  0  0
  1  2  1  0  0  0
  2  3  1  0  0  0
  3  4  2  0  0  0
  4  5  1  0  0  0
  5  6  1  0  0  0
  5  7  2  0  0  0
  7  8  1  0  0  0
  8  9  2  0  0  0
  9 10  1  0  0  0
 10 21  1  0  0  0
 21 22  1  0  0  0
 22 23  2  0  0  0
 23 24  1  0  0  0
 24 25  2  0  0  0
 25 28  1  0  0  0
 28 29  2  0  0  0
 29 30  1  0  0  0
 30 31  1  0  0  0
 30 32  2  0  0  0
 25 26  1  0  0  0
 26 27  2  0  0  0
 17 12  1  0  0  0
 10  1  2  0  0  0
 27 22  1  0  0  0
  9  3  1  0  0  0
  6 11  1  0  0  0
 31 33  1  0  0  0
M  END
> <minimizedAffinity>
5.63698

> <CNNscore>
0.4390266836

> <CNNaffinity>
8.1131267548

> <CNN_VS>
3.5618791580

> <CNNaffinity_variance>
0.8896750212

$$$$
[H]OC(=O)/C([H])=C(\[H])c1nc([H])c(Oc2c(-c3c([H])c([H])c([H])c([H])c3C([H])(C([H])([H])[H])C([H])([H])[H])sc3c([H])c(O[H])c([H])c([H])c23)c([H])c1[H]


 33 36  0  0  0  0  0  0  0  0999 V2000
    8.6129   47.5435  132.7058 C   0  0  0  0  0  0  0  0  0  0  0  0
    7.8773   49.0980  132.7109 S   0  0  0  0  0  0  0  0  0  0  0  0
    7.7041   49.3617  131.0514 C   0  0  0  0  0  0  0  0  0  0  0  0
    7.1164   50.3919  130.2900 C   0  0  0  0  0  0  0  0  0  0  0  0
    7.0574   50.2747  128.9045 C   0  0  0  0  0  0  0  0  0  0  0  0
    6.4869   51.2509  128.1128 O   0  0  0  0  0  0  0  0  0  0  0  0
    7.5845   49.1461  128.3300 C   0  0  0  0  0  0  0  0  0  0  0  0
    8.1463   48.1678  129.1099 C   0  0  0  0  0  0  0  0  0  0  0  0
    8.2217   48.2534  130.5119 C   0  0  0  0  0  0  0  0  0  0  0  0
    8.7191   47.2660  131.3349 C   0  0  0  0  0  0  0  0  0  0  0  0
    6.4508   51.1410  127.1089 H   0  0  0  0  0  0  0  0  0  0  0  0
   10.2410   46.2863  134.0597 C   0  0  0  0  0  0  0  0  0  0  0  0
   10.4654   45.2633  135.0228 C   0  0  0  0  0  0  0  0  0  0  0  0
    9.4765   44.6623  135.7289 C   0  0  0  0  0  0  0  0  0  0  0  0
    8.1969   45.0444  135.5157 C   0  0  0  0  0  0  0  0  0  0  0  0
    7.9472   46.0666  134.5492 C   0  0  0  0  0  0  0  0  0  0  0  0
    8.9498   46.6722  133.8361 C   0  0  0  0  0  0  0  0  0  0  0  0
   12.5537   47.1537  134.5672 C   0  0  0  0  0  0  0  0  0  0  0  0
   11.4101   47.0448  133.5787 C   0  0  0  0  0  0  0  0  0  0  0  0
   11.6103   47.4855  132.1993 C   0  0  0  0  0  0  0  0  0  0  0  0
    9.2813   46.0980  130.9311 O   0  0  0  0  0  0  0  0  0  0  0  0
    9.5879   45.2533  129.9982 C   0  0  0  0  0  0  0  0  0  0  0  0
    8.7154   44.1266  129.8931 C   0  0  0  0  0  0  0  0  0  0  0  0
    8.8986   43.1506  128.9862 C   0  0  0  0  0  0  0  0  0  0  0  0
    9.9674   43.2531  128.1325 C   0  0  0  0  0  0  0  0  0  0  0  0
   10.7867   44.3082  128.2275 N   0  0  0  0  0  0  0  0  0  0  0  0
   10.6333   45.2881  129.1124 C   0  0  0  0  0  0  0  0  0  0  0  0
   10.1879   42.2154  127.1113 C   0  0  0  0  0  0  0  0  0  0  0  0
   10.0586   40.9241  127.3976 C   0  0  0  0  0  0  0  0  0  0  0  0
   10.2742   39.8908  126.4099 C   0  0  0  0  0  0  0  0  0  0  0  0
   11.5906   39.6073  126.0199 O   0  0  0  0  0  0  0  0  0  0  0  0
    9.3680   39.2487  125.8931 O   0  0  0  0  0  0  0  0  0  0  0  0
   12.1388   40.3583  125.6439 H   0  0  0  0  0  0  0  0  0  0  0  0
 18 19  1  0  0  0
 19 20  1  0  0  0
 19 12  1  0  0  0
 12 13  2  0  0  0
 13 14  1  0  0  0
 14 15  2  0  0  0
 15 16  1  0  0  0
 16 17  2  0  0  0
 17  1  1  0  0  0
  1  2  1  0  0  0
  2  3  1  0  0  0
  3  4  2  0  0  0
  4  5  1  0  0  0
  5  6  1  0  0  0
  5  7  2  0  0  0
  7  8  1  0  0  0
  8  9  2  0  0  0
  9 10  1  0  0  0
 10 21  1  0  0  0
 21 22  1  0  0  0
 22 23  2  0  0  0
 23 24  1  0  0  0
 24 25  2  0  0  0
 25 28  1  0  0  0
 28 29  2  0  0  0
 29 30  1  0  0  0
 30 31  1  0  0  0
 30 32  2  0  0  0
 25 26  1  0  0  0
 26 27  2  0  0  0
 17 12  1  0  0  0
 10  1  2  0  0  0
 27 22  1  0  0  0
  9  3  1  0  0  0
  6 11  1  0  0  0
 31 33  1  0  0  0
M  END
> <minimizedAffinity>
13.73225

> <CNNscore>
0.4340390861

> <CNNaffinity>
8.0942316055

> <CNN_VS>
3.5132129192

> <CNNaffinity_variance>
4.7118062973

$$$$
[H]OC(=O)/C([H])=C(\[H])c1nc([H])c(Oc2c(-c3c([H])c([H])c([H])c([H])c3C([H])(C([H])([H])[H])C([H])([H])[H])sc3c([H])c(O[H])c([H])c([H])c23)c([H])c1[H]


 33 36  0  0  0  0  0  0  0  0999 V2000
    8.9427   48.3624  132.2690 C   0  0  0  0  0  0  0  0  0  0  0  0
    8.9785   50.0785  132.1619 S   0  0  0  0  0  0  0  0  0  0  0  0
    8.1953   50.3108  130.6833 C   0  0  0  0  0  0  0  0  0  0  0  0
    7.7933   51.4574  129.9693 C   0  0  0  0  0  0  0  0  0  0  0  0
    7.0730   51.3137  128.7872 C   0  0  0  0  0  0  0  0  0  0  0  0
    6.6495   52.4032  128.0531 O   0  0  0  0  0  0  0  0  0  0  0  0
    6.7834   50.0430  128.3593 C   0  0  0  0  0  0  0  0  0  0  0  0
    7.1938   48.9552  129.0867 C   0  0  0  0  0  0  0  0  0  0  0  0
    7.9220   49.0642  130.2851 C   0  0  0  0  0  0  0  0  0  0  0  0
    8.2968   48.0006  131.0776 C   0  0  0  0  0  0  0  0  0  0  0  0
    6.1230   52.2739  127.2004 H   0  0  0  0  0  0  0  0  0  0  0  0
   10.3653   46.5698  133.1785 C   0  0  0  0  0  0  0  0  0  0  0  0
   10.5733   45.6074  134.2056 C   0  0  0  0  0  0  0  0  0  0  0  0
    9.8531   45.5614  135.3532 C   0  0  0  0  0  0  0  0  0  0  0  0
    8.8752   46.4751  135.5474 C   0  0  0  0  0  0  0  0  0  0  0  0
    8.6449   47.4483  134.5270 C   0  0  0  0  0  0  0  0  0  0  0  0
    9.3749   47.4916  133.3669 C   0  0  0  0  0  0  0  0  0  0  0  0
   12.2751   45.4645  131.9582 C   0  0  0  0  0  0  0  0  0  0  0  0
   11.3921   46.6846  132.1269 C   0  0  0  0  0  0  0  0  0  0  0  0
   11.4619   47.7619  131.1413 C   0  0  0  0  0  0  0  0  0  0  0  0
    8.0966   46.6871  130.7983 O   0  0  0  0  0  0  0  0  0  0  0  0
    8.5458   45.4816  130.6471 C   0  0  0  0  0  0  0  0  0  0  0  0
    8.3099   44.6063  131.7517 C   0  0  0  0  0  0  0  0  0  0  0  0
    8.7215   43.3261  131.7623 C   0  0  0  0  0  0  0  0  0  0  0  0
    9.3915   42.8529  130.6627 C   0  0  0  0  0  0  0  0  0  0  0  0
    9.6135   43.6702  129.6252 N   0  0  0  0  0  0  0  0  0  0  0  0
    9.2203   44.9392  129.5844 C   0  0  0  0  0  0  0  0  0  0  0  0
    9.8383   41.4503  130.6281 C   0  0  0  0  0  0  0  0  0  0  0  0
   10.8125   41.0145  131.4201 C   0  0  0  0  0  0  0  0  0  0  0  0
   11.2673   39.6425  131.3982 C   0  0  0  0  0  0  0  0  0  0  0  0
   12.1501   39.2180  132.4011 O   0  0  0  0  0  0  0  0  0  0  0  0
   10.9240   38.8290  130.5491 O   0  0  0  0  0  0  0  0  0  0  0  0
   13.0170   39.7124  132.5009 H   0  0  0  0  0  0  0  0  0  0  0  0
 18 19  1  0  0  0
 19 20  1  0  0  0
 19 12  1  0  0  0
 12 13  2  0  0  0
 13 14  1  0  0  0
 14 15  2  0  0  0
 15 16  1  0  0  0
 16 17  2  0  0  0
 17  1  1  0  0  0
  1  2  1  0  0  0
  2  3  1  0  0  0
  3  4  2  0  0  0
  4  5  1  0  0  0
  5  6  1  0  0  0
  5  7  2  0  0  0
  7  8  1  0  0  0
  8  9  2  0  0  0
  9 10  1  0  0  0
 10 21  1  0  0  0
 21 22  1  0  0  0
 22 23  2  0  0  0
 23 24  1  0  0  0
 24 25  2  0  0  0
 25 28  1  0  0  0
 28 29  2  0  0  0
 29 30  1  0  0  0
 30 31  1  0  0  0
 30 32  2  0  0  0
 25 26  1  0  0  0
 26 27  2  0  0  0
 17 12  1  0  0  0
 10  1  2  0  0  0
 27 22  1  0  0  0
  9  3  1  0  0  0
  6 11  1  0  0  0
 31 33  1  0  0  0
M  END
> <minimizedAffinity>
6.07871

> <CNNscore>
0.4102005363

> <CNNaffinity>
7.8133420944

> <CNN_VS>
3.2050371170

> <CNNaffinity_variance>
1.2298338413

$$$$
[H]OC(=O)/C([H])=C(\[H])c1nc([H])c(Oc2c(-c3c([H])c([H])c([H])c([H])c3C([H])(C([H])([H])[H])C([H])([H])[H])sc3c([H])c(O[H])c([H])c([H])c23)c([H])c1[H]


 33 36  0  0  0  0  0  0  0  0999 V2000
   10.0663   44.7405  131.3998 C   0  0  0  0  0  0  0  0  0  0  0  0
   10.8499   44.2319  132.8438 S   0  0  0  0  0  0  0  0  0  0  0  0
   10.1931   45.3250  133.9515 C   0  0  0  0  0  0  0  0  0  0  0  0
   10.3101   45.4779  135.3477 C   0  0  0  0  0  0  0  0  0  0  0  0
    9.5556   46.4495  135.9984 C   0  0  0  0  0  0  0  0  0  0  0  0
    9.6274   46.6365  137.3641 O   0  0  0  0  0  0  0  0  0  0  0  0
    8.7200   47.2309  135.2415 C   0  0  0  0  0  0  0  0  0  0  0  0
    8.6369   47.0466  133.8850 C   0  0  0  0  0  0  0  0  0  0  0  0
    9.3839   46.0743  133.1958 C   0  0  0  0  0  0  0  0  0  0  0  0
    9.2821   45.8145  131.8460 C   0  0  0  0  0  0  0  0  0  0  0  0
    9.0656   47.3451  137.8152 H   0  0  0  0  0  0  0  0  0  0  0  0
   11.2348   44.2506  129.2883 C   0  0  0  0  0  0  0  0  0  0  0  0
   11.1345   43.8604  127.9237 C   0  0  0  0  0  0  0  0  0  0  0  0
    9.9975   43.3887  127.3558 C   0  0  0  0  0  0  0  0  0  0  0  0
    8.8849   43.2783  128.1165 C   0  0  0  0  0  0  0  0  0  0  0  0
    8.9608   43.6691  129.4886 C   0  0  0  0  0  0  0  0  0  0  0  0
   10.1124   44.1465  130.0599 C   0  0  0  0  0  0  0  0  0  0  0  0
   13.7046   44.4555  128.8225 C   0  0  0  0  0  0  0  0  0  0  0  0
   12.5833   44.4712  129.8419 C   0  0  0  0  0  0  0  0  0  0  0  0
   12.8645   44.9014  131.2104 C   0  0  0  0  0  0  0  0  0  0  0  0
    8.5135   46.4952  130.9577 O   0  0  0  0  0  0  0  0  0  0  0  0
    8.0879   47.6084  130.4502 C   0  0  0  0  0  0  0  0  0  0  0  0
    8.7006   48.7862  130.9785 C   0  0  0  0  0  0  0  0  0  0  0  0
    8.3654   50.0228  130.5698 C   0  0  0  0  0  0  0  0  0  0  0  0
    7.3971   50.1452  129.6058 C   0  0  0  0  0  0  0  0  0  0  0  0
    6.8213   49.0434  129.1078 N   0  0  0  0  0  0  0  0  0  0  0  0
    7.1298   47.8086  129.4907 C   0  0  0  0  0  0  0  0  0  0  0  0
    7.0190   51.4817  129.1169 C   0  0  0  0  0  0  0  0  0  0  0  0
    7.4812   51.9530  127.9634 C   0  0  0  0  0  0  0  0  0  0  0  0
    7.1244   53.2635  127.4685 C   0  0  0  0  0  0  0  0  0  0  0  0
    7.4221   53.5748  126.1344 O   0  0  0  0  0  0  0  0  0  0  0  0
    6.5762   54.1192  128.1524 O   0  0  0  0  0  0  0  0  0  0  0  0
    8.3785   53.5057  125.8403 H   0  0  0  0  0  0  0  0  0  0  0  0
 18 19  1  0  0  0
 19 20  1  0  0  0
 19 12  1  0  0  0
 12 13  2  0  0  0
 13 14  1  0  0  0
 14 15  2  0  0  0
 15 16  1  0  0  0
 16 17  2  0  0  0
 17  1  1  0  0  0
  1  2  1  0  0  0
  2  3  1  0  0  0
  3  4  2  0  0  0
  4  5  1  0  0  0
  5  6  1  0  0  0
  5  7  2  0  0  0
  7  8  1  0  0  0
  8  9  2  0  0  0
  9 10  1  0  0  0
 10 21  1  0  0  0
 21 22  1  0  0  0
 22 23  2  0  0  0
 23 24  1  0  0  0
 24 25  2  0  0  0
 25 28  1  0  0  0
 28 29  2  0  0  0
 29 30  1  0  0  0
 30 31  1  0  0  0
 30 32  2  0  0  0
 25 26  1  0  0  0
 26 27  2  0  0  0
 17 12  1  0  0  0
 10  1  2  0  0  0
 27 22  1  0  0  0
  9  3  1  0  0  0
  6 11  1  0  0  0
 31 33  1  0  0  0
M  END
> <minimizedAffinity>
-1.23019

> <CNNscore>
0.3895418048

> <CNNaffinity>
7.7972650528

> <CNN_VS>
3.0373606682

> <CNNaffinity_variance>
0.8079974055

$$$$
[H]Oc1c([H])c([H])c([H])c(C2=C(C([H])([H])[H])c3c([H])c(O[H])c([H])c([H])c3OC2([H])c2c([H])c([H])c(OC([H])([H])C([H])([H])N3C([H])([H])C([H])([H])C([H])([H])C3([H])[H])c([H])c2[H])c1[H]


 35 39  0  0  0  0  0  0  0  0999 V2000
   10.0180   43.5637  135.0628 C   0  0  0  0  0  0  0  0  0  0  0  0
    9.6226   43.6835  133.6271 C   0  0  0  0  0  0  0  0  0  0  0  0
   10.2528   44.5473  132.8511 C   0  0  0  0  0  0  0  0  0  0  0  0
    9.8737   44.6751  131.4435 C   0  0  0  0  0  0  0  0  0  0  0  0
    8.7995   43.8475  131.0496 O   0  0  0  0  0  0  0  0  0  0  0  0
    8.1546   42.9582  131.8397 C   0  0  0  0  0  0  0  0  0  0  0  0
    7.1171   42.1478  131.3958 C   0  0  0  0  0  0  0  0  0  0  0  0
    6.4659   41.2462  132.2008 C   0  0  0  0  0  0  0  0  0  0  0  0
    6.8465   41.1257  133.5170 C   0  0  0  0  0  0  0  0  0  0  0  0
    6.2020   40.2102  134.3768 O   0  0  0  0  0  0  0  0  0  0  0  0
    7.8737   41.9207  133.9777 C   0  0  0  0  0  0  0  0  0  0  0  0
    8.5221   42.8224  133.1659 C   0  0  0  0  0  0  0  0  0  0  0  0
    6.6162   39.2752  134.4039 H   0  0  0  0  0  0  0  0  0  0  0  0
   11.3640   45.2893  133.3999 C   0  0  0  0  0  0  0  0  0  0  0  0
   12.6423   44.8770  133.5699 C   0  0  0  0  0  0  0  0  0  0  0  0
   13.6136   45.6893  134.1689 C   0  0  0  0  0  0  0  0  0  0  0  0
   13.2943   46.9556  134.6104 C   0  0  0  0  0  0  0  0  0  0  0  0
   11.9924   47.4076  134.4494 C   0  0  0  0  0  0  0  0  0  0  0  0
   11.6711   48.6864  134.8947 O   0  0  0  0  0  0  0  0  0  0  0  0
   11.0744   46.5868  133.8620 C   0  0  0  0  0  0  0  0  0  0  0  0
   10.7620   49.0861  134.8176 H   0  0  0  0  0  0  0  0  0  0  0  0
    9.6356   46.0378  130.9420 C   0  0  0  0  0  0  0  0  0  0  0  0
    8.8295   46.9132  131.6413 C   0  0  0  0  0  0  0  0  0  0  0  0
    8.6105   48.2128  131.1794 C   0  0  0  0  0  0  0  0  0  0  0  0
    9.1979   48.6442  130.0139 C   0  0  0  0  0  0  0  0  0  0  0  0
   10.0022   47.7664  129.3193 C   0  0  0  0  0  0  0  0  0  0  0  0
   10.2222   46.4739  129.7750 C   0  0  0  0  0  0  0  0  0  0  0  0
    8.9698   49.9474  129.5636 O   0  0  0  0  0  0  0  0  0  0  0  0
    7.8700   50.6609  130.0375 C   0  0  0  0  0  0  0  0  0  0  0  0
    6.7148   50.6812  129.1044 C   0  0  0  0  0  0  0  0  0  0  0  0
    6.0512   49.4876  128.8163 N   0  0  0  0  0  0  0  0  0  0  0  0
    6.7285   48.4173  128.1994 C   0  0  0  0  0  0  0  0  0  0  0  0
    5.9007   47.1634  128.4517 C   0  0  0  0  0  0  0  0  0  0  0  0
    5.1797   47.5015  129.7163 C   0  0  0  0  0  0  0  0  0  0  0  0
    5.0694   49.0013  129.7096 C   0  0  0  0  0  0  0  0  0  0  0  0
  1  2  1  0  0  0
  2  3  2  0  0  0
  3  4  1  0  0  0
  4  5  1  0  0  0
  5  6  1  0  0  0
  6  7  2  0  0  0
  7  8  1  0  0  0
  8  9  2  0  0  0
  9 10  1  0  0  0
  9 11  1  0  0  0
 11 12  2  0  0  0
  4 22  1  0  0  0
 22 23  2  0  0  0
 23 24  1  0  0  0
 24 25  2  0  0  0
 25 28  1  0  0  0
 28 29  1  0  0  0
 29 30  1  0  0  0
 30 31  1  0  0  0
 31 32  1  0  0  0
 32 33  1  0  0  0
 33 34  1  0  0  0
 34 35  1  0  0  0
 25 26  1  0  0  0
 26 27  2  0  0  0
  3 14  1  0  0  0
 14 15  2  0  0  0
 15 16  1  0  0  0
 16 17  2  0  0  0
 17 18  1  0  0  0
 18 19  1  0  0  0
 18 20  2  0  0  0
 12  2  1  0  0  0
 27 22  1  0  0  0
 20 14  1  0  0  0
 12  6  1  0  0  0
 35 31  1  0  0  0
 10 13  1  0  0  0
 19 21  1  0  0  0
M  END
> <minimizedAffinity>
13.46924

> <CNNscore>
0.4492332041

> <CNNaffinity>
7.5111160278

> <CNN_VS>
3.3742427826

> <CNNaffinity_variance>
1.2676767111

$$$$
[H]Oc1c([H])c([H])c([H])c(C2=C(C([H])([H])[H])c3c([H])c(O[H])c([H])c([H])c3OC2([H])c2c([H])c([H])c(OC([H])([H])C([H])([H])N3C([H])([H])C([H])([H])C([H])([H])C3([H])[H])c([H])c2[H])c1[H]


 35 39  0  0  0  0  0  0  0  0999 V2000
   10.0569   47.3999  135.3358 C   0  0  0  0  0  0  0  0  0  0  0  0
   10.6543   46.7062  134.1552 C   0  0  0  0  0  0  0  0  0  0  0  0
   10.7012   47.3306  132.9918 C   0  0  0  0  0  0  0  0  0  0  0  0
   11.2825   46.6612  131.8276 C   0  0  0  0  0  0  0  0  0  0  0  0
   11.7227   45.3417  132.0708 O   0  0  0  0  0  0  0  0  0  0  0  0
   11.6808   44.7003  133.2615 C   0  0  0  0  0  0  0  0  0  0  0  0
   12.1508   43.4072  133.4541 C   0  0  0  0  0  0  0  0  0  0  0  0
   12.1070   42.7603  134.6642 C   0  0  0  0  0  0  0  0  0  0  0  0
   11.5738   43.4103  135.7529 C   0  0  0  0  0  0  0  0  0  0  0  0
   11.5110   42.7796  137.0142 O   0  0  0  0  0  0  0  0  0  0  0  0
   11.1017   44.6939  135.5833 C   0  0  0  0  0  0  0  0  0  0  0  0
   11.1483   45.3365  134.3678 C   0  0  0  0  0  0  0  0  0  0  0  0
   12.3293   42.9215  137.6115 H   0  0  0  0  0  0  0  0  0  0  0  0
   10.2475   48.7002  132.9218 C   0  0  0  0  0  0  0  0  0  0  0  0
   10.3794   49.6734  133.8537 C   0  0  0  0  0  0  0  0  0  0  0  0
    9.8405   50.9539  133.6749 C   0  0  0  0  0  0  0  0  0  0  0  0
    9.1485   51.2698  132.5252 C   0  0  0  0  0  0  0  0  0  0  0  0
    8.9973   50.2940  131.5506 C   0  0  0  0  0  0  0  0  0  0  0  0
    8.2993   50.6140  130.3898 O   0  0  0  0  0  0  0  0  0  0  0  0
    9.5359   49.0583  131.7615 C   0  0  0  0  0  0  0  0  0  0  0  0
    8.1457   49.9730  129.6430 H   0  0  0  0  0  0  0  0  0  0  0  0
   10.4898   46.6795  130.5879 C   0  0  0  0  0  0  0  0  0  0  0  0
    9.6138   47.7142  130.3291 C   0  0  0  0  0  0  0  0  0  0  0  0
    8.8688   47.7460  129.1483 C   0  0  0  0  0  0  0  0  0  0  0  0
    8.9969   46.7415  128.2186 C   0  0  0  0  0  0  0  0  0  0  0  0
    9.8732   45.7105  128.4816 C   0  0  0  0  0  0  0  0  0  0  0  0
   10.6152   45.6752  129.6542 C   0  0  0  0  0  0  0  0  0  0  0  0
    8.2451   46.7864  127.0414 O   0  0  0  0  0  0  0  0  0  0  0  0
    7.7646   48.0082  126.5732 C   0  0  0  0  0  0  0  0  0  0  0  0
    7.2901   48.9216  127.6437 C   0  0  0  0  0  0  0  0  0  0  0  0
    6.1170   48.6109  128.3334 N   0  0  0  0  0  0  0  0  0  0  0  0
    5.6667   47.2791  128.4259 C   0  0  0  0  0  0  0  0  0  0  0  0
    4.6820   47.2228  129.5870 C   0  0  0  0  0  0  0  0  0  0  0  0
    5.1381   48.3529  130.4522 C   0  0  0  0  0  0  0  0  0  0  0  0
    5.7866   49.3263  129.5070 C   0  0  0  0  0  0  0  0  0  0  0  0
  1  2  1  0  0  0
  2  3  2  0  0  0
  3  4  1  0  0  0
  4  5  1  0  0  0
  5  6  1  0  0  0
  6  7  2  0  0  0
  7  8  1  0  0  0
  8  9  2  0  0  0
  9 10  1  0  0  0
  9 11  1  0  0  0
 11 12  2  0  0  0
  4 22  1  0  0  0
 22 23  2  0  0  0
 23 24  1  0  0  0
 24 25  2  0  0  0
 25 28  1  0  0  0
 28 29  1  0  0  0
 29 30  1  0  0  0
 30 31  1  0  0  0
 31 32  1  0  0  0
 32 33  1  0  0  0
 33 34  1  0  0  0
 34 35  1  0  0  0
 25 26  1  0  0  0
 26 27  2  0  0  0
  3 14  1  0  0  0
 14 15  2  0  0  0
 15 16  1  0  0  0
 16 17  2  0  0  0
 17 18  1  0  0  0
 18 19  1  0  0  0
 18 20  2  0  0  0
 12  2  1  0  0  0
 27 22  1  0  0  0
 20 14  1  0  0  0
 12  6  1  0  0  0
 35 31  1  0  0  0
 10 13  1  0  0  0
 19 21  1  0  0  0
M  END
> <minimizedAffinity>
16.96520

> <CNNscore>
0.4245748222

> <CNNaffinity>
7.3316016197

> <CNN_VS>
3.1128134727

> <CNNaffinity_variance>
1.0594927073

$$$$
[H]Oc1c([H])c([H])c([H])c(C2=C(C([H])([H])[H])c3c([H])c(O[H])c([H])c([H])c3OC2([H])c2c([H])c([H])c(OC([H])([H])C([H])([H])N3C([H])([H])C([H])([H])C([H])([H])C3([H])[H])c([H])c2[H])c1[H]


 35 39  0  0  0  0  0  0  0  0999 V2000
   10.2334   42.2204  132.1440 C   0  0  0  0  0  0  0  0  0  0  0  0
   10.5052   43.3194  131.1691 C   0  0  0  0  0  0  0  0  0  0  0  0
   10.8303   44.5186  131.6183 C   0  0  0  0  0  0  0  0  0  0  0  0
   11.0975   45.6037  130.6735 C   0  0  0  0  0  0  0  0  0  0  0  0
   10.9389   45.2494  129.3158 O   0  0  0  0  0  0  0  0  0  0  0  0
   10.6107   44.0215  128.8515 C   0  0  0  0  0  0  0  0  0  0  0  0
   10.4912   43.7180  127.5010 C   0  0  0  0  0  0  0  0  0  0  0  0
   10.1587   42.4705  127.0341 C   0  0  0  0  0  0  0  0  0  0  0  0
    9.9283   41.4570  127.9350 C   0  0  0  0  0  0  0  0  0  0  0  0
    9.5844   40.1605  127.4949 O   0  0  0  0  0  0  0  0  0  0  0  0
   10.0416   41.7370  129.2797 C   0  0  0  0  0  0  0  0  0  0  0  0
   10.3749   42.9894  129.7410 C   0  0  0  0  0  0  0  0  0  0  0  0
   10.3761   39.5335  127.3317 H   0  0  0  0  0  0  0  0  0  0  0  0
   10.9946   44.7043  133.0414 C   0  0  0  0  0  0  0  0  0  0  0  0
   11.6985   43.9394  133.9087 C   0  0  0  0  0  0  0  0  0  0  0  0
   11.7291   44.2077  135.2832 C   0  0  0  0  0  0  0  0  0  0  0  0
   11.0333   45.2772  135.8051 C   0  0  0  0  0  0  0  0  0  0  0  0
   10.3030   46.0809  134.9415 C   0  0  0  0  0  0  0  0  0  0  0  0
    9.6014   47.1609  135.4690 O   0  0  0  0  0  0  0  0  0  0  0  0
   10.2972   45.7870  133.6091 C   0  0  0  0  0  0  0  0  0  0  0  0
    9.0536   47.7854  134.9195 H   0  0  0  0  0  0  0  0  0  0  0  0
   10.4076   46.8803  130.9177 C   0  0  0  0  0  0  0  0  0  0  0  0
    9.2306   46.9166  131.6379 C   0  0  0  0  0  0  0  0  0  0  0  0
    8.5778   48.1259  131.8862 C   0  0  0  0  0  0  0  0  0  0  0  0
    9.0999   49.3070  131.4150 C   0  0  0  0  0  0  0  0  0  0  0  0
   10.2756   49.2655  130.6966 C   0  0  0  0  0  0  0  0  0  0  0  0
   10.9273   48.0656  130.4475 C   0  0  0  0  0  0  0  0  0  0  0  0
    8.4357   50.5097  131.6711 O   0  0  0  0  0  0  0  0  0  0  0  0
    7.1831   50.7427  131.1056 C   0  0  0  0  0  0  0  0  0  0  0  0
    7.0034   50.1343  129.7629 C   0  0  0  0  0  0  0  0  0  0  0  0
    6.5550   48.8159  129.6672 N   0  0  0  0  0  0  0  0  0  0  0  0
    5.1775   48.5207  129.6786 C   0  0  0  0  0  0  0  0  0  0  0  0
    5.0187   47.1197  129.1015 C   0  0  0  0  0  0  0  0  0  0  0  0
    6.2220   46.9937  128.2241 C   0  0  0  0  0  0  0  0  0  0  0  0
    7.2494   47.9002  128.8439 C   0  0  0  0  0  0  0  0  0  0  0  0
  1  2  1  0  0  0
  2  3  2  0  0  0
  3  4  1  0  0  0
  4  5  1  0  0  0
  5  6  1  0  0  0
  6  7  2  0  0  0
  7  8  1  0  0  0
  8  9  2  0  0  0
  9 10  1  0  0  0
  9 11  1  0  0  0
 11 12  2  0  0  0
  4 22  1  0  0  0
 22 23  2  0  0  0
 23 24  1  0  0  0
 24 25  2  0  0  0
 25 28  1  0  0  0
 28 29  1  0  0  0
 29 30  1  0  0  0
 30 31  1  0  0  0
 31 32  1  0  0  0
 32 33  1  0  0  0
 33 34  1  0  0  0
 34 35  1  0  0  0
 25 26  1  0  0  0
 26 27  2  0  0  0
  3 14  1  0  0  0
 14 15  2  0  0  0
 15 16  1  0  0  0
 16 17  2  0  0  0
 17 18  1  0  0  0
 18 19  1  0  0  0
 18 20  2  0  0  0
 12  2  1  0  0  0
 27 22  1  0  0  0
 20 14  1  0  0  0
 12  6  1  0  0  0
 35 31  1  0  0  0
 10 13  1  0  0  0
 19 21  1  0  0  0
M  END
> <minimizedAffinity>
8.42206

> <CNNscore>
0.4149414301

> <CNNaffinity>
7.7047896385

> <CNN_VS>
3.1970365047

> <CNNaffinity_variance>
1.0299158096

$$$$
[H]Oc1c([H])c([H])c([H])c(C2=C(C([H])([H])[H])c3c([H])c(O[H])c([H])c([H])c3OC2([H])c2c([H])c([H])c(OC([H])([H])C([H])([H])N3C([H])([H])C([H])([H])C([H])([H])C3([H])[H])c([H])c2[H])c1[H]


 35 39  0  0  0  0  0  0  0  0999 V2000
   11.5478   43.8074  131.1353 C   0  0  0  0  0  0  0  0  0  0  0  0
   10.2764   44.4159  131.6306 C   0  0  0  0  0  0  0  0  0  0  0  0
    9.3583   44.7971  130.7604 C   0  0  0  0  0  0  0  0  0  0  0  0
    8.1094   45.3958  131.2330 C   0  0  0  0  0  0  0  0  0  0  0  0
    8.0250   45.5430  132.6348 O   0  0  0  0  0  0  0  0  0  0  0  0
    8.9608   45.1497  133.5296 C   0  0  0  0  0  0  0  0  0  0  0  0
    8.8182   45.2953  134.9039 C   0  0  0  0  0  0  0  0  0  0  0  0
    9.7700   44.8942  135.8084 C   0  0  0  0  0  0  0  0  0  0  0  0
   10.9306   44.3167  135.3485 C   0  0  0  0  0  0  0  0  0  0  0  0
   11.9332   43.8908  136.2464 O   0  0  0  0  0  0  0  0  0  0  0  0
   11.0921   44.1631  133.9885 C   0  0  0  0  0  0  0  0  0  0  0  0
   10.1345   44.5675  133.0874 C   0  0  0  0  0  0  0  0  0  0  0  0
   11.8440   42.9243  136.5695 H   0  0  0  0  0  0  0  0  0  0  0  0
    9.5813   44.5339  129.3577 C   0  0  0  0  0  0  0  0  0  0  0  0
    9.1472   43.4814  128.6252 C   0  0  0  0  0  0  0  0  0  0  0  0
    9.4848   43.3237  127.2749 C   0  0  0  0  0  0  0  0  0  0  0  0
   10.2818   44.2509  126.6379 C   0  0  0  0  0  0  0  0  0  0  0  0
   10.7418   45.3417  127.3617 C   0  0  0  0  0  0  0  0  0  0  0  0
   11.5457   46.2776  126.7177 O   0  0  0  0  0  0  0  0  0  0  0  0
   10.3920   45.4600  128.6752 C   0  0  0  0  0  0  0  0  0  0  0  0
   11.9170   47.0871  127.1638 H   0  0  0  0  0  0  0  0  0  0  0  0
    7.6947   46.6551  130.5946 C   0  0  0  0  0  0  0  0  0  0  0  0
    8.4146   47.8155  130.7958 C   0  0  0  0  0  0  0  0  0  0  0  0
    8.0357   49.0112  130.1819 C   0  0  0  0  0  0  0  0  0  0  0  0
    6.9332   49.0525  129.3619 C   0  0  0  0  0  0  0  0  0  0  0  0
    6.2177   47.8910  129.1640 C   0  0  0  0  0  0  0  0  0  0  0  0
    6.5910   46.7007  129.7725 C   0  0  0  0  0  0  0  0  0  0  0  0
    6.5658   50.2561  128.7542 O   0  0  0  0  0  0  0  0  0  0  0  0
    7.2889   51.4168  129.0242 C   0  0  0  0  0  0  0  0  0  0  0  0
    6.6851   52.6504  128.4595 C   0  0  0  0  0  0  0  0  0  0  0  0
    7.3400   53.3156  127.4217 N   0  0  0  0  0  0  0  0  0  0  0  0
    7.8681   52.6016  126.3281 C   0  0  0  0  0  0  0  0  0  0  0  0
    8.0759   53.6052  125.2010 C   0  0  0  0  0  0  0  0  0  0  0  0
    7.0625   54.6578  125.5151 C   0  0  0  0  0  0  0  0  0  0  0  0
    6.8792   54.5857  127.0059 C   0  0  0  0  0  0  0  0  0  0  0  0
  1  2  1  0  0  0
  2  3  2  0  0  0
  3  4  1  0  0  0
  4  5  1  0  0  0
  5  6  1  0  0  0
  6  7  2  0  0  0
  7  8  1  0  0  0
  8  9  2  0  0  0
  9 10  1  0  0  0
  9 11  1  0  0  0
 11 12  2  0  0  0
  4 22  1  0  0  0
 22 23  2  0  0  0
 23 24  1  0  0  0
 24 25  2  0  0  0
 25 28  1  0  0  0
 28 29  1  0  0  0
 29 30  1  0  0  0
 30 31  1  0  0  0
 31 32  1  0  0  0
 32 33  1  0  0  0
 33 34  1  0  0  0
 34 35  1  0  0  0
 25 26  1  0  0  0
 26 27  2  0  0  0
  3 14  1  0  0  0
 14 15  2  0  0  0
 15 16  1  0  0  0
 16 17  2  0  0  0
 17 18  1  0  0  0
 18 19  1  0  0  0
 18 20  2  0  0  0
 12  2  1  0  0  0
 27 22  1  0  0  0
 20 14  1  0  0  0
 12  6  1  0  0  0
 35 31  1  0  0  0
 10 13  1  0  0  0
 19 21  1  0  0  0
M  END
> <minimizedAffinity>
6.70809

> <CNNscore>
0.4137079120

> <CNNaffinity>
7.3883972168

> <CNN_VS>
3.0566384792

> <CNNaffinity_variance>
1.3921730518

$$$$
[H]Oc1c([H])c([H])c([H])c(C2=C(C([H])([H])[H])c3c([H])c(O[H])c([H])c([H])c3OC2([H])c2c([H])c([H])c(OC([H])([H])C([H])([H])N3C([H])([H])C([H])([H])C([H])([H])C3([H])[H])c([H])c2[H])c1[H]


 35 39  0  0  0  0  0  0  0  0999 V2000
   11.4784   44.7444  131.6342 C   0  0  0  0  0  0  0  0  0  0  0  0
   10.1187   45.3029  131.9015 C   0  0  0  0  0  0  0  0  0  0  0  0
    9.3419   45.6320  130.8848 C   0  0  0  0  0  0  0  0  0  0  0  0
    8.0086   46.1815  131.1335 C   0  0  0  0  0  0  0  0  0  0  0  0
    7.6880   46.3432  132.4993 O   0  0  0  0  0  0  0  0  0  0  0  0
    8.4787   46.0032  133.5434 C   0  0  0  0  0  0  0  0  0  0  0  0
    8.1055   46.1604  134.8723 C   0  0  0  0  0  0  0  0  0  0  0  0
    8.9106   45.8133  135.9288 C   0  0  0  0  0  0  0  0  0  0  0  0
   10.1539   45.2813  135.6776 C   0  0  0  0  0  0  0  0  0  0  0  0
   11.0113   44.9116  136.7364 O   0  0  0  0  0  0  0  0  0  0  0  0
   10.5438   45.1171  134.3660 C   0  0  0  0  0  0  0  0  0  0  0  0
    9.7322   45.4672  133.3118 C   0  0  0  0  0  0  0  0  0  0  0  0
   10.9098   43.9464  137.0599 H   0  0  0  0  0  0  0  0  0  0  0  0
    9.8040   45.3604  129.5434 C   0  0  0  0  0  0  0  0  0  0  0  0
   10.3257   46.2302  128.6466 C   0  0  0  0  0  0  0  0  0  0  0  0
   10.6862   45.8377  127.3512 C   0  0  0  0  0  0  0  0  0  0  0  0
   10.5199   44.5319  126.9417 C   0  0  0  0  0  0  0  0  0  0  0  0
    9.9885   43.6162  127.8384 C   0  0  0  0  0  0  0  0  0  0  0  0
    9.8216   42.2980  127.4245 O   0  0  0  0  0  0  0  0  0  0  0  0
    9.6488   44.0367  129.0912 C   0  0  0  0  0  0  0  0  0  0  0  0
    9.4477   41.5798  128.0047 H   0  0  0  0  0  0  0  0  0  0  0  0
    7.6535   47.4129  130.4105 C   0  0  0  0  0  0  0  0  0  0  0  0
    6.6420   47.4095  129.4712 C   0  0  0  0  0  0  0  0  0  0  0  0
    6.2895   48.5774  128.7914 C   0  0  0  0  0  0  0  0  0  0  0  0
    6.9476   49.7566  129.0483 C   0  0  0  0  0  0  0  0  0  0  0  0
    7.9567   49.7548  129.9873 C   0  0  0  0  0  0  0  0  0  0  0  0
    8.3102   48.5961  130.6649 C   0  0  0  0  0  0  0  0  0  0  0  0
    6.5841   50.9175  128.3604 O   0  0  0  0  0  0  0  0  0  0  0  0
    7.5334   51.9121  128.1312 C   0  0  0  0  0  0  0  0  0  0  0  0
    6.9711   53.2859  128.0872 C   0  0  0  0  0  0  0  0  0  0  0  0
    7.2756   54.1119  127.0040 N   0  0  0  0  0  0  0  0  0  0  0  0
    8.4252   53.8815  126.2228 C   0  0  0  0  0  0  0  0  0  0  0  0
    8.2209   54.6166  124.9042 C   0  0  0  0  0  0  0  0  0  0  0  0
    6.7317   54.6610  124.7866 C   0  0  0  0  0  0  0  0  0  0  0  0
    6.2306   54.6282  126.2041 C   0  0  0  0  0  0  0  0  0  0  0  0
  1  2  1  0  0  0
  2  3  2  0  0  0
  3  4  1  0  0  0
  4  5  1  0  0  0
  5  6  1  0  0  0
  6  7  2  0  0  0
  7  8  1  0  0  0
  8  9  2  0  0  0
  9 10  1  0  0  0
  9 11  1  0  0  0
 11 12  2  0  0  0
  4 22  1  0  0  0
 22 23  2  0  0  0
 23 24  1  0  0  0
 24 25  2  0  0  0
 25 28  1  0  0  0
 28 29  1  0  0  0
 29 30  1  0  0  0
 30 31  1  0  0  0
 31 32  1  0  0  0
 32 33  1  0  0  0
 33 34  1  0  0  0
 34 35  1  0  0  0
 25 26  1  0  0  0
 26 27  2  0  0  0
  3 14  1  0  0  0
 14 15  2  0  0  0
 15 16  1  0  0  0
 16 17  2  0  0  0
 17 18  1  0  0  0
 18 19  1  0  0  0
 18 20  2  0  0  0
 12  2  1  0  0  0
 27 22  1  0  0  0
 20 14  1  0  0  0
 12  6  1  0  0  0
 35 31  1  0  0  0
 10 13  1  0  0  0
 19 21  1  0  0  0
M  END
> <minimizedAffinity>
2.16890

> <CNNscore>
0.3917973042

> <CNNaffinity>
7.4130353928

> <CNN_VS>
2.9044072628

> <CNNaffinity_variance>
1.2388389111

$$$$
[H]Oc1c([H])c([H])c([H])c(C2=C(C([H])([H])[H])c3c([H])c(O[H])c([H])c([H])c3OC2([H])c2c([H])c([H])c(OC([H])([H])C([H])([H])N3C([H])([H])C([H])([H])C([H])([H])C3([H])[H])c([H])c2[H])c1[H]


 35 39  0  0  0  0  0  0  0  0999 V2000
    7.0568   45.4969  133.4808 C   0  0  0  0  0  0  0  0  0  0  0  0
    8.2407   44.5998  133.6409 C   0  0  0  0  0  0  0  0  0  0  0  0
    9.4558   45.0986  133.4991 C   0  0  0  0  0  0  0  0  0  0  0  0
   10.6234   44.2298  133.6520 C   0  0  0  0  0  0  0  0  0  0  0  0
   10.3154   42.8767  133.9134 O   0  0  0  0  0  0  0  0  0  0  0  0
    9.0728   42.3627  134.0639 C   0  0  0  0  0  0  0  0  0  0  0  0
    8.8240   41.0252  134.3453 C   0  0  0  0  0  0  0  0  0  0  0  0
    7.5615   40.5079  134.4980 C   0  0  0  0  0  0  0  0  0  0  0  0
    6.4752   41.3418  134.3689 C   0  0  0  0  0  0  0  0  0  0  0  0
    5.1611   40.8486  134.5189 O   0  0  0  0  0  0  0  0  0  0  0  0
    6.7001   42.6725  134.0896 C   0  0  0  0  0  0  0  0  0  0  0  0
    7.9679   43.1845  133.9375 C   0  0  0  0  0  0  0  0  0  0  0  0
    4.7914   40.8817  135.4722 H   0  0  0  0  0  0  0  0  0  0  0  0
    9.6003   46.5185  133.2765 C   0  0  0  0  0  0  0  0  0  0  0  0
   10.1419   47.4437  134.1033 C   0  0  0  0  0  0  0  0  0  0  0  0
   10.1695   48.8064  133.7801 C   0  0  0  0  0  0  0  0  0  0  0  0
    9.6386   49.2563  132.5901 C   0  0  0  0  0  0  0  0  0  0  0  0
    9.0771   48.3322  131.7207 C   0  0  0  0  0  0  0  0  0  0  0  0
    8.5421   48.7870  130.5191 O   0  0  0  0  0  0  0  0  0  0  0  0
    9.0685   47.0135  132.0711 C   0  0  0  0  0  0  0  0  0  0  0  0
    8.1212   48.1911  129.8410 H   0  0  0  0  0  0  0  0  0  0  0  0
   11.6396   44.2918  132.5895 C   0  0  0  0  0  0  0  0  0  0  0  0
   12.2238   45.4939  132.2450 C   0  0  0  0  0  0  0  0  0  0  0  0
   13.1994   45.5586  131.2479 C   0  0  0  0  0  0  0  0  0  0  0  0
   13.5966   44.4191  130.5894 C   0  0  0  0  0  0  0  0  0  0  0  0
   13.0104   43.2210  130.9372 C   0  0  0  0  0  0  0  0  0  0  0  0
   12.0403   43.1527  131.9276 C   0  0  0  0  0  0  0  0  0  0  0  0
   14.5739   44.4989  129.5937 O   0  0  0  0  0  0  0  0  0  0  0  0
   14.1973   44.7232  128.2705 C   0  0  0  0  0  0  0  0  0  0  0  0
   12.8848   44.1311  127.9068 C   0  0  0  0  0  0  0  0  0  0  0  0
   11.7316   44.5848  128.5492 N   0  0  0  0  0  0  0  0  0  0  0  0
   11.2701   45.9018  128.3561 C   0  0  0  0  0  0  0  0  0  0  0  0
    9.8090   45.9280  128.7867 C   0  0  0  0  0  0  0  0  0  0  0  0
    9.3848   44.5105  128.5760 C   0  0  0  0  0  0  0  0  0  0  0  0
   10.6430   43.7025  128.7354 C   0  0  0  0  0  0  0  0  0  0  0  0
  1  2  1  0  0  0
  2  3  2  0  0  0
  3  4  1  0  0  0
  4  5  1  0  0  0
  5  6  1  0  0  0
  6  7  2  0  0  0
  7  8  1  0  0  0
  8  9  2  0  0  0
  9 10  1  0  0  0
  9 11  1  0  0  0
 11 12  2  0  0  0
  4 22  1  0  0  0
 22 23  2  0  0  0
 23 24  1  0  0  0
 24 25  2  0  0  0
 25 28  1  0  0  0
 28 29  1  0  0  0
 29 30  1  0  0  0
 30 31  1  0  0  0
 31 32  1  0  0  0
 32 33  1  0  0  0
 33 34  1  0  0  0
 34 35  1  0  0  0
 25 26  1  0  0  0
 26 27  2  0  0  0
  3 14  1  0  0  0
 14 15  2  0  0  0
 15 16  1  0  0  0
 16 17  2  0  0  0
 17 18  1  0  0  0
 18 19  1  0  0  0
 18 20  2  0  0  0
 12  2  1  0  0  0
 27 22  1  0  0  0
 20 14  1  0  0  0
 12  6  1  0  0  0
 35 31  1  0  0  0
 10 13  1  0  0  0
 19 21  1  0  0  0
M  END
> <minimizedAffinity>
16.58057

> <CNNscore>
0.3908045590

> <CNNaffinity>
7.4549269676

> <CNN_VS>
2.9134194851

> <CNNaffinity_variance>
0.5830494165

$$$$
[H]Oc1c([H])c([H])c([H])c(C2=C(C([H])([H])[H])c3c([H])c(O[H])c([H])c([H])c3OC2([H])c2c([H])c([H])c(OC([H])([H])C([H])([H])N3C([H])([H])C([H])([H])C([H])([H])C3([H])[H])c([H])c2[H])c1[H]


 35 39  0  0  0  0  0  0  0  0999 V2000
   10.0965   44.4295  131.8446 C   0  0  0  0  0  0  0  0  0  0  0  0
    9.8795   45.3251  130.6687 C   0  0  0  0  0  0  0  0  0  0  0  0
    9.6163   46.6044  130.8681 C   0  0  0  0  0  0  0  0  0  0  0  0
    9.4003   47.4915  129.7245 C   0  0  0  0  0  0  0  0  0  0  0  0
    9.4642   46.8514  128.4674 O   0  0  0  0  0  0  0  0  0  0  0  0
    9.7380   45.5428  128.2587 C   0  0  0  0  0  0  0  0  0  0  0  0
    9.8136   44.9659  126.9971 C   0  0  0  0  0  0  0  0  0  0  0  0
   10.0924   43.6377  126.7897 C   0  0  0  0  0  0  0  0  0  0  0  0
   10.3107   42.8212  127.8749 C   0  0  0  0  0  0  0  0  0  0  0  0
   10.6004   41.4503  127.7035 O   0  0  0  0  0  0  0  0  0  0  0  0
   10.2402   43.3737  129.1355 C   0  0  0  0  0  0  0  0  0  0  0  0
    9.9601   44.7055  129.3365 C   0  0  0  0  0  0  0  0  0  0  0  0
   11.5943   41.2245  127.6158 H   0  0  0  0  0  0  0  0  0  0  0  0
    9.6310   47.1122  132.2203 C   0  0  0  0  0  0  0  0  0  0  0  0
   10.4552   48.0438  132.7547 C   0  0  0  0  0  0  0  0  0  0  0  0
   10.3925   48.4066  134.1062 C   0  0  0  0  0  0  0  0  0  0  0  0
    9.4738   47.8181  134.9488 C   0  0  0  0  0  0  0  0  0  0  0  0
    8.6140   46.8602  134.4307 C   0  0  0  0  0  0  0  0  0  0  0  0
    7.6863   46.2671  135.2818 O   0  0  0  0  0  0  0  0  0  0  0  0
    8.7062   46.5331  133.1093 C   0  0  0  0  0  0  0  0  0  0  0  0
    7.0346   45.5723  134.9908 H   0  0  0  0  0  0  0  0  0  0  0  0
    8.2030   48.3460  129.7651 C   0  0  0  0  0  0  0  0  0  0  0  0
    6.9857   47.8718  129.3198 C   0  0  0  0  0  0  0  0  0  0  0  0
    5.8420   48.6717  129.3687 C   0  0  0  0  0  0  0  0  0  0  0  0
    5.9102   49.9521  129.8643 C   0  0  0  0  0  0  0  0  0  0  0  0
    7.1281   50.4210  130.3080 C   0  0  0  0  0  0  0  0  0  0  0  0
    8.2671   49.6291  130.2609 C   0  0  0  0  0  0  0  0  0  0  0  0
    4.7576   50.7412  129.9072 O   0  0  0  0  0  0  0  0  0  0  0  0
    3.5836   50.2846  129.3103 C   0  0  0  0  0  0  0  0  0  0  0  0
    3.5156   50.5269  127.8467 C   0  0  0  0  0  0  0  0  0  0  0  0
    2.5592   51.4121  127.3467 N   0  0  0  0  0  0  0  0  0  0  0  0
    2.7706   52.8042  127.3955 C   0  0  0  0  0  0  0  0  0  0  0  0
    1.8165   53.4338  126.3884 C   0  0  0  0  0  0  0  0  0  0  0  0
    1.6105   52.3284  125.4040 C   0  0  0  0  0  0  0  0  0  0  0  0
    1.8226   51.0648  126.1912 C   0  0  0  0  0  0  0  0  0  0  0  0
  1  2  1  0  0  0
  2  3  2  0  0  0
  3  4  1  0  0  0
  4  5  1  0  0  0
  5  6  1  0  0  0
  6  7  2  0  0  0
  7  8  1  0  0  0
  8  9  2  0  0  0
  9 10  1  0  0  0
  9 11  1  0  0  0
 11 12  2  0  0  0
  4 22  1  0  0  0
 22 23  2  0  0  0
 23 24  1  0  0  0
 24 25  2  0  0  0
 25 28  1  0  0  0
 28 29  1  0  0  0
 29 30  1  0  0  0
 30 31  1  0  0  0
 31 32  1  0  0  0
 32 33  1  0  0  0
 33 34  1  0  0  0
 34 35  1  0  0  0
 25 26  1  0  0  0
 26 27  2  0  0  0
  3 14  1  0  0  0
 14 15  2  0  0  0
 15 16  1  0  0  0
 16 17  2  0  0  0
 17 18  1  0  0  0
 18 19  1  0  0  0
 18 20  2  0  0  0
 12  2  1  0  0  0
 27 22  1  0  0  0
 20 14  1  0  0  0
 12  6  1  0  0  0
 35 31  1  0  0  0
 10 13  1  0  0  0
 19 21  1  0  0  0
M  END
> <minimizedAffinity>
12.12824

> <CNNscore>
0.3483145833

> <CNNaffinity>
7.0903077126

> <CNN_VS>
2.4696576595

> <CNNaffinity_variance>
0.9126003385

$$$$
[H]Oc1c([H])c([H])c([H])c(C2=C(C([H])([H])[H])c3c([H])c(O[H])c([H])c([H])c3OC2([H])c2c([H])c([H])c(OC([H])([H])C([H])([H])N3C([H])([H])C([H])([H])C([H])([H])C3([H])[H])c([H])c2[H])c1[H]


 35 39  0  0  0  0  0  0  0  0999 V2000
    7.1825   50.8646  130.8266 C   0  0  0  0  0  0  0  0  0  0  0  0
    8.3101   49.9954  131.2794 C   0  0  0  0  0  0  0  0  0  0  0  0
    8.4698   48.8035  130.7321 C   0  0  0  0  0  0  0  0  0  0  0  0
    9.5696   47.9422  131.1681 C   0  0  0  0  0  0  0  0  0  0  0  0
   10.3635   48.4853  132.2019 O   0  0  0  0  0  0  0  0  0  0  0  0
   10.2062   49.7071  132.7618 C   0  0  0  0  0  0  0  0  0  0  0  0
   11.0318   50.2056  133.7618 C   0  0  0  0  0  0  0  0  0  0  0  0
   10.8691   51.4463  134.3266 C   0  0  0  0  0  0  0  0  0  0  0  0
    9.8412   52.2508  133.8928 C   0  0  0  0  0  0  0  0  0  0  0  0
    9.6408   53.5330  134.4481 O   0  0  0  0  0  0  0  0  0  0  0  0
    9.0103   51.7751  132.9015 C   0  0  0  0  0  0  0  0  0  0  0  0
    9.1787   50.5307  132.3397 C   0  0  0  0  0  0  0  0  0  0  0  0
   10.1370   54.2928  133.9758 H   0  0  0  0  0  0  0  0  0  0  0  0
    7.5948   48.4148  129.6506 C   0  0  0  0  0  0  0  0  0  0  0  0
    7.7489   48.6471  128.3257 C   0  0  0  0  0  0  0  0  0  0  0  0
    6.7879   48.2568  127.3843 C   0  0  0  0  0  0  0  0  0  0  0  0
    5.6364   47.6120  127.7829 C   0  0  0  0  0  0  0  0  0  0  0  0
    5.4498   47.3585  129.1342 C   0  0  0  0  0  0  0  0  0  0  0  0
    4.2875   46.7067  129.5357 O   0  0  0  0  0  0  0  0  0  0  0  0
    6.4082   47.7547  130.0208 C   0  0  0  0  0  0  0  0  0  0  0  0
    4.0765   46.4875  130.4842 H   0  0  0  0  0  0  0  0  0  0  0  0
    9.2281   46.5519  131.5083 C   0  0  0  0  0  0  0  0  0  0  0  0
    9.9989   45.8377  132.4032 C   0  0  0  0  0  0  0  0  0  0  0  0
    9.6728   44.5227  132.7421 C   0  0  0  0  0  0  0  0  0  0  0  0
    8.5721   43.9146  132.1870 C   0  0  0  0  0  0  0  0  0  0  0  0
    7.8054   44.6321  131.2941 C   0  0  0  0  0  0  0  0  0  0  0  0
    8.1263   45.9391  130.9545 C   0  0  0  0  0  0  0  0  0  0  0  0
    8.2579   42.5982  132.5355 O   0  0  0  0  0  0  0  0  0  0  0  0
    8.5714   41.5575  131.6627 C   0  0  0  0  0  0  0  0  0  0  0  0
    8.4383   41.9119  130.2267 C   0  0  0  0  0  0  0  0  0  0  0  0
    9.5439   42.4253  129.5467 N   0  0  0  0  0  0  0  0  0  0  0  0
    9.3804   43.3738  128.5179 C   0  0  0  0  0  0  0  0  0  0  0  0
   10.7294   44.0546  128.3231 C   0  0  0  0  0  0  0  0  0  0  0  0
   11.3645   43.9033  129.6674 C   0  0  0  0  0  0  0  0  0  0  0  0
   10.7478   42.6613  130.2491 C   0  0  0  0  0  0  0  0  0  0  0  0
  1  2  1  0  0  0
  2  3  2  0  0  0
  3  4  1  0  0  0
  4  5  1  0  0  0
  5  6  1  0  0  0
  6  7  2  0  0  0
  7  8  1  0  0  0
  8  9  2  0  0  0
  9 10  1  0  0  0
  9 11  1  0  0  0
 11 12  2  0  0  0
  4 22  1  0  0  0
 22 23  2  0  0  0
 23 24  1  0  0  0
 24 25  2  0  0  0
 25 28  1  0  0  0
 28 29  1  0  0  0
 29 30  1  0  0  0
 30 31  1  0  0  0
 31 32  1  0  0  0
 32 33  1  0  0  0
 33 34  1  0  0  0
 34 35  1  0  0  0
 25 26  1  0  0  0
 26 27  2  0  0  0
  3 14  1  0  0  0
 14 15  2  0  0  0
 15 16  1  0  0  0
 16 17  2  0  0  0
 17 18  1  0  0  0
 18 19  1  0  0  0
 18 20  2  0  0  0
 12  2  1  0  0  0
 27 22  1  0  0  0
 20 14  1  0  0  0
 12  6  1  0  0  0
 35 31  1  0  0  0
 10 13  1  0  0  0
 19 21  1  0  0  0
M  END
> <minimizedAffinity>
13.53123

> <CNNscore>
0.3444247544

> <CNNaffinity>
7.2169065475

> <CNN_VS>
2.4856812954

> <CNNaffinity_variance>
0.8926167488

$$$$
[H]Oc1c([H])c([H])c([H])c(C2=C(C([H])([H])[H])c3c([H])c(O[H])c([H])c([H])c3OC2([H])c2c([H])c([H])c(OC([H])([H])C([H])([H])N3C([H])([H])C([H])([H])C([H])([H])C3([H])[H])c([H])c2[H])c1[H]


 35 39  0  0  0  0  0  0  0  0999 V2000
   11.7839   42.2823  131.7242 C   0  0  0  0  0  0  0  0  0  0  0  0
   10.4486   42.9519  131.7033 C   0  0  0  0  0  0  0  0  0  0  0  0
   10.2273   43.9299  130.8430 C   0  0  0  0  0  0  0  0  0  0  0  0
    8.9240   44.5947  130.8138 C   0  0  0  0  0  0  0  0  0  0  0  0
    8.0052   44.1235  131.7771 O   0  0  0  0  0  0  0  0  0  0  0  0
    8.2262   43.1192  132.6567 C   0  0  0  0  0  0  0  0  0  0  0  0
    7.2779   42.6759  133.5701 C   0  0  0  0  0  0  0  0  0  0  0  0
    7.5060   41.6561  134.4603 C   0  0  0  0  0  0  0  0  0  0  0  0
    8.7306   41.0295  134.4626 C   0  0  0  0  0  0  0  0  0  0  0  0
    9.0042   39.9767  135.3622 O   0  0  0  0  0  0  0  0  0  0  0  0
    9.6857   41.4542  133.5644 C   0  0  0  0  0  0  0  0  0  0  0  0
    9.4507   42.4771  132.6749 C   0  0  0  0  0  0  0  0  0  0  0  0
    8.7761   39.0410  135.0173 H   0  0  0  0  0  0  0  0  0  0  0  0
   11.2615   44.2625  129.8909 C   0  0  0  0  0  0  0  0  0  0  0  0
   11.1250   44.5536  128.5758 C   0  0  0  0  0  0  0  0  0  0  0  0
   12.2282   44.8078  127.7508 C   0  0  0  0  0  0  0  0  0  0  0  0
   13.5087   44.7703  128.2600 C   0  0  0  0  0  0  0  0  0  0  0  0
   13.6814   44.4758  129.6048 C   0  0  0  0  0  0  0  0  0  0  0  0
   14.9744   44.4390  130.1183 O   0  0  0  0  0  0  0  0  0  0  0  0
   12.5823   44.2333  130.3761 C   0  0  0  0  0  0  0  0  0  0  0  0
   15.1853   44.2356  131.0703 H   0  0  0  0  0  0  0  0  0  0  0  0
    8.9294   46.0660  130.8386 C   0  0  0  0  0  0  0  0  0  0  0  0
    9.4036   46.7853  129.7601 C   0  0  0  0  0  0  0  0  0  0  0  0
    9.3986   48.1818  129.7703 C   0  0  0  0  0  0  0  0  0  0  0  0
    8.9181   48.8670  130.8608 C   0  0  0  0  0  0  0  0  0  0  0  0
    8.4455   48.1442  131.9351 C   0  0  0  0  0  0  0  0  0  0  0  0
    8.4491   46.7562  131.9289 C   0  0  0  0  0  0  0  0  0  0  0  0
    8.9192   50.2646  130.8570 O   0  0  0  0  0  0  0  0  0  0  0  0
    7.7397   50.9569  130.5880 C   0  0  0  0  0  0  0  0  0  0  0  0
    7.2604   50.8142  129.1896 C   0  0  0  0  0  0  0  0  0  0  0  0
    6.4242   49.7456  128.8622 N   0  0  0  0  0  0  0  0  0  0  0  0
    6.9113   48.6497  128.1231 C   0  0  0  0  0  0  0  0  0  0  0  0
    5.9367   47.4990  128.3403 C   0  0  0  0  0  0  0  0  0  0  0  0
    5.3450   47.8245  129.6735 C   0  0  0  0  0  0  0  0  0  0  0  0
    5.4402   49.3212  129.7841 C   0  0  0  0  0  0  0  0  0  0  0  0
  1  2  1  0  0  0
  2  3  2  0  0  0
  3  4  1  0  0  0
  4  5  1  0  0  0
  5  6  1  0  0  0
  6  7  2  0  0  0
  7  8  1  0  0  0
  8  9  2  0  0  0
  9 10  1  0  0  0
  9 11  1  0  0  0
 11 12  2  0  0  0
  4 22  1  0  0  0
 22 23  2  0  0  0
 23 24  1  0  0  0
 24 25  2  0  0  0
 25 28  1  0  0  0
 28 29  1  0  0  0
 29 30  1  0  0  0
 30 31  1  0  0  0
 31 32  1  0  0  0
 32 33  1  0  0  0
 33 34  1  0  0  0
 34 35  1  0  0  0
 25 26  1  0  0  0
 26 27  2  0  0  0
  3 14  1  0  0  0
 14 15  2  0  0  0
 15 16  1  0  0  0
 16 17  2  0  0  0
 17 18  1  0  0  0
 18 19  1  0  0  0
 18 20  2  0  0  0
 12  2  1  0  0  0
 27 22  1  0  0  0
 20 14  1  0  0  0
 12  6  1  0  0  0
 35 31  1  0  0  0
 10 13  1  0  0  0
 19 21  1  0  0  0
M  END
> <minimizedAffinity>
11.05328

> <CNNscore>
0.3432041705

> <CNNaffinity>
7.5803289413

> <CNN_VS>
2.6016004086

> <CNNaffinity_variance>
0.9429669380

$$$$
[H]O[C@]1([H])C([H])([H])C2=C([H])C([H])([H])C3([H])C4([H])C([H])([H])C([H])([H])[C@]([H])(O[H])[C@@]4(C([H])([H])[H])C([H])([H])C([H])([H])C3([H])[C@@]2(C([H])([H])[H])C([H])([H])C1([H])[H]


 23 26  0  0  0  0  0  0  0  0999 V2000
   10.3125   42.6535  131.2968 C   0  0  0  0  0  0  0  0  0  0  0  0
    9.5854   43.9781  131.5762 C   0  0  0  0  0  0  0  0  0  0  0  0
    8.5179   44.1146  130.5592 C   0  0  0  0  0  0  0  0  0  0  0  0
    8.7788   45.2925  129.6016 C   0  0  0  0  0  0  0  0  0  0  0  0
    8.8441   46.4749  130.4763 C   0  0  0  0  0  0  0  0  0  0  0  0
   10.1101   46.4334  131.2890 C   0  0  0  0  0  0  0  0  0  0  0  0
    9.8767   47.3244  132.4907 C   0  0  0  0  0  0  0  0  0  0  0  0
    9.0303   48.5004  132.1779 C   0  0  0  0  0  0  0  0  0  0  0  0
    8.5004   48.7541  130.9886 C   0  0  0  0  0  0  0  0  0  0  0  0
    7.6856   49.9714  130.8640 C   0  0  0  0  0  0  0  0  0  0  0  0
    6.6016   49.8743  129.8252 C   0  0  0  0  0  0  0  0  0  0  0  0
    7.0388   50.5343  128.6839 O   0  0  0  0  0  0  0  0  0  0  0  0
    6.3600   48.4100  129.4457 C   0  0  0  0  0  0  0  0  0  0  0  0
    7.6603   47.9582  128.8069 C   0  0  0  0  0  0  0  0  0  0  0  0
    8.7390   47.8113  129.8281 C   0  0  0  0  0  0  0  0  0  0  0  0
   10.0464   48.1862  129.1158 C   0  0  0  0  0  0  0  0  0  0  0  0
   10.5863   45.0772  131.6288 C   0  0  0  0  0  0  0  0  0  0  0  0
   11.1896   44.9490  133.0079 C   0  0  0  0  0  0  0  0  0  0  0  0
   10.3627   43.9771  133.7856 C   0  0  0  0  0  0  0  0  0  0  0  0
    9.0888   43.8867  132.9969 C   0  0  0  0  0  0  0  0  0  0  0  0
    8.4960   42.6313  133.1525 O   0  0  0  0  0  0  0  0  0  0  0  0
    7.2675   51.4701  128.8846 H   0  0  0  0  0  0  0  0  0  0  0  0
    7.9409   42.4787  132.3512 H   0  0  0  0  0  0  0  0  0  0  0  0
  2  1  1  0  0  0
  2  3  1  0  0  0
  3  4  1  0  0  0
  4  5  1  0  0  0
  5  6  1  0  0  0
  6  7  1  0  0  0
  7  8  1  0  0  0
  8  9  2  0  0  0
  9 10  1  0  0  0
 10 11  1  0  0  0
 11 12  1  0  0  0
 11 13  1  0  0  0
 13 14  1  0  0  0
 14 15  1  0  0  0
 15 16  1  0  0  0
  6 17  1  0  0  0
 17 18  1  0  0  0
 18 19  1  0  0  0
 19 20  1  0  0  0
 20 21  1  0  0  0
 17  2  1  0  0  0
 20  2  1  0  0  0
 15  5  1  0  0  0
 15  9  1  0  0  0
 12 22  1  0  0  0
 21 23  1  0  0  0
M  END
> <minimizedAffinity>
-9.31026

> <CNNscore>
0.5857162476

> <CNNaffinity>
7.2273192406

> <CNN_VS>
4.2331581116

> <CNNaffinity_variance>
0.2480646074

$$$$
[H]O[C@]1([H])C([H])([H])C2=C([H])C([H])([H])C3([H])C4([H])C([H])([H])C([H])([H])[C@]([H])(O[H])[C@@]4(C([H])([H])[H])C([H])([H])C([H])([H])C3([H])[C@@]2(C([H])([H])[H])C([H])([H])C1([H])[H]


 23 26  0  0  0  0  0  0  0  0999 V2000
   10.8809   43.8050  133.9695 C   0  0  0  0  0  0  0  0  0  0  0  0
   10.7561   44.8110  132.8147 C   0  0  0  0  0  0  0  0  0  0  0  0
   10.2923   46.0909  133.3969 C   0  0  0  0  0  0  0  0  0  0  0  0
    8.8760   46.4637  132.9197 C   0  0  0  0  0  0  0  0  0  0  0  0
    8.9880   46.5478  131.4541 C   0  0  0  0  0  0  0  0  0  0  0  0
    9.1687   45.1680  130.8809 C   0  0  0  0  0  0  0  0  0  0  0  0
    9.7921   45.3509  129.5134 C   0  0  0  0  0  0  0  0  0  0  0  0
    9.3127   46.5714  128.8223 C   0  0  0  0  0  0  0  0  0  0  0  0
    8.4510   47.4400  129.3350 C   0  0  0  0  0  0  0  0  0  0  0  0
    8.0895   48.5962  128.5022 C   0  0  0  0  0  0  0  0  0  0  0  0
    7.7249   49.8242  129.2913 C   0  0  0  0  0  0  0  0  0  0  0  0
    6.3396   49.9217  129.3203 O   0  0  0  0  0  0  0  0  0  0  0  0
    8.2068   49.6871  130.7389 C   0  0  0  0  0  0  0  0  0  0  0  0
    7.4150   48.5201  131.2994 C   0  0  0  0  0  0  0  0  0  0  0  0
    7.8827   47.2256  130.7219 C   0  0  0  0  0  0  0  0  0  0  0  0
    6.6398   46.3281  130.6400 C   0  0  0  0  0  0  0  0  0  0  0  0
    9.8962   44.2233  131.7525 C   0  0  0  0  0  0  0  0  0  0  0  0
   10.8214   43.2780  131.0225 C   0  0  0  0  0  0  0  0  0  0  0  0
   12.2141   43.5334  131.5003 C   0  0  0  0  0  0  0  0  0  0  0  0
   12.1177   44.8732  132.1701 C   0  0  0  0  0  0  0  0  0  0  0  0
   13.0604   44.9854  133.1950 O   0  0  0  0  0  0  0  0  0  0  0  0
    5.9701   49.9520  128.4088 H   0  0  0  0  0  0  0  0  0  0  0  0
   12.7084   45.6512  133.8323 H   0  0  0  0  0  0  0  0  0  0  0  0
  2  1  1  0  0  0
  2  3  1  0  0  0
  3  4  1  0  0  0
  4  5  1  0  0  0
  5  6  1  0  0  0
  6  7  1  0  0  0
  7  8  1  0  0  0
  8  9  2  0  0  0
  9 10  1  0  0  0
 10 11  1  0  0  0
 11 12  1  0  0  0
 11 13  1  0  0  0
 13 14  1  0  0  0
 14 15  1  0  0  0
 15 16  1  0  0  0
  6 17  1  0  0  0
 17 18  1  0  0  0
 18 19  1  0  0  0
 19 20  1  0  0  0
 20 21  1  0  0  0
 17  2  1  0  0  0
 20  2  1  0  0  0
 15  5  1  0  0  0
 15  9  1  0  0  0
 12 22  1  0  0  0
 21 23  1  0  0  0
M  END
> <minimizedAffinity>
-8.31070

> <CNNscore>
0.4566451907

> <CNNaffinity>
7.0448365211

> <CNN_VS>
3.2169907093

> <CNNaffinity_variance>
0.2083565295

$$$$
[H]O[C@]1([H])C([H])([H])C2=C([H])C([H])([H])C3([H])C4([H])C([H])([H])C([H])([H])[C@]([H])(O[H])[C@@]4(C([H])([H])[H])C([H])([H])C([H])([H])C3([H])[C@@]2(C([H])([H])[H])C([H])([H])C1([H])[H]


 23 26  0  0  0  0  0  0  0  0999 V2000
    7.5723   50.4349  128.5886 C   0  0  0  0  0  0  0  0  0  0  0  0
    7.5752   49.3824  129.7082 C   0  0  0  0  0  0  0  0  0  0  0  0
    8.6896   49.7193  130.6230 C   0  0  0  0  0  0  0  0  0  0  0  0
    9.7990   48.6509  130.6009 C   0  0  0  0  0  0  0  0  0  0  0  0
    9.1249   47.4070  131.0080 C   0  0  0  0  0  0  0  0  0  0  0  0
    8.2094   46.9442  129.9068 C   0  0  0  0  0  0  0  0  0  0  0  0
    7.1926   46.0269  130.5526 C   0  0  0  0  0  0  0  0  0  0  0  0
    7.7639   45.2269  131.6620 C   0  0  0  0  0  0  0  0  0  0  0  0
    9.0201   45.3062  132.0809 C   0  0  0  0  0  0  0  0  0  0  0  0
    9.4103   44.4335  133.1977 C   0  0  0  0  0  0  0  0  0  0  0  0
   10.5098   44.9981  134.0555 C   0  0  0  0  0  0  0  0  0  0  0  0
   11.7007   44.3847  133.6879 O   0  0  0  0  0  0  0  0  0  0  0  0
   10.6669   46.4997  133.7967 C   0  0  0  0  0  0  0  0  0  0  0  0
   11.1087   46.5966  132.3481 C   0  0  0  0  0  0  0  0  0  0  0  0
    9.9875   46.2654  131.4201 C   0  0  0  0  0  0  0  0  0  0  0  0
   10.6349   45.5918  130.2018 C   0  0  0  0  0  0  0  0  0  0  0  0
    7.6145   48.0268  129.0971 C   0  0  0  0  0  0  0  0  0  0  0  0
    6.1857   47.7822  128.6715 C   0  0  0  0  0  0  0  0  0  0  0  0
    5.3358   48.8578  129.2662 C   0  0  0  0  0  0  0  0  0  0  0  0
    6.2070   49.4441  130.3387 C   0  0  0  0  0  0  0  0  0  0  0  0
    5.9023   50.7918  130.5450 O   0  0  0  0  0  0  0  0  0  0  0  0
   11.6350   43.4070  133.7776 H   0  0  0  0  0  0  0  0  0  0  0  0
    6.7134   51.2119  130.9178 H   0  0  0  0  0  0  0  0  0  0  0  0
  2  1  1  0  0  0
  2  3  1  0  0  0
  3  4  1  0  0  0
  4  5  1  0  0  0
  5  6  1  0  0  0
  6  7  1  0  0  0
  7  8  1  0  0  0
  8  9  2  0  0  0
  9 10  1  0  0  0
 10 11  1  0  0  0
 11 12  1  0  0  0
 11 13  1  0  0  0
 13 14  1  0  0  0
 14 15  1  0  0  0
 15 16  1  0  0  0
  6 17  1  0  0  0
 17 18  1  0  0  0
 18 19  1  0  0  0
 19 20  1  0  0  0
 20 21  1  0  0  0
 17  2  1  0  0  0
 20  2  1  0  0  0
 15  5  1  0  0  0
 15  9  1  0  0  0
 12 22  1  0  0  0
 21 23  1  0  0  0
M  END
> <minimizedAffinity>
-9.11139

> <CNNscore>
0.4565462470

> <CNNaffinity>
6.9145660400

> <CNN_VS>
3.1568191051

> <CNNaffinity_variance>
0.2021536082

$$$$
[H]O[C@]1([H])C([H])([H])C2=C([H])C([H])([H])C3([H])C4([H])C([H])([H])C([H])([H])[C@]([H])(O[H])[C@@]4(C([H])([H])[H])C([H])([H])C([H])([H])C3([H])[C@@]2(C([H])([H])[H])C([H])([H])C1([H])[H]


 23 26  0  0  0  0  0  0  0  0999 V2000
    7.3796   49.7577  131.7599 C   0  0  0  0  0  0  0  0  0  0  0  0
    8.4002   48.6846  131.3498 C   0  0  0  0  0  0  0  0  0  0  0  0
    7.7960   47.9050  130.2454 C   0  0  0  0  0  0  0  0  0  0  0  0
    7.5095   46.4481  130.6553 C   0  0  0  0  0  0  0  0  0  0  0  0
    8.8226   45.9060  131.0420 C   0  0  0  0  0  0  0  0  0  0  0  0
    9.2628   46.5259  132.3408 C   0  0  0  0  0  0  0  0  0  0  0  0
   10.7664   46.3600  132.4064 C   0  0  0  0  0  0  0  0  0  0  0  0
   11.2313   45.0919  131.7956 C   0  0  0  0  0  0  0  0  0  0  0  0
   10.4392   44.1947  131.2234 C   0  0  0  0  0  0  0  0  0  0  0  0
   11.0790   42.9928  130.6691 C   0  0  0  0  0  0  0  0  0  0  0  0
   10.3448   42.3976  129.4985 C   0  0  0  0  0  0  0  0  0  0  0  0
    9.6156   41.3078  129.9567 O   0  0  0  0  0  0  0  0  0  0  0  0
    9.3479   43.4105  128.9268 C   0  0  0  0  0  0  0  0  0  0  0  0
    8.3439   43.6344  130.0426 C   0  0  0  0  0  0  0  0  0  0  0  0
    8.9445   44.4264  131.1561 C   0  0  0  0  0  0  0  0  0  0  0  0
    8.2817   43.9131  132.4424 C   0  0  0  0  0  0  0  0  0  0  0  0
    8.8004   47.9119  132.5562 C   0  0  0  0  0  0  0  0  0  0  0  0
    9.8023   48.8103  133.2430 C   0  0  0  0  0  0  0  0  0  0  0  0
   10.1400   49.9258  132.3078 C   0  0  0  0  0  0  0  0  0  0  0  0
    9.6570   49.4290  130.9763 C   0  0  0  0  0  0  0  0  0  0  0  0
    9.2828   50.4947  130.1542 O   0  0  0  0  0  0  0  0  0  0  0  0
   10.2035   40.6486  130.3906 H   0  0  0  0  0  0  0  0  0  0  0  0
    8.6269   50.1383  129.5091 H   0  0  0  0  0  0  0  0  0  0  0  0
  2  1  1  0  0  0
  2  3  1  0  0  0
  3  4  1  0  0  0
  4  5  1  0  0  0
  5  6  1  0  0  0
  6  7  1  0  0  0
  7  8  1  0  0  0
  8  9  2  0  0  0
  9 10  1  0  0  0
 10 11  1  0  0  0
 11 12  1  0  0  0
 11 13  1  0  0  0
 13 14  1  0  0  0
 14 15  1  0  0  0
 15 16  1  0  0  0
  6 17  1  0  0  0
 17 18  1  0  0  0
 18 19  1  0  0  0
 19 20  1  0  0  0
 20 21  1  0  0  0
 17  2  1  0  0  0
 20  2  1  0  0  0
 15  5  1  0  0  0
 15  9  1  0  0  0
 12 22  1  0  0  0
 21 23  1  0  0  0
M  END
> <minimizedAffinity>
-4.89282

> <CNNscore>
0.4341334105

> <CNNaffinity>
7.0609064102

> <CNN_VS>
3.0653753281

> <CNNaffinity_variance>
0.7550863624

$$$$
[H]O[C@]1([H])C([H])([H])C2=C([H])C([H])([H])C3([H])C4([H])C([H])([H])C([H])([H])[C@]([H])(O[H])[C@@]4(C([H])([H])[H])C([H])([H])C([H])([H])C3([H])[C@@]2(C([H])([H])[H])C([H])([H])C1([H])[H]


 23 26  0  0  0  0  0  0  0  0999 V2000
    5.6464   48.0943  129.4769 C   0  0  0  0  0  0  0  0  0  0  0  0
    7.1228   47.7315  129.7003 C   0  0  0  0  0  0  0  0  0  0  0  0
    7.2716   46.2914  129.3902 C   0  0  0  0  0  0  0  0  0  0  0  0
    7.6264   45.4644  130.6404 C   0  0  0  0  0  0  0  0  0  0  0  0
    8.8902   46.0450  131.1234 C   0  0  0  0  0  0  0  0  0  0  0  0
    8.6309   47.4098  131.7024 C   0  0  0  0  0  0  0  0  0  0  0  0
    9.9557   48.1424  131.6813 C   0  0  0  0  0  0  0  0  0  0  0  0
   11.1106   47.2479  131.9328 C   0  0  0  0  0  0  0  0  0  0  0  0
   11.0226   45.9393  132.1317 C   0  0  0  0  0  0  0  0  0  0  0  0
   12.2781   45.2113  132.3661 C   0  0  0  0  0  0  0  0  0  0  0  0
   12.2461   43.7793  131.9060 C   0  0  0  0  0  0  0  0  0  0  0  0
   12.0407   42.9739  133.0190 O   0  0  0  0  0  0  0  0  0  0  0  0
   11.0687   43.5546  130.9521 C   0  0  0  0  0  0  0  0  0  0  0  0
    9.8341   43.8001  131.7998 C   0  0  0  0  0  0  0  0  0  0  0  0
    9.6740   45.2514  132.1098 C   0  0  0  0  0  0  0  0  0  0  0  0
    9.0364   45.3156  133.5050 C   0  0  0  0  0  0  0  0  0  0  0  0
    7.5222   48.1528  131.0698 C   0  0  0  0  0  0  0  0  0  0  0  0
    7.7566   49.6392  130.9352 C   0  0  0  0  0  0  0  0  0  0  0  0
    7.7427   49.9794  129.4802 C   0  0  0  0  0  0  0  0  0  0  0  0
    7.9153   48.6500  128.8049 C   0  0  0  0  0  0  0  0  0  0  0  0
    7.2990   48.6457  127.5512 O   0  0  0  0  0  0  0  0  0  0  0  0
   12.7401   43.1233  133.6950 H   0  0  0  0  0  0  0  0  0  0  0  0
    7.0841   47.7053  127.3442 H   0  0  0  0  0  0  0  0  0  0  0  0
  2  1  1  0  0  0
  2  3  1  0  0  0
  3  4  1  0  0  0
  4  5  1  0  0  0
  5  6  1  0  0  0
  6  7  1  0  0  0
  7  8  1  0  0  0
  8  9  2  0  0  0
  9 10  1  0  0  0
 10 11  1  0  0  0
 11 12  1  0  0  0
 11 13  1  0  0  0
 13 14  1  0  0  0
 14 15  1  0  0  0
 15 16  1  0  0  0
  6 17  1  0  0  0
 17 18  1  0  0  0
 18 19  1  0  0  0
 19 20  1  0  0  0
 20 21  1  0  0  0
 17  2  1  0  0  0
 20  2  1  0  0  0
 15  5  1  0  0  0
 15  9  1  0  0  0
 12 22  1  0  0  0
 21 23  1  0  0  0
M  END
> <minimizedAffinity>
-9.21621

> <CNNscore>
0.4161009192

> <CNNaffinity>
6.9751653671

> <CNN_VS>
2.9023728371

> <CNNaffinity_variance>
0.2160151303

$$$$
[H]O[C@]1([H])C([H])([H])C2=C([H])C([H])([H])C3([H])C4([H])C([H])([H])C([H])([H])[C@]([H])(O[H])[C@@]4(C([H])([H])[H])C([H])([H])C([H])([H])C3([H])[C@@]2(C([H])([H])[H])C([H])([H])C1([H])[H]


 23 26  0  0  0  0  0  0  0  0999 V2000
    7.7554   48.2902  127.8909 C   0  0  0  0  0  0  0  0  0  0  0  0
    8.2582   47.7557  129.2411 C   0  0  0  0  0  0  0  0  0  0  0  0
    9.7356   47.6949  129.1652 C   0  0  0  0  0  0  0  0  0  0  0  0
   10.2580   46.2467  129.2144 C   0  0  0  0  0  0  0  0  0  0  0  0
    9.7619   45.7162  130.4950 C   0  0  0  0  0  0  0  0  0  0  0  0
    8.2719   45.5192  130.4174 C   0  0  0  0  0  0  0  0  0  0  0  0
    7.7681   45.4978  131.8450 C   0  0  0  0  0  0  0  0  0  0  0  0
    8.7256   44.8642  132.7825 C   0  0  0  0  0  0  0  0  0  0  0  0
    9.9131   44.3835  132.4383 C   0  0  0  0  0  0  0  0  0  0  0  0
   10.7303   43.7889  133.5059 C   0  0  0  0  0  0  0  0  0  0  0  0
   12.2123   43.9029  133.2728 C   0  0  0  0  0  0  0  0  0  0  0  0
   12.6682   42.6808  132.7951 O   0  0  0  0  0  0  0  0  0  0  0  0
   12.5009   44.9540  132.1964 C   0  0  0  0  0  0  0  0  0  0  0  0
   11.8714   44.3950  130.9337 C   0  0  0  0  0  0  0  0  0  0  0  0
   10.3817   44.4602  131.0005 C   0  0  0  0  0  0  0  0  0  0  0  0
    9.8719   43.2385  130.2231 C   0  0  0  0  0  0  0  0  0  0  0  0
    7.5632   46.4758  129.5433 C   0  0  0  0  0  0  0  0  0  0  0  0
    6.2104   46.9128  130.0547 C   0  0  0  0  0  0  0  0  0  0  0  0
    6.2549   48.3900  130.2756 C   0  0  0  0  0  0  0  0  0  0  0  0
    7.7232   48.7015  130.2864 C   0  0  0  0  0  0  0  0  0  0  0  0
    7.9587   50.0018  129.8332 O   0  0  0  0  0  0  0  0  0  0  0  0
   12.4537   41.9552  133.4243 H   0  0  0  0  0  0  0  0  0  0  0  0
    8.8795   50.0163  129.4795 H   0  0  0  0  0  0  0  0  0  0  0  0
  2  1  1  0  0  0
  2  3  1  0  0  0
  3  4  1  0  0  0
  4  5  1  0  0  0
  5  6  1  0  0  0
  6  7  1  0  0  0
  7  8  1  0  0  0
  8  9  2  0  0  0
  9 10  1  0  0  0
 10 11  1  0  0  0
 11 12  1  0  0  0
 11 13  1  0  0  0
 13 14  1  0  0  0
 14 15  1  0  0  0
 15 16  1  0  0  0
  6 17  1  0  0  0
 17 18  1  0  0  0
 18 19  1  0  0  0
 19 20  1  0  0  0
 20 21  1  0  0  0
 17  2  1  0  0  0
 20  2  1  0  0  0
 15  5  1  0  0  0
 15  9  1  0  0  0
 12 22  1  0  0  0
 21 23  1  0  0  0
M  END
> <minimizedAffinity>
-8.47142

> <CNNscore>
0.3669794202

> <CNNaffinity>
6.9533410072

> <CNN_VS>
2.5517330170

> <CNNaffinity_variance>
0.2723584771

$$$$
[H]O[C@]1([H])C([H])([H])C2=C([H])C([H])([H])C3([H])C4([H])C([H])([H])C([H])([H])[C@]([H])(O[H])[C@@]4(C([H])([H])[H])C([H])([H])C([H])([H])C3([H])[C@@]2(C([H])([H])[H])C([H])([H])C1([H])[H]


 23 26  0  0  0  0  0  0  0  0999 V2000
    7.3496   49.2858  130.5936 C   0  0  0  0  0  0  0  0  0  0  0  0
    8.5733   48.4160  130.9213 C   0  0  0  0  0  0  0  0  0  0  0  0
    8.6003   47.3097  129.9375 C   0  0  0  0  0  0  0  0  0  0  0  0
    8.3517   45.9412  130.5994 C   0  0  0  0  0  0  0  0  0  0  0  0
    9.4313   45.8067  131.5913 C   0  0  0  0  0  0  0  0  0  0  0  0
    9.1946   46.7630  132.7290 C   0  0  0  0  0  0  0  0  0  0  0  0
   10.5346   46.9647  133.4044 C   0  0  0  0  0  0  0  0  0  0  0  0
   11.3704   45.7405  133.3990 C   0  0  0  0  0  0  0  0  0  0  0  0
   11.0170   44.5877  132.8460 C   0  0  0  0  0  0  0  0  0  0  0  0
   11.9772   43.4783  132.9382 C   0  0  0  0  0  0  0  0  0  0  0  0
   11.8927   42.5040  131.7949 C   0  0  0  0  0  0  0  0  0  0  0  0
   11.1809   41.3926  132.2279 O   0  0  0  0  0  0  0  0  0  0  0  0
   11.1161   43.1215  130.6277 C   0  0  0  0  0  0  0  0  0  0  0  0
    9.7131   43.3311  131.1669 C   0  0  0  0  0  0  0  0  0  0  0  0
    9.6774   44.4502  132.1539 C   0  0  0  0  0  0  0  0  0  0  0  0
    8.6000   44.0718  133.1801 C   0  0  0  0  0  0  0  0  0  0  0  0
    8.5147   48.0193  132.3537 C   0  0  0  0  0  0  0  0  0  0  0  0
    9.0071   49.2449  133.0871 C   0  0  0  0  0  0  0  0  0  0  0  0
    9.5682   50.1932  132.0777 C   0  0  0  0  0  0  0  0  0  0  0  0
    9.7651   49.3375  130.8603 C   0  0  0  0  0  0  0  0  0  0  0  0
    9.6465   50.0975  129.6942 O   0  0  0  0  0  0  0  0  0  0  0  0
   11.6054   40.9894  133.0189 H   0  0  0  0  0  0  0  0  0  0  0  0
    9.3784   49.4757  128.9767 H   0  0  0  0  0  0  0  0  0  0  0  0
  2  1  1  0  0  0
  2  3  1  0  0  0
  3  4  1  0  0  0
  4  5  1  0  0  0
  5  6  1  0  0  0
  6  7  1  0  0  0
  7  8  1  0  0  0
  8  9  2  0  0  0
  9 10  1  0  0  0
 10 11  1  0  0  0
 11 12  1  0  0  0
 11 13  1  0  0  0
 13 14  1  0  0  0
 14 15  1  0  0  0
 15 16  1  0  0  0
  6 17  1  0  0  0
 17 18  1  0  0  0
 18 19  1  0  0  0
 19 20  1  0  0  0
 20 21  1  0  0  0
 17  2  1  0  0  0
 20  2  1  0  0  0
 15  5  1  0  0  0
 15  9  1  0  0  0
 12 22  1  0  0  0
 21 23  1  0  0  0
M  END
> <minimizedAffinity>
-7.48586

> <CNNscore>
0.2854174972

> <CNNaffinity>
7.0041322708

> <CNN_VS>
1.9991018772

> <CNNaffinity_variance>
0.3231264055

$$$$
[H]O[C@]1([H])C([H])([H])C2=C([H])C([H])([H])C3([H])C4([H])C([H])([H])C([H])([H])[C@]([H])(O[H])[C@@]4(C([H])([H])[H])C([H])([H])C([H])([H])C3([H])[C@@]2(C([H])([H])[H])C([H])([H])C1([H])[H]


 23 26  0  0  0  0  0  0  0  0999 V2000
   12.3879   43.7761  133.9765 C   0  0  0  0  0  0  0  0  0  0  0  0
   11.5162   44.3950  132.8727 C   0  0  0  0  0  0  0  0  0  0  0  0
   12.1453   45.6784  132.4858 C   0  0  0  0  0  0  0  0  0  0  0  0
   11.2674   46.8881  132.8581 C   0  0  0  0  0  0  0  0  0  0  0  0
   10.0045   46.6673  132.1343 C   0  0  0  0  0  0  0  0  0  0  0  0
    9.2566   45.5212  132.7604 C   0  0  0  0  0  0  0  0  0  0  0  0
    8.2940   45.0124  131.7083 C   0  0  0  0  0  0  0  0  0  0  0  0
    7.7552   46.0952  130.8513 C   0  0  0  0  0  0  0  0  0  0  0  0
    8.0844   47.3759  130.9569 C   0  0  0  0  0  0  0  0  0  0  0  0
    7.4477   48.3109  130.0180 C   0  0  0  0  0  0  0  0  0  0  0  0
    8.2892   49.5153  129.6940 C   0  0  0  0  0  0  0  0  0  0  0  0
    7.8204   50.5835  130.4481 O   0  0  0  0  0  0  0  0  0  0  0  0
    9.7457   49.2698  130.1002 C   0  0  0  0  0  0  0  0  0  0  0  0
    9.7047   49.1215  131.6100 C   0  0  0  0  0  0  0  0  0  0  0  0
    9.0782   47.8261  132.0067 C   0  0  0  0  0  0  0  0  0  0  0  0
    8.3474   48.0998  133.3289 C   0  0  0  0  0  0  0  0  0  0  0  0
   10.1104   44.4716  133.3528 C   0  0  0  0  0  0  0  0  0  0  0  0
    9.5921   43.0637  133.1750 C   0  0  0  0  0  0  0  0  0  0  0  0
   10.5973   42.2985  132.3769 C   0  0  0  0  0  0  0  0  0  0  0  0
   11.4552   43.3697  131.7689 C   0  0  0  0  0  0  0  0  0  0  0  0
   12.7556   42.9049  131.5579 O   0  0  0  0  0  0  0  0  0  0  0  0
    6.8665   50.7477  130.2703 H   0  0  0  0  0  0  0  0  0  0  0  0
   13.3434   43.6973  131.5583 H   0  0  0  0  0  0  0  0  0  0  0  0
  2  1  1  0  0  0
  2  3  1  0  0  0
  3  4  1  0  0  0
  4  5  1  0  0  0
  5  6  1  0  0  0
  6  7  1  0  0  0
  7  8  1  0  0  0
  8  9  2  0  0  0
  9 10  1  0  0  0
 10 11  1  0  0  0
 11 12  1  0  0  0
 11 13  1  0  0  0
 13 14  1  0  0  0
 14 15  1  0  0  0
 15 16  1  0  0  0
  6 17  1  0  0  0
 17 18  1  0  0  0
 18 19  1  0  0  0
 19 20  1  0  0  0
 20 21  1  0  0  0
 17  2  1  0  0  0
 20  2  1  0  0  0
 15  5  1  0  0  0
 15  9  1  0  0  0
 12 22  1  0  0  0
 21 23  1  0  0  0
M  END
> <minimizedAffinity>
-8.76225

> <CNNscore>
0.2127405405

> <CNNaffinity>
6.8221144676

> <CNN_VS>
1.4513403177

> <CNNaffinity_variance>
0.1339502335

$$$$
[H]O[C@]1([H])C([H])([H])C2=C([H])C([H])([H])C3([H])C4([H])C([H])([H])C([H])([H])[C@]([H])(O[H])[C@@]4(C([H])([H])[H])C([H])([H])C([H])([H])C3([H])[C@@]2(C([H])([H])[H])C([H])([H])C1([H])[H]


 23 26  0  0  0  0  0  0  0  0999 V2000
    9.7892   42.5819  128.5951 C   0  0  0  0  0  0  0  0  0  0  0  0
    9.5001   43.6449  129.6664 C   0  0  0  0  0  0  0  0  0  0  0  0
    8.4830   44.5644  129.1076 C   0  0  0  0  0  0  0  0  0  0  0  0
    9.0450   45.9809  128.8833 C   0  0  0  0  0  0  0  0  0  0  0  0
    9.4926   46.4182  130.2160 C   0  0  0  0  0  0  0  0  0  0  0  0
   10.7195   45.6441  130.6165 C   0  0  0  0  0  0  0  0  0  0  0  0
   10.8083   45.7332  132.1254 C   0  0  0  0  0  0  0  0  0  0  0  0
   10.3383   47.0366  132.6522 C   0  0  0  0  0  0  0  0  0  0  0  0
    9.8622   48.0249  131.9063 C   0  0  0  0  0  0  0  0  0  0  0  0
    9.4419   49.2485  132.6043 C   0  0  0  0  0  0  0  0  0  0  0  0
    8.3387   49.9979  131.9079 C   0  0  0  0  0  0  0  0  0  0  0  0
    8.9079   51.0649  131.2244 O   0  0  0  0  0  0  0  0  0  0  0  0
    7.6582   49.0983  130.8715 C   0  0  0  0  0  0  0  0  0  0  0  0
    8.7397   48.8028  129.8487 C   0  0  0  0  0  0  0  0  0  0  0  0
    9.7646   47.8701  130.4033 C   0  0  0  0  0  0  0  0  0  0  0  0
   11.0957   48.2732  129.7531 C   0  0  0  0  0  0  0  0  0  0  0  0
   10.7838   44.2655  130.0903 C   0  0  0  0  0  0  0  0  0  0  0  0
   11.3746   43.2543  131.0448 C   0  0  0  0  0  0  0  0  0  0  0  0
   10.3269   42.2306  131.3402 C   0  0  0  0  0  0  0  0  0  0  0  0
    9.0542   42.8879  130.8917 C   0  0  0  0  0  0  0  0  0  0  0  0
    8.1215   41.9340  130.4772 O   0  0  0  0  0  0  0  0  0  0  0  0
    9.4120   51.6465  131.8376 H   0  0  0  0  0  0  0  0  0  0  0  0
    7.5156   42.3867  129.8437 H   0  0  0  0  0  0  0  0  0  0  0  0
  2  1  1  0  0  0
  2  3  1  0  0  0
  3  4  1  0  0  0
  4  5  1  0  0  0
  5  6  1  0  0  0
  6  7  1  0  0  0
  7  8  1  0  0  0
  8  9  2  0  0  0
  9 10  1  0  0  0
 10 11  1  0  0  0
 11 12  1  0  0  0
 11 13  1  0  0  0
 13 14  1  0  0  0
 14 15  1  0  0  0
 15 16  1  0  0  0
  6 17  1  0  0  0
 17 18  1  0  0  0
 18 19  1  0  0  0
 19 20  1  0  0  0
 20 21  1  0  0  0
 17  2  1  0  0  0
 20  2  1  0  0  0
 15  5  1  0  0  0
 15  9  1  0  0  0
 12 22  1  0  0  0
 21 23  1  0  0  0
M  END
> <minimizedAffinity>
-4.86702

> <CNNscore>
0.2020123750

> <CNNaffinity>
6.6539092064

> <CNN_VS>
1.3441720009

> <CNNaffinity_variance>
0.2258491218

$$$$
[H]Oc1c([H])c([H])c2c(c1[H])C([H])([H])C([H])([H])C([H])([H])C(c1c([H])c([H])c([H])c([H])c1[H])=C2c1c([H])c([H])c(OC([H])([H])C([H])([H])[H])c([H])c1[H]


 28 31  0  0  0  0  0  0  0  0999 V2000
    9.4734   47.3956  131.2021 C   0  0  0  0  0  0  0  0  0  0  0  0
    9.9391   47.3383  132.4161 C   0  0  0  0  0  0  0  0  0  0  0  0
    9.9472   48.3523  133.5533 C   0  0  0  0  0  0  0  0  0  0  0  0
    9.1331   49.5509  133.3567 C   0  0  0  0  0  0  0  0  0  0  0  0
    9.6112   50.4094  132.1769 C   0  0  0  0  0  0  0  0  0  0  0  0
    8.8361   49.8877  130.9838 C   0  0  0  0  0  0  0  0  0  0  0  0
    8.1345   50.8250  130.3024 C   0  0  0  0  0  0  0  0  0  0  0  0
    7.3275   50.4623  129.2133 C   0  0  0  0  0  0  0  0  0  0  0  0
    6.6164   51.4506  128.5303 O   0  0  0  0  0  0  0  0  0  0  0  0
    7.2472   49.1420  128.8335 C   0  0  0  0  0  0  0  0  0  0  0  0
    7.9751   48.1857  129.5426 C   0  0  0  0  0  0  0  0  0  0  0  0
    8.7599   48.5661  130.6044 C   0  0  0  0  0  0  0  0  0  0  0  0
    6.6705   52.4076  128.8007 H   0  0  0  0  0  0  0  0  0  0  0  0
    9.5381   43.9830  128.7125 C   0  0  0  0  0  0  0  0  0  0  0  0
   10.5169   44.9504  128.5786 C   0  0  0  0  0  0  0  0  0  0  0  0
   10.5545   46.0755  129.3589 C   0  0  0  0  0  0  0  0  0  0  0  0
    9.5970   46.2609  130.3064 C   0  0  0  0  0  0  0  0  0  0  0  0
    8.5913   45.2810  130.4546 C   0  0  0  0  0  0  0  0  0  0  0  0
    8.5766   44.1729  129.6675 C   0  0  0  0  0  0  0  0  0  0  0  0
    9.4925   42.8504  127.9327 O   0  0  0  0  0  0  0  0  0  0  0  0
   10.0697   41.7763  129.9312 C   0  0  0  0  0  0  0  0  0  0  0  0
    9.8784   41.5816  128.4207 C   0  0  0  0  0  0  0  0  0  0  0  0
   10.6600   46.1362  132.8057 C   0  0  0  0  0  0  0  0  0  0  0  0
   11.8916   45.8139  132.3467 C   0  0  0  0  0  0  0  0  0  0  0  0
   12.5443   44.6361  132.7586 C   0  0  0  0  0  0  0  0  0  0  0  0
   11.9356   43.7806  133.6473 C   0  0  0  0  0  0  0  0  0  0  0  0
   10.6980   44.0925  134.1177 C   0  0  0  0  0  0  0  0  0  0  0  0
   10.0638   45.2468  133.7102 C   0  0  0  0  0  0  0  0  0  0  0  0
 21 22  1  0  0  0
 22 20  1  0  0  0
 20 14  1  0  0  0
 14 15  2  0  0  0
 15 16  1  0  0  0
 16 17  2  0  0  0
 17 18  1  0  0  0
 18 19  2  0  0  0
 17  1  1  0  0  0
  1  2  2  0  0  0
  2  3  1  0  0  0
  3  4  1  0  0  0
  4  5  1  0  0  0
  5  6  1  0  0  0
  6  7  2  0  0  0
  7  8  1  0  0  0
  8  9  1  0  0  0
  8 10  2  0  0  0
 10 11  1  0  0  0
 11 12  2  0  0  0
  2 23  1  0  0  0
 23 24  2  0  0  0
 24 25  1  0  0  0
 25 26  2  0  0  0
 26 27  1  0  0  0
 27 28  2  0  0  0
 19 14  1  0  0  0
 12  1  1  0  0  0
 28 23  1  0  0  0
 12  6  1  0  0  0
  9 13  1  0  0  0
M  END
> <minimizedAffinity>
-5.36172

> <CNNscore>
0.5498293042

> <CNNaffinity>
8.0392093658

> <CNN_VS>
4.4201927185

> <CNNaffinity_variance>
1.2303359509

$$$$
[H]Oc1c([H])c([H])c2c(c1[H])C([H])([H])C([H])([H])C([H])([H])C(c1c([H])c([H])c([H])c([H])c1[H])=C2c1c([H])c([H])c(OC([H])([H])C([H])([H])[H])c([H])c1[H]


 28 31  0  0  0  0  0  0  0  0999 V2000
    9.3591   47.1804  131.8233 C   0  0  0  0  0  0  0  0  0  0  0  0
    9.9867   47.3065  132.9565 C   0  0  0  0  0  0  0  0  0  0  0  0
   10.2119   48.5060  133.8686 C   0  0  0  0  0  0  0  0  0  0  0  0
    9.4474   49.7116  133.5520 C   0  0  0  0  0  0  0  0  0  0  0  0
    9.8030   50.2995  132.1789 C   0  0  0  0  0  0  0  0  0  0  0  0
    8.8398   49.6352  131.2160 C   0  0  0  0  0  0  0  0  0  0  0  0
    8.1037   50.4874  130.4631 C   0  0  0  0  0  0  0  0  0  0  0  0
    7.1325   50.0004  129.5751 C   0  0  0  0  0  0  0  0  0  0  0  0
    6.3898   50.9032  128.8121 O   0  0  0  0  0  0  0  0  0  0  0  0
    6.9250   48.6442  129.4678 C   0  0  0  0  0  0  0  0  0  0  0  0
    7.6898   47.7762  130.2481 C   0  0  0  0  0  0  0  0  0  0  0  0
    8.6363   48.2774  131.1089 C   0  0  0  0  0  0  0  0  0  0  0  0
    6.5354   51.8857  128.8855 H   0  0  0  0  0  0  0  0  0  0  0  0
    9.4556   43.5144  129.7260 C   0  0  0  0  0  0  0  0  0  0  0  0
    8.4564   43.7505  130.6521 C   0  0  0  0  0  0  0  0  0  0  0  0
    8.3669   44.9201  131.3594 C   0  0  0  0  0  0  0  0  0  0  0  0
    9.2911   45.8957  131.1525 C   0  0  0  0  0  0  0  0  0  0  0  0
   10.3170   45.6684  130.2094 C   0  0  0  0  0  0  0  0  0  0  0  0
   10.3835   44.4988  129.5202 C   0  0  0  0  0  0  0  0  0  0  0  0
    9.5533   42.3426  129.0117 O   0  0  0  0  0  0  0  0  0  0  0  0
    9.1650   43.5276  127.0304 C   0  0  0  0  0  0  0  0  0  0  0  0
    9.8912   42.3203  127.6398 C   0  0  0  0  0  0  0  0  0  0  0  0
   10.6858   46.1401  133.4736 C   0  0  0  0  0  0  0  0  0  0  0  0
   10.1923   45.3334  134.4415 C   0  0  0  0  0  0  0  0  0  0  0  0
   10.9126   44.2155  134.9044 C   0  0  0  0  0  0  0  0  0  0  0  0
   12.1465   43.9176  134.3742 C   0  0  0  0  0  0  0  0  0  0  0  0
   12.6544   44.7193  133.3998 C   0  0  0  0  0  0  0  0  0  0  0  0
   11.9447   45.8128  132.9512 C   0  0  0  0  0  0  0  0  0  0  0  0
 21 22  1  0  0  0
 22 20  1  0  0  0
 20 14  1  0  0  0
 14 15  2  0  0  0
 15 16  1  0  0  0
 16 17  2  0  0  0
 17 18  1  0  0  0
 18 19  2  0  0  0
 17  1  1  0  0  0
  1  2  2  0  0  0
  2  3  1  0  0  0
  3  4  1  0  0  0
  4  5  1  0  0  0
  5  6  1  0  0  0
  6  7  2  0  0  0
  7  8  1  0  0  0
  8  9  1  0  0  0
  8 10  2  0  0  0
 10 11  1  0  0  0
 11 12  2  0  0  0
  2 23  1  0  0  0
 23 24  2  0  0  0
 24 25  1  0  0  0
 25 26  2  0  0  0
 26 27  1  0  0  0
 27 28  2  0  0  0
 19 14  1  0  0  0
 12  1  1  0  0  0
 28 23  1  0  0  0
 12  6  1  0  0  0
  9 13  1  0  0  0
M  END
> <minimizedAffinity>
-5.64341

> <CNNscore>
0.5255495310

> <CNNaffinity>
7.9275388718

> <CNN_VS>
4.1663141251

> <CNNaffinity_variance>
0.8482500315

$$$$
[H]Oc1c([H])c([H])c2c(c1[H])C([H])([H])C([H])([H])C([H])([H])C(c1c([H])c([H])c([H])c([H])c1[H])=C2c1c([H])c([H])c(OC([H])([H])C([H])([H])[H])c([H])c1[H]


 28 31  0  0  0  0  0  0  0  0999 V2000
    8.7949   46.7363  131.1913 C   0  0  0  0  0  0  0  0  0  0  0  0
    8.6384   45.5444  130.6923 C   0  0  0  0  0  0  0  0  0  0  0  0
    7.8315   45.0349  129.5046 C   0  0  0  0  0  0  0  0  0  0  0  0
    7.2640   46.0544  128.6233 C   0  0  0  0  0  0  0  0  0  0  0  0
    6.2363   46.9491  129.3310 C   0  0  0  0  0  0  0  0  0  0  0  0
    7.0471   48.1074  129.8762 C   0  0  0  0  0  0  0  0  0  0  0  0
    6.6172   49.3353  129.4986 C   0  0  0  0  0  0  0  0  0  0  0  0
    7.3164   50.4882  129.8868 C   0  0  0  0  0  0  0  0  0  0  0  0
    6.8489   51.7400  129.4825 O   0  0  0  0  0  0  0  0  0  0  0  0
    8.4501   50.3712  130.6582 C   0  0  0  0  0  0  0  0  0  0  0  0
    8.8828   49.1012  131.0416 C   0  0  0  0  0  0  0  0  0  0  0  0
    8.1796   47.9874  130.6504 C   0  0  0  0  0  0  0  0  0  0  0  0
    6.0293   51.8308  128.9241 H   0  0  0  0  0  0  0  0  0  0  0  0
   11.5234   47.3205  134.3633 C   0  0  0  0  0  0  0  0  0  0  0  0
   10.1682   47.4845  134.5832 C   0  0  0  0  0  0  0  0  0  0  0  0
    9.2334   47.3038  133.5984 C   0  0  0  0  0  0  0  0  0  0  0  0
    9.6409   46.9494  132.3506 C   0  0  0  0  0  0  0  0  0  0  0  0
   11.0219   46.7780  132.1117 C   0  0  0  0  0  0  0  0  0  0  0  0
   11.9295   46.9632  133.1065 C   0  0  0  0  0  0  0  0  0  0  0  0
   12.4689   47.5005  135.3464 O   0  0  0  0  0  0  0  0  0  0  0  0
   14.1553   48.5685  136.5697 C   0  0  0  0  0  0  0  0  0  0  0  0
   12.8346   48.7818  135.8171 C   0  0  0  0  0  0  0  0  0  0  0  0
    9.2677   44.4335  131.3898 C   0  0  0  0  0  0  0  0  0  0  0  0
    8.7975   43.9044  132.5432 C   0  0  0  0  0  0  0  0  0  0  0  0
    9.4471   42.8271  133.1759 C   0  0  0  0  0  0  0  0  0  0  0  0
   10.5854   42.2843  132.6263 C   0  0  0  0  0  0  0  0  0  0  0  0
   11.0685   42.8054  131.4666 C   0  0  0  0  0  0  0  0  0  0  0  0
   10.4285   43.8607  130.8521 C   0  0  0  0  0  0  0  0  0  0  0  0
 21 22  1  0  0  0
 22 20  1  0  0  0
 20 14  1  0  0  0
 14 15  2  0  0  0
 15 16  1  0  0  0
 16 17  2  0  0  0
 17 18  1  0  0  0
 18 19  2  0  0  0
 17  1  1  0  0  0
  1  2  2  0  0  0
  2  3  1  0  0  0
  3  4  1  0  0  0
  4  5  1  0  0  0
  5  6  1  0  0  0
  6  7  2  0  0  0
  7  8  1  0  0  0
  8  9  1  0  0  0
  8 10  2  0  0  0
 10 11  1  0  0  0
 11 12  2  0  0  0
  2 23  1  0  0  0
 23 24  2  0  0  0
 24 25  1  0  0  0
 25 26  2  0  0  0
 26 27  1  0  0  0
 27 28  2  0  0  0
 19 14  1  0  0  0
 12  1  1  0  0  0
 28 23  1  0  0  0
 12  6  1  0  0  0
  9 13  1  0  0  0
M  END
> <minimizedAffinity>
0.15409

> <CNNscore>
0.5240878463

> <CNNaffinity>
8.0145750046

> <CNN_VS>
4.2003412247

> <CNNaffinity_variance>
2.0105395317

$$$$
[H]Oc1c([H])c([H])c2c(c1[H])C([H])([H])C([H])([H])C([H])([H])C(c1c([H])c([H])c([H])c([H])c1[H])=C2c1c([H])c([H])c(OC([H])([H])C([H])([H])[H])c([H])c1[H]


 28 31  0  0  0  0  0  0  0  0999 V2000
    8.9355   46.7066  131.2271 C   0  0  0  0  0  0  0  0  0  0  0  0
   10.0135   47.2736  131.6858 C   0  0  0  0  0  0  0  0  0  0  0  0
   10.5620   48.6876  131.5401 C   0  0  0  0  0  0  0  0  0  0  0  0
    9.6603   49.6728  130.9448 C   0  0  0  0  0  0  0  0  0  0  0  0
    9.2860   49.3381  129.4938 C   0  0  0  0  0  0  0  0  0  0  0  0
    8.0290   48.4991  129.6055 C   0  0  0  0  0  0  0  0  0  0  0  0
    6.9699   48.9569  128.8958 C   0  0  0  0  0  0  0  0  0  0  0  0
    5.7295   48.3042  128.9612 C   0  0  0  0  0  0  0  0  0  0  0  0
    4.6564   48.7992  128.2181 O   0  0  0  0  0  0  0  0  0  0  0  0
    5.5867   47.1885  129.7542 C   0  0  0  0  0  0  0  0  0  0  0  0
    6.6850   46.7260  130.4802 C   0  0  0  0  0  0  0  0  0  0  0  0
    7.8899   47.3814  130.3978 C   0  0  0  0  0  0  0  0  0  0  0  0
    4.7538   49.6063  127.6426 H   0  0  0  0  0  0  0  0  0  0  0  0
    7.9974   42.7587  132.4025 C   0  0  0  0  0  0  0  0  0  0  0  0
    8.3467   43.0208  131.0906 C   0  0  0  0  0  0  0  0  0  0  0  0
    8.6674   44.2771  130.6490 C   0  0  0  0  0  0  0  0  0  0  0  0
    8.6448   45.3167  131.5251 C   0  0  0  0  0  0  0  0  0  0  0  0
    8.2902   45.0637  132.8682 C   0  0  0  0  0  0  0  0  0  0  0  0
    7.9765   43.8073  133.2813 C   0  0  0  0  0  0  0  0  0  0  0  0
    7.6735   41.5002  132.8544 O   0  0  0  0  0  0  0  0  0  0  0  0
    6.4124   40.8034  134.6997 C   0  0  0  0  0  0  0  0  0  0  0  0
    6.3523   41.1399  133.2032 C   0  0  0  0  0  0  0  0  0  0  0  0
   10.9497   46.4421  132.4266 C   0  0  0  0  0  0  0  0  0  0  0  0
   11.8490   45.6162  131.8431 C   0  0  0  0  0  0  0  0  0  0  0  0
   12.7333   44.8334  132.6099 C   0  0  0  0  0  0  0  0  0  0  0  0
   12.7006   44.8949  133.9838 C   0  0  0  0  0  0  0  0  0  0  0  0
   11.8025   45.7216  134.5837 C   0  0  0  0  0  0  0  0  0  0  0  0
   10.9387   46.4851  133.8276 C   0  0  0  0  0  0  0  0  0  0  0  0
 21 22  1  0  0  0
 22 20  1  0  0  0
 20 14  1  0  0  0
 14 15  2  0  0  0
 15 16  1  0  0  0
 16 17  2  0  0  0
 17 18  1  0  0  0
 18 19  2  0  0  0
 17  1  1  0  0  0
  1  2  2  0  0  0
  2  3  1  0  0  0
  3  4  1  0  0  0
  4  5  1  0  0  0
  5  6  1  0  0  0
  6  7  2  0  0  0
  7  8  1  0  0  0
  8  9  1  0  0  0
  8 10  2  0  0  0
 10 11  1  0  0  0
 11 12  2  0  0  0
  2 23  1  0  0  0
 23 24  2  0  0  0
 24 25  1  0  0  0
 25 26  2  0  0  0
 26 27  1  0  0  0
 27 28  2  0  0  0
 19 14  1  0  0  0
 12  1  1  0  0  0
 28 23  1  0  0  0
 12  6  1  0  0  0
  9 13  1  0  0  0
M  END
> <minimizedAffinity>
0.55985

> <CNNscore>
0.5049129725

> <CNNaffinity>
7.6562919617

> <CNN_VS>
3.8657610416

> <CNNaffinity_variance>
1.5308065414

$$$$
[H]Oc1c([H])c([H])c2c(c1[H])C([H])([H])C([H])([H])C([H])([H])C(c1c([H])c([H])c([H])c([H])c1[H])=C2c1c([H])c([H])c(OC([H])([H])C([H])([H])[H])c([H])c1[H]


 28 31  0  0  0  0  0  0  0  0999 V2000
    9.4080   46.7957  130.8150 C   0  0  0  0  0  0  0  0  0  0  0  0
    9.8670   45.8716  130.0217 C   0  0  0  0  0  0  0  0  0  0  0  0
    9.8258   45.7167  128.5065 C   0  0  0  0  0  0  0  0  0  0  0  0
    9.3637   46.8796  127.7500 C   0  0  0  0  0  0  0  0  0  0  0  0
    7.9067   47.2518  128.0600 C   0  0  0  0  0  0  0  0  0  0  0  0
    7.9984   48.2400  129.2052 C   0  0  0  0  0  0  0  0  0  0  0  0
    7.3817   49.4265  128.9886 C   0  0  0  0  0  0  0  0  0  0  0  0
    7.4436   50.4497  129.9468 C   0  0  0  0  0  0  0  0  0  0  0  0
    6.7977   51.6616  129.6955 O   0  0  0  0  0  0  0  0  0  0  0  0
    8.1377   50.2468  131.1177 C   0  0  0  0  0  0  0  0  0  0  0  0
    8.7683   49.0202  131.3298 C   0  0  0  0  0  0  0  0  0  0  0  0
    8.6914   48.0331  130.3771 C   0  0  0  0  0  0  0  0  0  0  0  0
    6.2941   51.8142  128.8499 H   0  0  0  0  0  0  0  0  0  0  0  0
    9.6791   46.3018  135.0020 C   0  0  0  0  0  0  0  0  0  0  0  0
   10.6487   47.0234  134.3306 C   0  0  0  0  0  0  0  0  0  0  0  0
   10.6141   47.2242  132.9761 C   0  0  0  0  0  0  0  0  0  0  0  0
    9.5913   46.6980  132.2510 C   0  0  0  0  0  0  0  0  0  0  0  0
    8.5937   45.9590  132.9234 C   0  0  0  0  0  0  0  0  0  0  0  0
    8.6511   45.7743  134.2689 C   0  0  0  0  0  0  0  0  0  0  0  0
    9.7064   46.0948  136.3619 O   0  0  0  0  0  0  0  0  0  0  0  0
   10.8850   44.1603  135.7709 C   0  0  0  0  0  0  0  0  0  0  0  0
   10.2266   44.9128  136.9356 C   0  0  0  0  0  0  0  0  0  0  0  0
   10.4862   44.7053  130.6323 C   0  0  0  0  0  0  0  0  0  0  0  0
   11.7733   44.6664  131.0486 C   0  0  0  0  0  0  0  0  0  0  0  0
   12.3214   43.5093  131.6346 C   0  0  0  0  0  0  0  0  0  0  0  0
   11.5493   42.3826  131.7984 C   0  0  0  0  0  0  0  0  0  0  0  0
   10.2535   42.4078  131.3855 C   0  0  0  0  0  0  0  0  0  0  0  0
    9.7227   43.5435  130.8118 C   0  0  0  0  0  0  0  0  0  0  0  0
 21 22  1  0  0  0
 22 20  1  0  0  0
 20 14  1  0  0  0
 14 15  2  0  0  0
 15 16  1  0  0  0
 16 17  2  0  0  0
 17 18  1  0  0  0
 18 19  2  0  0  0
 17  1  1  0  0  0
  1  2  2  0  0  0
  2  3  1  0  0  0
  3  4  1  0  0  0
  4  5  1  0  0  0
  5  6  1  0  0  0
  6  7  2  0  0  0
  7  8  1  0  0  0
  8  9  1  0  0  0
  8 10  2  0  0  0
 10 11  1  0  0  0
 11 12  2  0  0  0
  2 23  1  0  0  0
 23 24  2  0  0  0
 24 25  1  0  0  0
 25 26  2  0  0  0
 26 27  1  0  0  0
 27 28  2  0  0  0
 19 14  1  0  0  0
 12  1  1  0  0  0
 28 23  1  0  0  0
 12  6  1  0  0  0
  9 13  1  0  0  0
M  END
> <minimizedAffinity>
-2.76831

> <CNNscore>
0.4656426311

> <CNNaffinity>
7.6664886475

> <CNN_VS>
3.5698440075

> <CNNaffinity_variance>
0.5681614876

$$$$
[H]Oc1c([H])c([H])c2c(c1[H])C([H])([H])C([H])([H])C([H])([H])C(c1c([H])c([H])c([H])c([H])c1[H])=C2c1c([H])c([H])c(OC([H])([H])C([H])([H])[H])c([H])c1[H]


 28 31  0  0  0  0  0  0  0  0999 V2000
    9.4005   46.6063  130.7283 C   0  0  0  0  0  0  0  0  0  0  0  0
    9.8940   45.6667  129.9749 C   0  0  0  0  0  0  0  0  0  0  0  0
    9.9239   45.4835  128.4626 C   0  0  0  0  0  0  0  0  0  0  0  0
    9.5012   46.6329  127.6636 C   0  0  0  0  0  0  0  0  0  0  0  0
    8.0323   47.0136  127.8974 C   0  0  0  0  0  0  0  0  0  0  0  0
    8.0726   48.0228  129.0270 C   0  0  0  0  0  0  0  0  0  0  0  0
    7.4701   49.2062  128.7595 C   0  0  0  0  0  0  0  0  0  0  0  0
    7.4894   50.2471  129.7003 C   0  0  0  0  0  0  0  0  0  0  0  0
    6.8595   51.4552  129.3963 O   0  0  0  0  0  0  0  0  0  0  0  0
    8.1269   50.0649  130.9063 C   0  0  0  0  0  0  0  0  0  0  0  0
    8.7434   48.8413  131.1707 C   0  0  0  0  0  0  0  0  0  0  0  0
    8.7088   47.8366  130.2340 C   0  0  0  0  0  0  0  0  0  0  0  0
    6.3968   51.5930  128.5252 H   0  0  0  0  0  0  0  0  0  0  0  0
    9.4422   46.2351  134.9364 C   0  0  0  0  0  0  0  0  0  0  0  0
   10.5389   46.7649  134.2821 C   0  0  0  0  0  0  0  0  0  0  0  0
   10.5844   46.9169  132.9216 C   0  0  0  0  0  0  0  0  0  0  0  0
    9.5156   46.5352  132.1729 C   0  0  0  0  0  0  0  0  0  0  0  0
    8.3884   45.9928  132.8277 C   0  0  0  0  0  0  0  0  0  0  0  0
    8.3682   45.8527  134.1796 C   0  0  0  0  0  0  0  0  0  0  0  0
    9.3882   46.0785  136.3022 O   0  0  0  0  0  0  0  0  0  0  0  0
    8.4200   48.1670  136.7282 C   0  0  0  0  0  0  0  0  0  0  0  0
    9.4919   47.1711  137.1924 C   0  0  0  0  0  0  0  0  0  0  0  0
   10.4804   44.5108  130.6357 C   0  0  0  0  0  0  0  0  0  0  0  0
   11.7755   44.4399  131.0215 C   0  0  0  0  0  0  0  0  0  0  0  0
   12.2907   43.2949  131.6590 C   0  0  0  0  0  0  0  0  0  0  0  0
   11.4771   42.2135  131.9060 C   0  0  0  0  0  0  0  0  0  0  0  0
   10.1728   42.2714  131.5245 C   0  0  0  0  0  0  0  0  0  0  0  0
    9.6743   43.3949  130.9001 C   0  0  0  0  0  0  0  0  0  0  0  0
 21 22  1  0  0  0
 22 20  1  0  0  0
 20 14  1  0  0  0
 14 15  2  0  0  0
 15 16  1  0  0  0
 16 17  2  0  0  0
 17 18  1  0  0  0
 18 19  2  0  0  0
 17  1  1  0  0  0
  1  2  2  0  0  0
  2  3  1  0  0  0
  3  4  1  0  0  0
  4  5  1  0  0  0
  5  6  1  0  0  0
  6  7  2  0  0  0
  7  8  1  0  0  0
  8  9  1  0  0  0
  8 10  2  0  0  0
 10 11  1  0  0  0
 11 12  2  0  0  0
  2 23  1  0  0  0
 23 24  2  0  0  0
 24 25  1  0  0  0
 25 26  2  0  0  0
 26 27  1  0  0  0
 27 28  2  0  0  0
 19 14  1  0  0  0
 12  1  1  0  0  0
 28 23  1  0  0  0
 12  6  1  0  0  0
  9 13  1  0  0  0
M  END
> <minimizedAffinity>
0.86772

> <CNNscore>
0.4383612871

> <CNNaffinity>
7.7723526955

> <CNN_VS>
3.4070985317

> <CNNaffinity_variance>
1.0203111172

$$$$
[H]Oc1c([H])c([H])c2c(c1[H])C([H])([H])C([H])([H])C([H])([H])C(c1c([H])c([H])c([H])c([H])c1[H])=C2c1c([H])c([H])c(OC([H])([H])C([H])([H])[H])c([H])c1[H]


 28 31  0  0  0  0  0  0  0  0999 V2000
    8.1450   46.9723  130.5493 C   0  0  0  0  0  0  0  0  0  0  0  0
    7.6932   45.9536  129.8770 C   0  0  0  0  0  0  0  0  0  0  0  0
    6.6497   45.8437  128.7723 C   0  0  0  0  0  0  0  0  0  0  0  0
    6.1784   47.1041  128.2002 C   0  0  0  0  0  0  0  0  0  0  0  0
    5.4501   47.9876  129.2233 C   0  0  0  0  0  0  0  0  0  0  0  0
    6.5372   48.8567  129.8225 C   0  0  0  0  0  0  0  0  0  0  0  0
    6.3081   50.1900  129.7525 C   0  0  0  0  0  0  0  0  0  0  0  0
    7.2647   51.1051  130.2178 C   0  0  0  0  0  0  0  0  0  0  0  0
    7.0002   52.4731  130.1328 O   0  0  0  0  0  0  0  0  0  0  0  0
    8.4473   50.6444  130.7501 C   0  0  0  0  0  0  0  0  0  0  0  0
    8.6715   49.2688  130.8175 C   0  0  0  0  0  0  0  0  0  0  0  0
    7.7184   48.3927  130.3571 C   0  0  0  0  0  0  0  0  0  0  0  0
    6.1463   52.8124  129.7484 H   0  0  0  0  0  0  0  0  0  0  0  0
   11.3283   46.3799  133.2630 C   0  0  0  0  0  0  0  0  0  0  0  0
   10.1189   46.8713  133.7186 C   0  0  0  0  0  0  0  0  0  0  0  0
    9.0476   47.0794  132.8908 C   0  0  0  0  0  0  0  0  0  0  0  0
    9.1649   46.7960  131.5662 C   0  0  0  0  0  0  0  0  0  0  0  0
   10.3941   46.2931  131.0869 C   0  0  0  0  0  0  0  0  0  0  0  0
   11.4422   46.0953  131.9294 C   0  0  0  0  0  0  0  0  0  0  0  0
   12.4094   46.1684  134.0873 O   0  0  0  0  0  0  0  0  0  0  0  0
   11.7571   43.9544  134.4789 C   0  0  0  0  0  0  0  0  0  0  0  0
   12.9637   44.8847  134.2915 C   0  0  0  0  0  0  0  0  0  0  0  0
    8.1819   44.6332  130.2439 C   0  0  0  0  0  0  0  0  0  0  0  0
    8.0023   44.0753  131.4635 C   0  0  0  0  0  0  0  0  0  0  0  0
    8.4967   42.7916  131.7644 C   0  0  0  0  0  0  0  0  0  0  0  0
    9.1790   42.0706  130.8120 C   0  0  0  0  0  0  0  0  0  0  0  0
    9.3659   42.6187  129.5813 C   0  0  0  0  0  0  0  0  0  0  0  0
    8.8801   43.8763  129.2929 C   0  0  0  0  0  0  0  0  0  0  0  0
 21 22  1  0  0  0
 22 20  1  0  0  0
 20 14  1  0  0  0
 14 15  2  0  0  0
 15 16  1  0  0  0
 16 17  2  0  0  0
 17 18  1  0  0  0
 18 19  2  0  0  0
 17  1  1  0  0  0
  1  2  2  0  0  0
  2  3  1  0  0  0
  3  4  1  0  0  0
  4  5  1  0  0  0
  5  6  1  0  0  0
  6  7  2  0  0  0
  7  8  1  0  0  0
  8  9  1  0  0  0
  8 10  2  0  0  0
 10 11  1  0  0  0
 11 12  2  0  0  0
  2 23  1  0  0  0
 23 24  2  0  0  0
 24 25  1  0  0  0
 25 26  2  0  0  0
 26 27  1  0  0  0
 27 28  2  0  0  0
 19 14  1  0  0  0
 12  1  1  0  0  0
 28 23  1  0  0  0
 12  6  1  0  0  0
  9 13  1  0  0  0
M  END
> <minimizedAffinity>
-2.58384

> <CNNscore>
0.4169527888

> <CNNaffinity>
7.6371488571

> <CNN_VS>
3.1843304634

> <CNNaffinity_variance>
1.3883638382

$$$$
[H]Oc1c([H])c([H])c2c(c1[H])C([H])([H])C([H])([H])C([H])([H])C(c1c([H])c([H])c([H])c([H])c1[H])=C2c1c([H])c([H])c(OC([H])([H])C([H])([H])[H])c([H])c1[H]


 28 31  0  0  0  0  0  0  0  0999 V2000
   11.6519   44.9559  131.3485 C   0  0  0  0  0  0  0  0  0  0  0  0
   11.9869   44.4915  130.1798 C   0  0  0  0  0  0  0  0  0  0  0  0
   13.3371   44.3512  129.4879 C   0  0  0  0  0  0  0  0  0  0  0  0
   14.5168   44.5943  130.3169 C   0  0  0  0  0  0  0  0  0  0  0  0
   14.5896   46.0352  130.8421 C   0  0  0  0  0  0  0  0  0  0  0  0
   13.8663   45.9954  132.1731 C   0  0  0  0  0  0  0  0  0  0  0  0
   14.5803   46.4587  133.2270 C   0  0  0  0  0  0  0  0  0  0  0  0
   14.0465   46.4207  134.5242 C   0  0  0  0  0  0  0  0  0  0  0  0
   14.8060   46.9057  135.5904 O   0  0  0  0  0  0  0  0  0  0  0  0
   12.7860   45.9076  134.7285 C   0  0  0  0  0  0  0  0  0  0  0  0
   12.0599   45.4340  133.6350 C   0  0  0  0  0  0  0  0  0  0  0  0
   12.6036   45.4840  132.3741 C   0  0  0  0  0  0  0  0  0  0  0  0
   15.7188   47.2780  135.4487 H   0  0  0  0  0  0  0  0  0  0  0  0
    7.6079   45.3289  132.5125 C   0  0  0  0  0  0  0  0  0  0  0  0
    8.1910   44.0770  132.4445 C   0  0  0  0  0  0  0  0  0  0  0  0
    9.4982   43.8904  132.0802 C   0  0  0  0  0  0  0  0  0  0  0  0
   10.2636   44.9706  131.7702 C   0  0  0  0  0  0  0  0  0  0  0  0
    9.6814   46.2552  131.8358 C   0  0  0  0  0  0  0  0  0  0  0  0
    8.3816   46.4135  132.2005 C   0  0  0  0  0  0  0  0  0  0  0  0
    6.2958   45.5253  132.8769 O   0  0  0  0  0  0  0  0  0  0  0  0
    7.1930   45.8094  135.0205 C   0  0  0  0  0  0  0  0  0  0  0  0
    5.8926   45.6150  134.2283 C   0  0  0  0  0  0  0  0  0  0  0  0
   10.9160   44.0748  129.2874 C   0  0  0  0  0  0  0  0  0  0  0  0
   10.2091   42.9312  129.4412 C   0  0  0  0  0  0  0  0  0  0  0  0
    9.1809   42.5771  128.5466 C   0  0  0  0  0  0  0  0  0  0  0  0
    8.8706   43.3976  127.4869 C   0  0  0  0  0  0  0  0  0  0  0  0
    9.5724   44.5508  127.3208 C   0  0  0  0  0  0  0  0  0  0  0  0
   10.5784   44.8918  128.1996 C   0  0  0  0  0  0  0  0  0  0  0  0
 21 22  1  0  0  0
 22 20  1  0  0  0
 20 14  1  0  0  0
 14 15  2  0  0  0
 15 16  1  0  0  0
 16 17  2  0  0  0
 17 18  1  0  0  0
 18 19  2  0  0  0
 17  1  1  0  0  0
  1  2  2  0  0  0
  2  3  1  0  0  0
  3  4  1  0  0  0
  4  5  1  0  0  0
  5  6  1  0  0  0
  6  7  2  0  0  0
  7  8  1  0  0  0
  8  9  1  0  0  0
  8 10  2  0  0  0
 10 11  1  0  0  0
 11 12  2  0  0  0
  2 23  1  0  0  0
 23 24  2  0  0  0
 24 25  1  0  0  0
 25 26  2  0  0  0
 26 27  1  0  0  0
 27 28  2  0  0  0
 19 14  1  0  0  0
 12  1  1  0  0  0
 28 23  1  0  0  0
 12  6  1  0  0  0
  9 13  1  0  0  0
M  END
> <minimizedAffinity>
27.47797

> <CNNscore>
0.3653978109

> <CNNaffinity>
6.8028097153

> <CNN_VS>
2.4857318401

> <CNNaffinity_variance>
1.7617044449

$$$$
[H]Oc1c([H])c([H])c2c(c1[H])C([H])([H])C([H])([H])C([H])([H])C(c1c([H])c([H])c([H])c([H])c1[H])=C2c1c([H])c([H])c(OC([H])([H])C([H])([H])[H])c([H])c1[H]


 28 31  0  0  0  0  0  0  0  0999 V2000
    9.6800   45.5238  130.7897 C   0  0  0  0  0  0  0  0  0  0  0  0
   10.3271   45.8008  131.8845 C   0  0  0  0  0  0  0  0  0  0  0  0
   11.3886   45.0332  132.6626 C   0  0  0  0  0  0  0  0  0  0  0  0
   11.9496   43.8556  132.0017 C   0  0  0  0  0  0  0  0  0  0  0  0
   10.9042   42.7603  131.7470 C   0  0  0  0  0  0  0  0  0  0  0  0
   10.3544   43.0678  130.3688 C   0  0  0  0  0  0  0  0  0  0  0  0
   10.4240   42.0450  129.4832 C   0  0  0  0  0  0  0  0  0  0  0  0
   10.0031   42.2187  128.1559 C   0  0  0  0  0  0  0  0  0  0  0  0
   10.0866   41.1461  127.2664 O   0  0  0  0  0  0  0  0  0  0  0  0
    9.5155   43.4396  127.7491 C   0  0  0  0  0  0  0  0  0  0  0  0
    9.4480   44.4854  128.6706 C   0  0  0  0  0  0  0  0  0  0  0  0
    9.8643   44.2898  129.9653 C   0  0  0  0  0  0  0  0  0  0  0  0
   10.4388   40.2604  127.5550 H   0  0  0  0  0  0  0  0  0  0  0  0
    6.6004   48.0518  129.3848 C   0  0  0  0  0  0  0  0  0  0  0  0
    7.9208   48.3617  129.1157 C   0  0  0  0  0  0  0  0  0  0  0  0
    8.9633   47.5800  129.5378 C   0  0  0  0  0  0  0  0  0  0  0  0
    8.7034   46.4519  130.2509 C   0  0  0  0  0  0  0  0  0  0  0  0
    7.3597   46.1226  130.5327 C   0  0  0  0  0  0  0  0  0  0  0  0
    6.3429   46.9153  130.1021 C   0  0  0  0  0  0  0  0  0  0  0  0
    5.5474   48.8315  128.9652 O   0  0  0  0  0  0  0  0  0  0  0  0
    6.3429   50.5261  130.3710 C   0  0  0  0  0  0  0  0  0  0  0  0
    5.0876   49.9426  129.7076 C   0  0  0  0  0  0  0  0  0  0  0  0
    9.9714   47.0242  132.5869 C   0  0  0  0  0  0  0  0  0  0  0  0
   10.4259   48.2510  132.2412 C   0  0  0  0  0  0  0  0  0  0  0  0
   10.0479   49.4032  132.9570 C   0  0  0  0  0  0  0  0  0  0  0  0
    9.1979   49.3028  134.0339 C   0  0  0  0  0  0  0  0  0  0  0  0
    8.7324   48.0760  134.3919 C   0  0  0  0  0  0  0  0  0  0  0  0
    9.1066   46.9514  133.6877 C   0  0  0  0  0  0  0  0  0  0  0  0
 21 22  1  0  0  0
 22 20  1  0  0  0
 20 14  1  0  0  0
 14 15  2  0  0  0
 15 16  1  0  0  0
 16 17  2  0  0  0
 17 18  1  0  0  0
 18 19  2  0  0  0
 17  1  1  0  0  0
  1  2  2  0  0  0
  2  3  1  0  0  0
  3  4  1  0  0  0
  4  5  1  0  0  0
  5  6  1  0  0  0
  6  7  2  0  0  0
  7  8  1  0  0  0
  8  9  1  0  0  0
  8 10  2  0  0  0
 10 11  1  0  0  0
 11 12  2  0  0  0
  2 23  1  0  0  0
 23 24  2  0  0  0
 24 25  1  0  0  0
 25 26  2  0  0  0
 26 27  1  0  0  0
 27 28  2  0  0  0
 19 14  1  0  0  0
 12  1  1  0  0  0
 28 23  1  0  0  0
 12  6  1  0  0  0
  9 13  1  0  0  0
M  END
> <minimizedAffinity>
-1.99700

> <CNNscore>
0.3519547582

> <CNNaffinity>
7.4274139404

> <CNN_VS>
2.6141135693

> <CNNaffinity_variance>
0.4665563703

$$$$
[H]Oc1c([H])c([H])c2c(c1[H])OC([H])([H])C([H])([H])C([H])([H])C1=C2C([H])(c2c([H])c([H])c(OC([H])([H])C([H])([H])N3C([H])([H])C([H])([H])C([H])([H])C([H])([H])C3([H])[H])c([H])c2[H])Oc2c([H])c(O[H])c([H])c([H])c21


 39 44  0  0  0  0  0  0  0  0999 V2000
    5.5857   48.1090  127.6391 O   0  0  0  0  0  0  0  0  0  0  0  0
    6.3188   47.5953  128.6997 C   0  0  0  0  0  0  0  0  0  0  0  0
    5.6356   47.0983  129.7884 C   0  0  0  0  0  0  0  0  0  0  0  0
    6.3340   46.5749  130.8667 C   0  0  0  0  0  0  0  0  0  0  0  0
    7.7055   46.5381  130.8794 C   0  0  0  0  0  0  0  0  0  0  0  0
    8.4528   45.8741  131.9037 C   0  0  0  0  0  0  0  0  0  0  0  0
    9.7999   45.7389  131.7329 C   0  0  0  0  0  0  0  0  0  0  0  0
   10.4815   46.1991  130.5845 C   0  0  0  0  0  0  0  0  0  0  0  0
    9.7577   47.0758  129.7023 O   0  0  0  0  0  0  0  0  0  0  0  0
    8.3797   47.0435  129.7830 C   0  0  0  0  0  0  0  0  0  0  0  0
    7.6750   47.5702  128.6926 C   0  0  0  0  0  0  0  0  0  0  0  0
   10.7981   45.2110  132.6901 C   0  0  0  0  0  0  0  0  0  0  0  0
   11.9067   45.9714  132.4773 C   0  0  0  0  0  0  0  0  0  0  0  0
   13.0430   45.7066  133.2194 C   0  0  0  0  0  0  0  0  0  0  0  0
   12.9977   44.6914  134.1376 C   0  0  0  0  0  0  0  0  0  0  0  0
   14.1396   44.4179  134.8894 O   0  0  0  0  0  0  0  0  0  0  0  0
   11.8556   43.9279  134.3442 C   0  0  0  0  0  0  0  0  0  0  0  0
   10.7153   44.1671  133.6238 C   0  0  0  0  0  0  0  0  0  0  0  0
    9.7041   43.2905  134.0021 O   0  0  0  0  0  0  0  0  0  0  0  0
    8.3459   43.4524  134.3134 C   0  0  0  0  0  0  0  0  0  0  0  0
    7.5588   43.9804  133.1555 C   0  0  0  0  0  0  0  0  0  0  0  0
    7.5648   45.4919  133.0331 C   0  0  0  0  0  0  0  0  0  0  0  0
    5.2960   49.0567  127.5404 H   0  0  0  0  0  0  0  0  0  0  0  0
   14.1591   43.6770  135.5826 H   0  0  0  0  0  0  0  0  0  0  0  0
   10.3619   44.9921  129.6225 C   0  0  0  0  0  0  0  0  0  0  0  0
    9.6849   43.8529  129.8712 C   0  0  0  0  0  0  0  0  0  0  0  0
    9.6354   42.7930  128.9422 C   0  0  0  0  0  0  0  0  0  0  0  0
   10.2810   42.8847  127.7406 C   0  0  0  0  0  0  0  0  0  0  0  0
   10.9781   44.0299  127.4574 C   0  0  0  0  0  0  0  0  0  0  0  0
   11.0112   45.0489  128.3799 C   0  0  0  0  0  0  0  0  0  0  0  0
   10.2336   41.8232  126.8056 O   0  0  0  0  0  0  0  0  0  0  0  0
    9.5870   40.6084  127.1174 C   0  0  0  0  0  0  0  0  0  0  0  0
   10.6656   39.6108  127.4819 C   0  0  0  0  0  0  0  0  0  0  0  0
   11.2111   38.9124  126.4032 N   0  0  0  0  0  0  0  0  0  0  0  0
   10.7480   39.1065  125.0986 C   0  0  0  0  0  0  0  0  0  0  0  0
   11.9153   38.9416  124.1244 C   0  0  0  0  0  0  0  0  0  0  0  0
   13.1379   39.6441  124.6927 C   0  0  0  0  0  0  0  0  0  0  0  0
   13.5639   38.8583  125.9111 C   0  0  0  0  0  0  0  0  0  0  0  0
   12.3877   38.1641  126.5550 C   0  0  0  0  0  0  0  0  0  0  0  0
  1  2  1  0  0  0
  2  3  2  0  0  0
  3  4  1  0  0  0
  4  5  2  0  0  0
  5  6  1  0  0  0
  6  7  2  0  0  0
  7  8  1  0  0  0
  8  9  1  0  0  0
  9 10  1  0  0  0
 10 11  2  0  0  0
  8 25  1  0  0  0
 25 26  2  0  0  0
 26 27  1  0  0  0
 27 28  2  0  0  0
 28 31  1  0  0  0
 31 32  1  0  0  0
 32 33  1  0  0  0
 33 34  1  0  0  0
 34 35  1  0  0  0
 35 36  1  0  0  0
 36 37  1  0  0  0
 37 38  1  0  0  0
 38 39  1  0  0  0
 28 29  1  0  0  0
 29 30  2  0  0  0
  7 12  1  0  0  0
 12 13  2  0  0  0
 13 14  1  0  0  0
 14 15  2  0  0  0
 15 16  1  0  0  0
 15 17  1  0  0  0
 17 18  2  0  0  0
 18 19  1  0  0  0
 19 20  1  0  0  0
 20 21  1  0  0  0
 21 22  1  0  0  0
 11  2  1  0  0  0
 30 25  1  0  0  0
 18 12  1  0  0  0
 10  5  1  0  0  0
 39 34  1  0  0  0
 22  6  1  0  0  0
  1 23  1  0  0  0
 16 24  1  0  0  0
M  END
> <minimizedAffinity>
18.77534

> <CNNscore>
0.4666137993

> <CNNaffinity>
7.7732839584

> <CNN_VS>
3.6271214485

> <CNNaffinity_variance>
1.1062047482

$$$$
[H]Oc1c([H])c([H])c2c(c1[H])OC([H])([H])C([H])([H])C([H])([H])C1=C2C([H])(c2c([H])c([H])c(OC([H])([H])C([H])([H])N3C([H])([H])C([H])([H])C([H])([H])C([H])([H])C3([H])[H])c([H])c2[H])Oc2c([H])c(O[H])c([H])c([H])c21


 39 44  0  0  0  0  0  0  0  0999 V2000
   11.7925   43.1020  127.3364 O   0  0  0  0  0  0  0  0  0  0  0  0
   11.2518   44.2798  127.8332 C   0  0  0  0  0  0  0  0  0  0  0  0
   10.2270   44.8770  127.1317 C   0  0  0  0  0  0  0  0  0  0  0  0
    9.6600   46.0541  127.5982 C   0  0  0  0  0  0  0  0  0  0  0  0
   10.0977   46.6484  128.7547 C   0  0  0  0  0  0  0  0  0  0  0  0
    9.4412   47.7764  129.3422 C   0  0  0  0  0  0  0  0  0  0  0  0
    9.8429   48.1817  130.5818 C   0  0  0  0  0  0  0  0  0  0  0  0
   10.8540   47.5248  131.3176 C   0  0  0  0  0  0  0  0  0  0  0  0
   11.6604   46.5666  130.6089 O   0  0  0  0  0  0  0  0  0  0  0  0
   11.1294   46.0417  129.4474 C   0  0  0  0  0  0  0  0  0  0  0  0
   11.7010   44.8517  128.9781 C   0  0  0  0  0  0  0  0  0  0  0  0
    9.4147   49.3790  131.3395 C   0  0  0  0  0  0  0  0  0  0  0  0
   10.5367   49.7847  131.9945 C   0  0  0  0  0  0  0  0  0  0  0  0
   10.4574   50.8911  132.8199 C   0  0  0  0  0  0  0  0  0  0  0  0
    9.2513   51.5295  132.9371 C   0  0  0  0  0  0  0  0  0  0  0  0
    9.1632   52.6456  133.7680 O   0  0  0  0  0  0  0  0  0  0  0  0
    8.1170   51.1035  132.2577 C   0  0  0  0  0  0  0  0  0  0  0  0
    8.1654   50.0106  131.4332 C   0  0  0  0  0  0  0  0  0  0  0  0
    6.9213   49.7758  130.8577 O   0  0  0  0  0  0  0  0  0  0  0  0
    6.4940   49.4949  129.5514 C   0  0  0  0  0  0  0  0  0  0  0  0
    7.0601   48.2098  129.0347 C   0  0  0  0  0  0  0  0  0  0  0  0
    8.4336   48.3400  128.4055 C   0  0  0  0  0  0  0  0  0  0  0  0
   12.5593   43.0381  126.7042 H   0  0  0  0  0  0  0  0  0  0  0  0
    8.2937   53.1546  133.8898 H   0  0  0  0  0  0  0  0  0  0  0  0
   10.0586   46.4289  132.0678 C   0  0  0  0  0  0  0  0  0  0  0  0
   10.4424   45.8209  133.2084 C   0  0  0  0  0  0  0  0  0  0  0  0
    9.6616   44.8203  133.8232 C   0  0  0  0  0  0  0  0  0  0  0  0
    8.4721   44.4261  133.2766 C   0  0  0  0  0  0  0  0  0  0  0  0
    8.0537   45.0248  132.1172 C   0  0  0  0  0  0  0  0  0  0  0  0
    8.8332   45.9978  131.5373 C   0  0  0  0  0  0  0  0  0  0  0  0
    7.6856   43.4223  133.8906 O   0  0  0  0  0  0  0  0  0  0  0  0
    7.8222   42.0665  133.5242 C   0  0  0  0  0  0  0  0  0  0  0  0
    9.2896   41.7167  133.6514 C   0  0  0  0  0  0  0  0  0  0  0  0
    9.9756   41.6043  132.4407 N   0  0  0  0  0  0  0  0  0  0  0  0
    9.3708   41.9377  131.2253 C   0  0  0  0  0  0  0  0  0  0  0  0
   10.4286   42.5127  130.2822 C   0  0  0  0  0  0  0  0  0  0  0  0
   11.3230   43.4634  131.0616 C   0  0  0  0  0  0  0  0  0  0  0  0
   12.1168   42.6179  132.0302 C   0  0  0  0  0  0  0  0  0  0  0  0
   11.3586   41.3714  132.4195 C   0  0  0  0  0  0  0  0  0  0  0  0
  1  2  1  0  0  0
  2  3  2  0  0  0
  3  4  1  0  0  0
  4  5  2  0  0  0
  5  6  1  0  0  0
  6  7  2  0  0  0
  7  8  1  0  0  0
  8  9  1  0  0  0
  9 10  1  0  0  0
 10 11  2  0  0  0
  8 25  1  0  0  0
 25 26  2  0  0  0
 26 27  1  0  0  0
 27 28  2  0  0  0
 28 31  1  0  0  0
 31 32  1  0  0  0
 32 33  1  0  0  0
 33 34  1  0  0  0
 34 35  1  0  0  0
 35 36  1  0  0  0
 36 37  1  0  0  0
 37 38  1  0  0  0
 38 39  1  0  0  0
 28 29  1  0  0  0
 29 30  2  0  0  0
  7 12  1  0  0  0
 12 13  2  0  0  0
 13 14  1  0  0  0
 14 15  2  0  0  0
 15 16  1  0  0  0
 15 17  1  0  0  0
 17 18  2  0  0  0
 18 19  1  0  0  0
 19 20  1  0  0  0
 20 21  1  0  0  0
 21 22  1  0  0  0
 11  2  1  0  0  0
 30 25  1  0  0  0
 18 12  1  0  0  0
 10  5  1  0  0  0
 39 34  1  0  0  0
 22  6  1  0  0  0
  1 23  1  0  0  0
 16 24  1  0  0  0
M  END
> <minimizedAffinity>
16.66694

> <CNNscore>
0.4281837940

> <CNNaffinity>
7.5219244957

> <CNN_VS>
3.2207660675

> <CNNaffinity_variance>
0.6852930784

$$$$
[H]Oc1c([H])c([H])c2c(c1[H])OC([H])([H])C([H])([H])C([H])([H])C1=C2C([H])(c2c([H])c([H])c(OC([H])([H])C([H])([H])N3C([H])([H])C([H])([H])C([H])([H])C([H])([H])C3([H])[H])c([H])c2[H])Oc2c([H])c(O[H])c([H])c([H])c21


 39 44  0  0  0  0  0  0  0  0999 V2000
   14.7201   44.9666  128.0387 O   0  0  0  0  0  0  0  0  0  0  0  0
   13.8259   44.6369  129.0477 C   0  0  0  0  0  0  0  0  0  0  0  0
   14.1424   44.9851  130.3428 C   0  0  0  0  0  0  0  0  0  0  0  0
   13.2725   44.6741  131.3778 C   0  0  0  0  0  0  0  0  0  0  0  0
   12.0893   44.0200  131.1441 C   0  0  0  0  0  0  0  0  0  0  0  0
   11.1035   43.8154  132.1614 C   0  0  0  0  0  0  0  0  0  0  0  0
    9.8889   43.3163  131.7901 C   0  0  0  0  0  0  0  0  0  0  0  0
    9.5545   43.0192  130.4503 C   0  0  0  0  0  0  0  0  0  0  0  0
   10.6328   42.9930  129.4977 O   0  0  0  0  0  0  0  0  0  0  0  0
   11.7850   43.6723  129.8407 C   0  0  0  0  0  0  0  0  0  0  0  0
   12.6620   43.9880  128.7947 C   0  0  0  0  0  0  0  0  0  0  0  0
    8.7624   42.9032  132.6569 C   0  0  0  0  0  0  0  0  0  0  0  0
    8.2241   41.8260  132.0226 C   0  0  0  0  0  0  0  0  0  0  0  0
    7.1197   41.2116  132.5836 C   0  0  0  0  0  0  0  0  0  0  0  0
    6.6206   41.7157  133.7552 C   0  0  0  0  0  0  0  0  0  0  0  0
    5.5067   41.1020  134.3267 O   0  0  0  0  0  0  0  0  0  0  0  0
    7.1856   42.8141  134.3908 C   0  0  0  0  0  0  0  0  0  0  0  0
    8.2799   43.4432  133.8586 C   0  0  0  0  0  0  0  0  0  0  0  0
    8.6739   44.5060  134.6643 O   0  0  0  0  0  0  0  0  0  0  0  0
    9.9120   44.9399  135.1612 C   0  0  0  0  0  0  0  0  0  0  0  0
   10.8596   45.3192  134.0670 C   0  0  0  0  0  0  0  0  0  0  0  0
   11.6544   44.1595  133.4987 C   0  0  0  0  0  0  0  0  0  0  0  0
   15.4675   44.3925  127.7167 H   0  0  0  0  0  0  0  0  0  0  0  0
    5.0979   41.4358  135.1935 H   0  0  0  0  0  0  0  0  0  0  0  0
    9.0175   44.3763  129.9342 C   0  0  0  0  0  0  0  0  0  0  0  0
    8.6229   45.4098  130.7050 C   0  0  0  0  0  0  0  0  0  0  0  0
    8.1335   46.6118  130.1530 C   0  0  0  0  0  0  0  0  0  0  0  0
    8.0405   46.7733  128.7987 C   0  0  0  0  0  0  0  0  0  0  0  0
    8.4337   45.7412  127.9875 C   0  0  0  0  0  0  0  0  0  0  0  0
    8.9073   44.5795  128.5502 C   0  0  0  0  0  0  0  0  0  0  0  0
    7.5499   47.9780  128.2409 O   0  0  0  0  0  0  0  0  0  0  0  0
    6.1708   48.1611  128.0053 C   0  0  0  0  0  0  0  0  0  0  0  0
    5.5241   48.4433  129.3446 C   0  0  0  0  0  0  0  0  0  0  0  0
    6.1647   49.4153  130.1152 N   0  0  0  0  0  0  0  0  0  0  0  0
    6.9950   49.0684  131.1849 C   0  0  0  0  0  0  0  0  0  0  0  0
    8.1254   50.0929  131.2925 C   0  0  0  0  0  0  0  0  0  0  0  0
    8.6428   50.4080  129.8981 C   0  0  0  0  0  0  0  0  0  0  0  0
    7.5399   51.1533  129.1831 C   0  0  0  0  0  0  0  0  0  0  0  0
    6.1805   50.7573  129.7078 C   0  0  0  0  0  0  0  0  0  0  0  0
  1  2  1  0  0  0
  2  3  2  0  0  0
  3  4  1  0  0  0
  4  5  2  0  0  0
  5  6  1  0  0  0
  6  7  2  0  0  0
  7  8  1  0  0  0
  8  9  1  0  0  0
  9 10  1  0  0  0
 10 11  2  0  0  0
  8 25  1  0  0  0
 25 26  2  0  0  0
 26 27  1  0  0  0
 27 28  2  0  0  0
 28 31  1  0  0  0
 31 32  1  0  0  0
 32 33  1  0  0  0
 33 34  1  0  0  0
 34 35  1  0  0  0
 35 36  1  0  0  0
 36 37  1  0  0  0
 37 38  1  0  0  0
 38 39  1  0  0  0
 28 29  1  0  0  0
 29 30  2  0  0  0
  7 12  1  0  0  0
 12 13  2  0  0  0
 13 14  1  0  0  0
 14 15  2  0  0  0
 15 16  1  0  0  0
 15 17  1  0  0  0
 17 18  2  0  0  0
 18 19  1  0  0  0
 19 20  1  0  0  0
 20 21  1  0  0  0
 21 22  1  0  0  0
 11  2  1  0  0  0
 30 25  1  0  0  0
 18 12  1  0  0  0
 10  5  1  0  0  0
 39 34  1  0  0  0
 22  6  1  0  0  0
  1 23  1  0  0  0
 16 24  1  0  0  0
M  END
> <minimizedAffinity>
16.69941

> <CNNscore>
0.3866670132

> <CNNaffinity>
7.7378249168

> <CNN_VS>
2.9919617176

> <CNNaffinity_variance>
0.9910503626

$$$$
[H]Oc1c([H])c([H])c2c(c1[H])OC([H])([H])C([H])([H])C([H])([H])C1=C2C([H])(c2c([H])c([H])c(OC([H])([H])C([H])([H])N3C([H])([H])C([H])([H])C([H])([H])C([H])([H])C3([H])[H])c([H])c2[H])Oc2c([H])c(O[H])c([H])c([H])c21


 39 44  0  0  0  0  0  0  0  0999 V2000
    8.7641   43.0924  126.0750 O   0  0  0  0  0  0  0  0  0  0  0  0
    9.2063   43.3106  127.3724 C   0  0  0  0  0  0  0  0  0  0  0  0
   10.5299   43.0613  127.6638 C   0  0  0  0  0  0  0  0  0  0  0  0
   11.0090   43.2695  128.9490 C   0  0  0  0  0  0  0  0  0  0  0  0
   10.1899   43.7228  129.9519 C   0  0  0  0  0  0  0  0  0  0  0  0
   10.6798   44.0886  131.2460 C   0  0  0  0  0  0  0  0  0  0  0  0
    9.8181   44.6956  132.1128 C   0  0  0  0  0  0  0  0  0  0  0  0
    8.4793   45.0008  131.7819 C   0  0  0  0  0  0  0  0  0  0  0  0
    7.9485   44.4012  130.5863 O   0  0  0  0  0  0  0  0  0  0  0  0
    8.8629   43.9653  129.6479 C   0  0  0  0  0  0  0  0  0  0  0  0
    8.3788   43.7574  128.3497 C   0  0  0  0  0  0  0  0  0  0  0  0
   10.0430   45.0520  133.5318 C   0  0  0  0  0  0  0  0  0  0  0  0
    8.8387   44.8399  134.1294 C   0  0  0  0  0  0  0  0  0  0  0  0
    8.7146   45.1062  135.4806 C   0  0  0  0  0  0  0  0  0  0  0  0
    9.8129   45.5689  136.1554 C   0  0  0  0  0  0  0  0  0  0  0  0
    9.6954   45.8403  137.5180 O   0  0  0  0  0  0  0  0  0  0  0  0
   11.0357   45.7759  135.5297 C   0  0  0  0  0  0  0  0  0  0  0  0
   11.1885   45.5210  134.1924 C   0  0  0  0  0  0  0  0  0  0  0  0
   12.4910   45.7926  133.7878 O   0  0  0  0  0  0  0  0  0  0  0  0
   13.4289   45.1001  133.0074 C   0  0  0  0  0  0  0  0  0  0  0  0
   12.9549   44.8940  131.6032 C   0  0  0  0  0  0  0  0  0  0  0  0
   12.0942   43.6607  131.4088 C   0  0  0  0  0  0  0  0  0  0  0  0
    8.3925   42.2370  125.7259 H   0  0  0  0  0  0  0  0  0  0  0  0
   10.4783   46.1846  138.0643 H   0  0  0  0  0  0  0  0  0  0  0  0
    8.6103   46.3971  131.1263 C   0  0  0  0  0  0  0  0  0  0  0  0
    9.1754   47.4819  131.6936 C   0  0  0  0  0  0  0  0  0  0  0  0
    9.2439   48.7243  131.0298 C   0  0  0  0  0  0  0  0  0  0  0  0
    8.7326   48.8744  129.7709 C   0  0  0  0  0  0  0  0  0  0  0  0
    8.1514   47.7906  129.1665 C   0  0  0  0  0  0  0  0  0  0  0  0
    8.0969   46.5902  129.8348 C   0  0  0  0  0  0  0  0  0  0  0  0
    8.7996   50.1196  129.1014 O   0  0  0  0  0  0  0  0  0  0  0  0
    7.7167   50.5875  128.3271 C   0  0  0  0  0  0  0  0  0  0  0  0
    6.7894   51.3328  129.2632 C   0  0  0  0  0  0  0  0  0  0  0  0
    5.6900   50.5985  129.7117 N   0  0  0  0  0  0  0  0  0  0  0  0
    4.5139   50.5131  128.9609 C   0  0  0  0  0  0  0  0  0  0  0  0
    3.8812   49.1378  129.1783 C   0  0  0  0  0  0  0  0  0  0  0  0
    4.9729   48.0801  129.1487 C   0  0  0  0  0  0  0  0  0  0  0  0
    5.8186   48.2934  130.3826 C   0  0  0  0  0  0  0  0  0  0  0  0
    5.8032   49.7400  130.8150 C   0  0  0  0  0  0  0  0  0  0  0  0
  1  2  1  0  0  0
  2  3  2  0  0  0
  3  4  1  0  0  0
  4  5  2  0  0  0
  5  6  1  0  0  0
  6  7  2  0  0  0
  7  8  1  0  0  0
  8  9  1  0  0  0
  9 10  1  0  0  0
 10 11  2  0  0  0
  8 25  1  0  0  0
 25 26  2  0  0  0
 26 27  1  0  0  0
 27 28  2  0  0  0
 28 31  1  0  0  0
 31 32  1  0  0  0
 32 33  1  0  0  0
 33 34  1  0  0  0
 34 35  1  0  0  0
 35 36  1  0  0  0
 36 37  1  0  0  0
 37 38  1  0  0  0
 38 39  1  0  0  0
 28 29  1  0  0  0
 29 30  2  0  0  0
  7 12  1  0  0  0
 12 13  2  0  0  0
 13 14  1  0  0  0
 14 15  2  0  0  0
 15 16  1  0  0  0
 15 17  1  0  0  0
 17 18  2  0  0  0
 18 19  1  0  0  0
 19 20  1  0  0  0
 20 21  1  0  0  0
 21 22  1  0  0  0
 11  2  1  0  0  0
 30 25  1  0  0  0
 18 12  1  0  0  0
 10  5  1  0  0  0
 39 34  1  0  0  0
 22  6  1  0  0  0
  1 23  1  0  0  0
 16 24  1  0  0  0
M  END
> <minimizedAffinity>
13.49294

> <CNNscore>
0.3692127466

> <CNNaffinity>
7.8553771973

> <CNN_VS>
2.9003055096

> <CNNaffinity_variance>
1.0157334805

$$$$
[H]Oc1c([H])c([H])c2c(c1[H])OC([H])([H])C([H])([H])C([H])([H])C1=C2C([H])(c2c([H])c([H])c(OC([H])([H])C([H])([H])N3C([H])([H])C([H])([H])C([H])([H])C([H])([H])C3([H])[H])c([H])c2[H])Oc2c([H])c(O[H])c([H])c([H])c21


 39 44  0  0  0  0  0  0  0  0999 V2000
    6.7432   49.2455  127.0370 O   0  0  0  0  0  0  0  0  0  0  0  0
    6.9413   48.5275  128.2081 C   0  0  0  0  0  0  0  0  0  0  0  0
    6.1604   47.4149  128.4343 C   0  0  0  0  0  0  0  0  0  0  0  0
    6.3308   46.6709  129.5928 C   0  0  0  0  0  0  0  0  0  0  0  0
    7.2683   47.0173  130.5327 C   0  0  0  0  0  0  0  0  0  0  0  0
    7.5726   46.1937  131.6630 C   0  0  0  0  0  0  0  0  0  0  0  0
    8.6414   46.5354  132.4396 C   0  0  0  0  0  0  0  0  0  0  0  0
    9.4717   47.6443  132.1637 C   0  0  0  0  0  0  0  0  0  0  0  0
    8.9986   48.5878  131.1855 O   0  0  0  0  0  0  0  0  0  0  0  0
    8.0429   48.1382  130.2961 C   0  0  0  0  0  0  0  0  0  0  0  0
    7.8729   48.8888  129.1254 C   0  0  0  0  0  0  0  0  0  0  0  0
    9.0803   45.9275  133.7159 C   0  0  0  0  0  0  0  0  0  0  0  0
    9.5494   46.9756  134.4467 C   0  0  0  0  0  0  0  0  0  0  0  0
   10.0598   46.7271  135.7076 C   0  0  0  0  0  0  0  0  0  0  0  0
   10.0663   45.4355  136.1632 C   0  0  0  0  0  0  0  0  0  0  0  0
   10.5799   45.1768  137.4333 O   0  0  0  0  0  0  0  0  0  0  0  0
    9.5796   44.3784  135.4046 C   0  0  0  0  0  0  0  0  0  0  0  0
    9.0682   44.5942  134.1523 C   0  0  0  0  0  0  0  0  0  0  0  0
    8.6372   43.3990  133.5866 O   0  0  0  0  0  0  0  0  0  0  0  0
    7.4728   43.0116  132.9069 C   0  0  0  0  0  0  0  0  0  0  0  0
    7.2824   43.7716  131.6320 C   0  0  0  0  0  0  0  0  0  0  0  0
    6.5729   45.1016  131.7973 C   0  0  0  0  0  0  0  0  0  0  0  0
    6.1120   50.0075  126.9244 H   0  0  0  0  0  0  0  0  0  0  0  0
   10.6079   44.2382  137.8182 H   0  0  0  0  0  0  0  0  0  0  0  0
   10.5212   47.0403  131.1992 C   0  0  0  0  0  0  0  0  0  0  0  0
   10.3738   46.8976  129.8666 C   0  0  0  0  0  0  0  0  0  0  0  0
   11.3779   46.3245  129.0591 C   0  0  0  0  0  0  0  0  0  0  0  0
   12.5519   45.8874  129.6065 C   0  0  0  0  0  0  0  0  0  0  0  0
   12.7328   46.0182  130.9586 C   0  0  0  0  0  0  0  0  0  0  0  0
   11.7385   46.5803  131.7241 C   0  0  0  0  0  0  0  0  0  0  0  0
   13.5620   45.3118  128.7994 O   0  0  0  0  0  0  0  0  0  0  0  0
   14.5634   44.4926  129.3627 C   0  0  0  0  0  0  0  0  0  0  0  0
   13.8715   43.2746  129.9366 C   0  0  0  0  0  0  0  0  0  0  0  0
   12.6469   43.5300  130.5566 N   0  0  0  0  0  0  0  0  0  0  0  0
   11.4409   43.4389  129.8556 C   0  0  0  0  0  0  0  0  0  0  0  0
   10.3471   42.9483  130.8053 C   0  0  0  0  0  0  0  0  0  0  0  0
   10.9041   41.8243  131.6641 C   0  0  0  0  0  0  0  0  0  0  0  0
   11.9327   42.4457  132.5800 C   0  0  0  0  0  0  0  0  0  0  0  0
   12.5633   43.6645  131.9501 C   0  0  0  0  0  0  0  0  0  0  0  0
  1  2  1  0  0  0
  2  3  2  0  0  0
  3  4  1  0  0  0
  4  5  2  0  0  0
  5  6  1  0  0  0
  6  7  2  0  0  0
  7  8  1  0  0  0
  8  9  1  0  0  0
  9 10  1  0  0  0
 10 11  2  0  0  0
  8 25  1  0  0  0
 25 26  2  0  0  0
 26 27  1  0  0  0
 27 28  2  0  0  0
 28 31  1  0  0  0
 31 32  1  0  0  0
 32 33  1  0  0  0
 33 34  1  0  0  0
 34 35  1  0  0  0
 35 36  1  0  0  0
 36 37  1  0  0  0
 37 38  1  0  0  0
 38 39  1  0  0  0
 28 29  1  0  0  0
 29 30  2  0  0  0
  7 12  1  0  0  0
 12 13  2  0  0  0
 13 14  1  0  0  0
 14 15  2  0  0  0
 15 16  1  0  0  0
 15 17  1  0  0  0
 17 18  2  0  0  0
 18 19  1  0  0  0
 19 20  1  0  0  0
 20 21  1  0  0  0
 21 22  1  0  0  0
 11  2  1  0  0  0
 30 25  1  0  0  0
 18 12  1  0  0  0
 10  5  1  0  0  0
 39 34  1  0  0  0
 22  6  1  0  0  0
  1 23  1  0  0  0
 16 24  1  0  0  0
M  END
> <minimizedAffinity>
15.98433

> <CNNscore>
0.3690183759

> <CNNaffinity>
7.4742760658

> <CNN_VS>
2.7581453323

> <CNNaffinity_variance>
0.4184876382

$$$$
[H]Oc1c([H])c([H])c2c(c1[H])OC([H])([H])C([H])([H])C([H])([H])C1=C2C([H])(c2c([H])c([H])c(OC([H])([H])C([H])([H])N3C([H])([H])C([H])([H])C([H])([H])C([H])([H])C3([H])[H])c([H])c2[H])Oc2c([H])c(O[H])c([H])c([H])c21


 39 44  0  0  0  0  0  0  0  0999 V2000
    7.8245   50.8329  128.9859 O   0  0  0  0  0  0  0  0  0  0  0  0
    8.0211   49.7981  129.8897 C   0  0  0  0  0  0  0  0  0  0  0  0
    6.9383   49.0224  130.2429 C   0  0  0  0  0  0  0  0  0  0  0  0
    7.0962   47.9779  131.1420 C   0  0  0  0  0  0  0  0  0  0  0  0
    8.3178   47.6920  131.6973 C   0  0  0  0  0  0  0  0  0  0  0  0
    8.5478   46.5362  132.5096 C   0  0  0  0  0  0  0  0  0  0  0  0
    9.8325   46.2442  132.8651 C   0  0  0  0  0  0  0  0  0  0  0  0
   10.9417   47.0127  132.4472 C   0  0  0  0  0  0  0  0  0  0  0  0
   10.6630   48.2937  131.8538 O   0  0  0  0  0  0  0  0  0  0  0  0
    9.3958   48.4801  131.3381 C   0  0  0  0  0  0  0  0  0  0  0  0
    9.2375   49.5338  130.4283 C   0  0  0  0  0  0  0  0  0  0  0  0
   10.3127   45.1924  133.7893 C   0  0  0  0  0  0  0  0  0  0  0  0
   11.3768   45.7577  134.4224 C   0  0  0  0  0  0  0  0  0  0  0  0
   12.0689   45.0052  135.3534 C   0  0  0  0  0  0  0  0  0  0  0  0
   11.6478   43.7249  135.5970 C   0  0  0  0  0  0  0  0  0  0  0  0
   12.3409   42.9597  136.5339 O   0  0  0  0  0  0  0  0  0  0  0  0
   10.5568   43.1655  134.9439 C   0  0  0  0  0  0  0  0  0  0  0  0
    9.8522   43.8869  134.0166 C   0  0  0  0  0  0  0  0  0  0  0  0
    8.8047   43.1311  133.5011 O   0  0  0  0  0  0  0  0  0  0  0  0
    7.4464   43.3897  133.2644 C   0  0  0  0  0  0  0  0  0  0  0  0
    7.2447   44.4879  132.2681 C   0  0  0  0  0  0  0  0  0  0  0  0
    7.2603   45.8825  132.8635 C   0  0  0  0  0  0  0  0  0  0  0  0
    7.5818   51.7696  129.2215 H   0  0  0  0  0  0  0  0  0  0  0  0
   12.0703   42.0060  136.7514 H   0  0  0  0  0  0  0  0  0  0  0  0
   11.3000   46.3648  131.0877 C   0  0  0  0  0  0  0  0  0  0  0  0
   10.9938   46.8651  129.8736 C   0  0  0  0  0  0  0  0  0  0  0  0
   11.3485   46.2035  128.6797 C   0  0  0  0  0  0  0  0  0  0  0  0
   12.0243   45.0156  128.7119 C   0  0  0  0  0  0  0  0  0  0  0  0
   12.3504   44.4804  129.9305 C   0  0  0  0  0  0  0  0  0  0  0  0
   11.9932   45.1448  131.0800 C   0  0  0  0  0  0  0  0  0  0  0  0
   12.3821   44.3486  127.5159 O   0  0  0  0  0  0  0  0  0  0  0  0
   11.4544   43.5341  126.8326 C   0  0  0  0  0  0  0  0  0  0  0  0
   10.9631   42.4957  127.8184 C   0  0  0  0  0  0  0  0  0  0  0  0
    9.6728   42.7104  128.3064 N   0  0  0  0  0  0  0  0  0  0  0  0
    9.3449   42.4529  129.6407 C   0  0  0  0  0  0  0  0  0  0  0  0
    8.2882   43.4594  130.0985 C   0  0  0  0  0  0  0  0  0  0  0  0
    8.6595   44.8387  129.5781 C   0  0  0  0  0  0  0  0  0  0  0  0
    8.4974   44.7952  128.0764 C   0  0  0  0  0  0  0  0  0  0  0  0
    8.7226   43.4015  127.5405 C   0  0  0  0  0  0  0  0  0  0  0  0
  1  2  1  0  0  0
  2  3  2  0  0  0
  3  4  1  0  0  0
  4  5  2  0  0  0
  5  6  1  0  0  0
  6  7  2  0  0  0
  7  8  1  0  0  0
  8  9  1  0  0  0
  9 10  1  0  0  0
 10 11  2  0  0  0
  8 25  1  0  0  0
 25 26  2  0  0  0
 26 27  1  0  0  0
 27 28  2  0  0  0
 28 31  1  0  0  0
 31 32  1  0  0  0
 32 33  1  0  0  0
 33 34  1  0  0  0
 34 35  1  0  0  0
 35 36  1  0  0  0
 36 37  1  0  0  0
 37 38  1  0  0  0
 38 39  1  0  0  0
 28 29  1  0  0  0
 29 30  2  0  0  0
  7 12  1  0  0  0
 12 13  2  0  0  0
 13 14  1  0  0  0
 14 15  2  0  0  0
 15 16  1  0  0  0
 15 17  1  0  0  0
 17 18  2  0  0  0
 18 19  1  0  0  0
 19 20  1  0  0  0
 20 21  1  0  0  0
 21 22  1  0  0  0
 11  2  1  0  0  0
 30 25  1  0  0  0
 18 12  1  0  0  0
 10  5  1  0  0  0
 39 34  1  0  0  0
 22  6  1  0  0  0
  1 23  1  0  0  0
 16 24  1  0  0  0
M  END
> <minimizedAffinity>
13.11750

> <CNNscore>
0.3637962341

> <CNNaffinity>
7.5237288475

> <CNN_VS>
2.7371041775

> <CNNaffinity_variance>
0.4570322633

$$$$
[H]Oc1c([H])c([H])c2c(c1[H])OC([H])([H])C([H])([H])C([H])([H])C1=C2C([H])(c2c([H])c([H])c(OC([H])([H])C([H])([H])N3C([H])([H])C([H])([H])C([H])([H])C([H])([H])C3([H])[H])c([H])c2[H])Oc2c([H])c(O[H])c([H])c([H])c21


 39 44  0  0  0  0  0  0  0  0999 V2000
   14.2138   44.3020  127.7611 O   0  0  0  0  0  0  0  0  0  0  0  0
   13.4552   44.3958  128.9196 C   0  0  0  0  0  0  0  0  0  0  0  0
   14.1073   44.6161  130.1134 C   0  0  0  0  0  0  0  0  0  0  0  0
   13.3825   44.7174  131.2920 C   0  0  0  0  0  0  0  0  0  0  0  0
   12.0154   44.6026  131.3019 C   0  0  0  0  0  0  0  0  0  0  0  0
   11.2261   44.8482  132.4703 C   0  0  0  0  0  0  0  0  0  0  0  0
    9.8687   44.8839  132.3347 C   0  0  0  0  0  0  0  0  0  0  0  0
    9.2132   44.7165  131.0948 C   0  0  0  0  0  0  0  0  0  0  0  0
   10.0044   44.2242  129.9982 O   0  0  0  0  0  0  0  0  0  0  0  0
   11.3731   44.3776  130.0981 C   0  0  0  0  0  0  0  0  0  0  0  0
   12.1041   44.2773  128.9072 C   0  0  0  0  0  0  0  0  0  0  0  0
    8.8428   44.9936  133.3961 C   0  0  0  0  0  0  0  0  0  0  0  0
    7.8151   44.2175  132.9555 C   0  0  0  0  0  0  0  0  0  0  0  0
    6.6745   44.1270  133.7318 C   0  0  0  0  0  0  0  0  0  0  0  0
    6.6342   44.8218  134.9114 C   0  0  0  0  0  0  0  0  0  0  0  0
    5.4872   44.7360  135.6994 O   0  0  0  0  0  0  0  0  0  0  0  0
    7.6946   45.6062  135.3473 C   0  0  0  0  0  0  0  0  0  0  0  0
    8.8371   45.7150  134.5993 C   0  0  0  0  0  0  0  0  0  0  0  0
    9.7595   46.5418  135.2316 O   0  0  0  0  0  0  0  0  0  0  0  0
   11.1339   46.4402  135.4936 C   0  0  0  0  0  0  0  0  0  0  0  0
   11.9454   46.3675  134.2385 C   0  0  0  0  0  0  0  0  0  0  0  0
   12.0946   44.9692  133.6709 C   0  0  0  0  0  0  0  0  0  0  0  0
   14.5987   43.4632  127.3870 H   0  0  0  0  0  0  0  0  0  0  0  0
    5.4061   45.2306  136.5819 H   0  0  0  0  0  0  0  0  0  0  0  0
    9.1843   46.1606  130.5378 C   0  0  0  0  0  0  0  0  0  0  0  0
    9.4350   46.5159  129.2615 C   0  0  0  0  0  0  0  0  0  0  0  0
    9.3990   47.8604  128.8375 C   0  0  0  0  0  0  0  0  0  0  0  0
    9.1048   48.8643  129.7175 C   0  0  0  0  0  0  0  0  0  0  0  0
    8.8450   48.5362  131.0224 C   0  0  0  0  0  0  0  0  0  0  0  0
    8.8865   47.2179  131.4109 C   0  0  0  0  0  0  0  0  0  0  0  0
    9.0675   50.2149  129.2958 O   0  0  0  0  0  0  0  0  0  0  0  0
    7.8659   50.8033  128.8476 C   0  0  0  0  0  0  0  0  0  0  0  0
    6.7499   50.2442  129.7041 C   0  0  0  0  0  0  0  0  0  0  0  0
    5.9562   49.2792  129.0815 N   0  0  0  0  0  0  0  0  0  0  0  0
    6.4423   48.5065  128.0228 C   0  0  0  0  0  0  0  0  0  0  0  0
    5.8108   47.1152  128.0887 C   0  0  0  0  0  0  0  0  0  0  0  0
    5.8001   46.6440  129.5341 C   0  0  0  0  0  0  0  0  0  0  0  0
    4.8202   47.5263  130.2719 C   0  0  0  0  0  0  0  0  0  0  0  0
    4.7278   48.8936  129.6379 C   0  0  0  0  0  0  0  0  0  0  0  0
  1  2  1  0  0  0
  2  3  2  0  0  0
  3  4  1  0  0  0
  4  5  2  0  0  0
  5  6  1  0  0  0
  6  7  2  0  0  0
  7  8  1  0  0  0
  8  9  1  0  0  0
  9 10  1  0  0  0
 10 11  2  0  0  0
  8 25  1  0  0  0
 25 26  2  0  0  0
 26 27  1  0  0  0
 27 28  2  0  0  0
 28 31  1  0  0  0
 31 32  1  0  0  0
 32 33  1  0  0  0
 33 34  1  0  0  0
 34 35  1  0  0  0
 35 36  1  0  0  0
 36 37  1  0  0  0
 37 38  1  0  0  0
 38 39  1  0  0  0
 28 29  1  0  0  0
 29 30  2  0  0  0
  7 12  1  0  0  0
 12 13  2  0  0  0
 13 14  1  0  0  0
 14 15  2  0  0  0
 15 16  1  0  0  0
 15 17  1  0  0  0
 17 18  2  0  0  0
 18 19  1  0  0  0
 19 20  1  0  0  0
 20 21  1  0  0  0
 21 22  1  0  0  0
 11  2  1  0  0  0
 30 25  1  0  0  0
 18 12  1  0  0  0
 10  5  1  0  0  0
 39 34  1  0  0  0
 22  6  1  0  0  0
  1 23  1  0  0  0
 16 24  1  0  0  0
M  END
> <minimizedAffinity>
19.47308

> <CNNscore>
0.3586407602

> <CNNaffinity>
7.5820755959

> <CNN_VS>
2.7192413807

> <CNNaffinity_variance>
0.7738150954

$$$$
[H]Oc1c([H])c([H])c2c(c1[H])OC([H])([H])C([H])([H])C([H])([H])C1=C2C([H])(c2c([H])c([H])c(OC([H])([H])C([H])([H])N3C([H])([H])C([H])([H])C([H])([H])C([H])([H])C3([H])[H])c([H])c2[H])Oc2c([H])c(O[H])c([H])c([H])c21


 39 44  0  0  0  0  0  0  0  0999 V2000
   11.1099   43.5040  126.9485 O   0  0  0  0  0  0  0  0  0  0  0  0
   11.1641   44.3632  128.0372 C   0  0  0  0  0  0  0  0  0  0  0  0
   10.2859   45.4243  128.0785 C   0  0  0  0  0  0  0  0  0  0  0  0
   10.3089   46.3034  129.1515 C   0  0  0  0  0  0  0  0  0  0  0  0
   11.1945   46.1432  130.1871 C   0  0  0  0  0  0  0  0  0  0  0  0
   11.1482   46.9392  131.3757 C   0  0  0  0  0  0  0  0  0  0  0  0
   11.9533   46.5856  132.4193 C   0  0  0  0  0  0  0  0  0  0  0  0
   12.8059   45.4598  132.3882 C   0  0  0  0  0  0  0  0  0  0  0  0
   13.0194   44.8366  131.1088 O   0  0  0  0  0  0  0  0  0  0  0  0
   12.0733   45.0770  130.1321 C   0  0  0  0  0  0  0  0  0  0  0  0
   12.0492   44.1875  129.0498 C   0  0  0  0  0  0  0  0  0  0  0  0
   12.1786   47.3090  133.6909 C   0  0  0  0  0  0  0  0  0  0  0  0
   13.4934   47.0979  133.9724 C   0  0  0  0  0  0  0  0  0  0  0  0
   14.0170   47.6399  135.1318 C   0  0  0  0  0  0  0  0  0  0  0  0
   13.1864   48.3676  135.9419 C   0  0  0  0  0  0  0  0  0  0  0  0
   13.7069   48.9168  137.1130 O   0  0  0  0  0  0  0  0  0  0  0  0
   11.8474   48.5762  135.6365 C   0  0  0  0  0  0  0  0  0  0  0  0
   11.3010   48.0515  134.4952 C   0  0  0  0  0  0  0  0  0  0  0  0
    9.9565   48.3925  134.3943 O   0  0  0  0  0  0  0  0  0  0  0  0
    9.1569   48.8894  133.3542 C   0  0  0  0  0  0  0  0  0  0  0  0
    9.0822   47.9441  132.1967 C   0  0  0  0  0  0  0  0  0  0  0  0
   10.2170   48.0848  131.2007 C   0  0  0  0  0  0  0  0  0  0  0  0
   11.6269   43.6063  126.1036 H   0  0  0  0  0  0  0  0  0  0  0  0
   13.1346   49.4641  137.7477 H   0  0  0  0  0  0  0  0  0  0  0  0
   11.8750   44.3256  132.8815 C   0  0  0  0  0  0  0  0  0  0  0  0
   11.8434   43.0679  132.3966 C   0  0  0  0  0  0  0  0  0  0  0  0
   10.9533   42.0947  132.8961 C   0  0  0  0  0  0  0  0  0  0  0  0
   10.0794   42.3965  133.9032 C   0  0  0  0  0  0  0  0  0  0  0  0
   10.0865   43.6665  134.4179 C   0  0  0  0  0  0  0  0  0  0  0  0
   10.9639   44.5973  133.9135 C   0  0  0  0  0  0  0  0  0  0  0  0
    9.1847   41.4225  134.4073 O   0  0  0  0  0  0  0  0  0  0  0  0
    7.7891   41.5756  134.2664 C   0  0  0  0  0  0  0  0  0  0  0  0
    7.4496   41.2570  132.8259 C   0  0  0  0  0  0  0  0  0  0  0  0
    7.3640   42.3655  131.9816 N   0  0  0  0  0  0  0  0  0  0  0  0
    7.4733   43.6690  132.4750 C   0  0  0  0  0  0  0  0  0  0  0  0
    8.1528   44.5461  131.4224 C   0  0  0  0  0  0  0  0  0  0  0  0
    9.3170   43.7796  130.8154 C   0  0  0  0  0  0  0  0  0  0  0  0
    8.7207   42.6441  130.0164 C   0  0  0  0  0  0  0  0  0  0  0  0
    7.3926   42.2091  130.5881 C   0  0  0  0  0  0  0  0  0  0  0  0
  1  2  1  0  0  0
  2  3  2  0  0  0
  3  4  1  0  0  0
  4  5  2  0  0  0
  5  6  1  0  0  0
  6  7  2  0  0  0
  7  8  1  0  0  0
  8  9  1  0  0  0
  9 10  1  0  0  0
 10 11  2  0  0  0
  8 25  1  0  0  0
 25 26  2  0  0  0
 26 27  1  0  0  0
 27 28  2  0  0  0
 28 31  1  0  0  0
 31 32  1  0  0  0
 32 33  1  0  0  0
 33 34  1  0  0  0
 34 35  1  0  0  0
 35 36  1  0  0  0
 36 37  1  0  0  0
 37 38  1  0  0  0
 38 39  1  0  0  0
 28 29  1  0  0  0
 29 30  2  0  0  0
  7 12  1  0  0  0
 12 13  2  0  0  0
 13 14  1  0  0  0
 14 15  2  0  0  0
 15 16  1  0  0  0
 15 17  1  0  0  0
 17 18  2  0  0  0
 18 19  1  0  0  0
 19 20  1  0  0  0
 20 21  1  0  0  0
 21 22  1  0  0  0
 11  2  1  0  0  0
 30 25  1  0  0  0
 18 12  1  0  0  0
 10  5  1  0  0  0
 39 34  1  0  0  0
 22  6  1  0  0  0
  1 23  1  0  0  0
 16 24  1  0  0  0
M  END
> <minimizedAffinity>
22.39143

> <CNNscore>
0.3397923708

> <CNNaffinity>
7.3718972206

> <CNN_VS>
2.5049145222

> <CNNaffinity_variance>
0.6428270936

$$$$
[H]Oc1c([H])c([H])c2c(c1[H])OC([H])([H])C([H])([H])C([H])([H])C1=C2C([H])(c2c([H])c([H])c(OC([H])([H])C([H])([H])N3C([H])([H])C([H])([H])C([H])([H])C([H])([H])C3([H])[H])c([H])c2[H])Oc2c([H])c(O[H])c([H])c([H])c21


 39 44  0  0  0  0  0  0  0  0999 V2000
    7.0776   48.4275  136.2141 O   0  0  0  0  0  0  0  0  0  0  0  0
    7.7264   47.6078  135.3011 C   0  0  0  0  0  0  0  0  0  0  0  0
    7.1858   46.3689  135.0334 C   0  0  0  0  0  0  0  0  0  0  0  0
    7.8050   45.5226  134.1252 C   0  0  0  0  0  0  0  0  0  0  0  0
    8.9571   45.8902  133.4772 C   0  0  0  0  0  0  0  0  0  0  0  0
    9.5393   45.1083  132.4292 C   0  0  0  0  0  0  0  0  0  0  0  0
   10.5794   45.6447  131.7274 C   0  0  0  0  0  0  0  0  0  0  0  0
   11.0867   46.9404  131.9706 C   0  0  0  0  0  0  0  0  0  0  0  0
   10.6587   47.5938  133.1791 O   0  0  0  0  0  0  0  0  0  0  0  0
    9.4921   47.1342  133.7574 C   0  0  0  0  0  0  0  0  0  0  0  0
    8.8660   47.9903  134.6728 C   0  0  0  0  0  0  0  0  0  0  0  0
   11.4213   44.9979  130.6960 C   0  0  0  0  0  0  0  0  0  0  0  0
   12.6637   45.5152  130.8994 C   0  0  0  0  0  0  0  0  0  0  0  0
   13.6916   45.1151  130.0654 C   0  0  0  0  0  0  0  0  0  0  0  0
   13.4105   44.2129  129.0740 C   0  0  0  0  0  0  0  0  0  0  0  0
   14.4416   43.8051  128.2287 O   0  0  0  0  0  0  0  0  0  0  0  0
   12.1367   43.6923  128.8836 C   0  0  0  0  0  0  0  0  0  0  0  0
   11.0989   44.0702  129.6940 C   0  0  0  0  0  0  0  0  0  0  0  0
    9.9266   43.4201  129.3237 O   0  0  0  0  0  0  0  0  0  0  0  0
    8.9244   42.7457  130.0370 C   0  0  0  0  0  0  0  0  0  0  0  0
    8.2121   43.6440  130.9987 C   0  0  0  0  0  0  0  0  0  0  0  0
    8.8880   43.7742  132.3499 C   0  0  0  0  0  0  0  0  0  0  0  0
    7.2463   48.4489  137.1953 H   0  0  0  0  0  0  0  0  0  0  0  0
   14.2868   43.1391  127.4788 H   0  0  0  0  0  0  0  0  0  0  0  0
   10.1857   47.8227  131.0726 C   0  0  0  0  0  0  0  0  0  0  0  0
    9.3503   47.3734  130.1144 C   0  0  0  0  0  0  0  0  0  0  0  0
    8.5702   48.2484  129.3304 C   0  0  0  0  0  0  0  0  0  0  0  0
    8.6348   49.6012  129.5168 C   0  0  0  0  0  0  0  0  0  0  0  0
    9.4746   50.0899  130.4831 C   0  0  0  0  0  0  0  0  0  0  0  0
   10.2248   49.2160  131.2342 C   0  0  0  0  0  0  0  0  0  0  0  0
    7.8534   50.4826  128.7320 O   0  0  0  0  0  0  0  0  0  0  0  0
    7.2295   51.6094  129.3082 C   0  0  0  0  0  0  0  0  0  0  0  0
    6.4359   52.2879  128.2121 C   0  0  0  0  0  0  0  0  0  0  0  0
    7.1183   53.2954  127.5278 N   0  0  0  0  0  0  0  0  0  0  0  0
    8.3353   53.0469  126.8864 C   0  0  0  0  0  0  0  0  0  0  0  0
    8.4296   53.9239  125.6370 C   0  0  0  0  0  0  0  0  0  0  0  0
    7.0881   53.9133  124.9219 C   0  0  0  0  0  0  0  0  0  0  0  0
    6.1144   54.6489  125.8129 C   0  0  0  0  0  0  0  0  0  0  0  0
    6.5028   54.5285  127.2671 C   0  0  0  0  0  0  0  0  0  0  0  0
  1  2  1  0  0  0
  2  3  2  0  0  0
  3  4  1  0  0  0
  4  5  2  0  0  0
  5  6  1  0  0  0
  6  7  2  0  0  0
  7  8  1  0  0  0
  8  9  1  0  0  0
  9 10  1  0  0  0
 10 11  2  0  0  0
  8 25  1  0  0  0
 25 26  2  0  0  0
 26 27  1  0  0  0
 27 28  2  0  0  0
 28 31  1  0  0  0
 31 32  1  0  0  0
 32 33  1  0  0  0
 33 34  1  0  0  0
 34 35  1  0  0  0
 35 36  1  0  0  0
 36 37  1  0  0  0
 37 38  1  0  0  0
 38 39  1  0  0  0
 28 29  1  0  0  0
 29 30  2  0  0  0
  7 12  1  0  0  0
 12 13  2  0  0  0
 13 14  1  0  0  0
 14 15  2  0  0  0
 15 16  1  0  0  0
 15 17  1  0  0  0
 17 18  2  0  0  0
 18 19  1  0  0  0
 19 20  1  0  0  0
 20 21  1  0  0  0
 21 22  1  0  0  0
 11  2  1  0  0  0
 30 25  1  0  0  0
 18 12  1  0  0  0
 10  5  1  0  0  0
 39 34  1  0  0  0
 22  6  1  0  0  0
  1 23  1  0  0  0
 16 24  1  0  0  0
M  END
> <minimizedAffinity>
10.78337

> <CNNscore>
0.3235212266

> <CNNaffinity>
7.2295632362

> <CNN_VS>
2.3389172554

> <CNNaffinity_variance>
0.6062083244

$$$$
[H]Oc1c([H])c([H])c([H])c(N2C([H])([H])C([H])([H])c3c([H])c(O[H])c([H])c([H])c3C2(c2c([H])c([H])c(OC([H])([H])C([H])([H])N3C([H])([H])C([H])([H])C([H])([H])C([H])([H])C3([H])[H])c([H])c2[H])C([H])([H])[H])c1[H]


 36 40  0  0  0  0  0  0  0  0999 V2000
   11.1527   46.6425  131.0233 C   0  0  0  0  0  0  0  0  0  0  0  0
    9.7779   46.1899  130.6832 C   0  0  0  0  0  0  0  0  0  0  0  0
    9.0335   45.5875  131.7792 N   0  0  0  0  0  0  0  0  0  0  0  0
    7.7428   45.0196  131.3543 C   0  0  0  0  0  0  0  0  0  0  0  0
    6.8297   46.2411  131.2212 C   0  0  0  0  0  0  0  0  0  0  0  0
    7.5285   47.3142  130.4952 C   0  0  0  0  0  0  0  0  0  0  0  0
    6.7342   48.3833  130.0637 C   0  0  0  0  0  0  0  0  0  0  0  0
    7.2704   49.4500  129.3785 C   0  0  0  0  0  0  0  0  0  0  0  0
    6.4744   50.5201  128.9469 O   0  0  0  0  0  0  0  0  0  0  0  0
    8.6091   49.4617  129.1156 C   0  0  0  0  0  0  0  0  0  0  0  0
    9.3924   48.4087  129.5404 C   0  0  0  0  0  0  0  0  0  0  0  0
    8.8847   47.3211  130.2313 C   0  0  0  0  0  0  0  0  0  0  0  0
    5.4875   50.5436  129.1228 H   0  0  0  0  0  0  0  0  0  0  0  0
    9.3896   45.5397  133.1234 C   0  0  0  0  0  0  0  0  0  0  0  0
    8.9548   46.4213  134.1143 C   0  0  0  0  0  0  0  0  0  0  0  0
    9.3555   46.3335  135.4236 C   0  0  0  0  0  0  0  0  0  0  0  0
   10.2239   45.3445  135.8135 C   0  0  0  0  0  0  0  0  0  0  0  0
   10.6786   44.4566  134.8824 C   0  0  0  0  0  0  0  0  0  0  0  0
   11.5536   43.4473  135.2376 O   0  0  0  0  0  0  0  0  0  0  0  0
   10.2614   44.5675  133.5775 C   0  0  0  0  0  0  0  0  0  0  0  0
   12.5422   43.6487  135.1815 H   0  0  0  0  0  0  0  0  0  0  0  0
    9.9059   45.1358  129.6419 C   0  0  0  0  0  0  0  0  0  0  0  0
   10.3871   45.3228  128.3951 C   0  0  0  0  0  0  0  0  0  0  0  0
   10.4887   44.2664  127.5027 C   0  0  0  0  0  0  0  0  0  0  0  0
   10.1049   42.9968  127.8525 C   0  0  0  0  0  0  0  0  0  0  0  0
    9.6013   42.7952  129.1546 C   0  0  0  0  0  0  0  0  0  0  0  0
    9.5159   43.8487  130.0008 C   0  0  0  0  0  0  0  0  0  0  0  0
   10.1568   41.9010  127.0693 O   0  0  0  0  0  0  0  0  0  0  0  0
   10.4565   40.5809  127.2673 C   0  0  0  0  0  0  0  0  0  0  0  0
   10.0798   39.6571  126.1633 C   0  0  0  0  0  0  0  0  0  0  0  0
   11.2244   39.1330  125.4446 N   0  0  0  0  0  0  0  0  0  0  0  0
   11.5892   37.8107  125.8234 C   0  0  0  0  0  0  0  0  0  0  0  0
   12.8158   37.8563  126.7055 C   0  0  0  0  0  0  0  0  0  0  0  0
   14.0099   38.3350  125.8916 C   0  0  0  0  0  0  0  0  0  0  0  0
   13.6050   39.4303  124.9460 C   0  0  0  0  0  0  0  0  0  0  0  0
   12.3189   40.0762  125.4105 C   0  0  0  0  0  0  0  0  0  0  0  0
  1  2  1  0  0  0
  2  3  1  0  0  0
  3  4  1  0  0  0
  4  5  1  0  0  0
  5  6  1  0  0  0
  6  7  2  0  0  0
  7  8  1  0  0  0
  8  9  1  0  0  0
  8 10  2  0  0  0
 10 11  1  0  0  0
 11 12  2  0  0  0
  3 14  1  0  0  0
 14 15  2  0  0  0
 15 16  1  0  0  0
 16 17  2  0  0  0
 17 18  1  0  0  0
 18 19  1  0  0  0
 18 20  2  0  0  0
  2 22  1  0  0  0
 22 23  2  0  0  0
 23 24  1  0  0  0
 24 25  2  0  0  0
 25 28  1  0  0  0
 28 29  1  0  0  0
 29 30  1  0  0  0
 30 31  1  0  0  0
 31 32  1  0  0  0
 32 33  1  0  0  0
 33 34  1  0  0  0
 34 35  1  0  0  0
 35 36  1  0  0  0
 25 26  1  0  0  0
 26 27  2  0  0  0
 12  2  1  0  0  0
 20 14  1  0  0  0
 27 22  1  0  0  0
 12  6  1  0  0  0
 36 31  1  0  0  0
  9 13  1  0  0  0
 19 21  1  0  0  0
M  END
> <minimizedAffinity>
10.36124

> <CNNscore>
0.4813803136

> <CNNaffinity>
7.7043104172

> <CNN_VS>
3.7087032795

> <CNNaffinity_variance>
0.6540621519

$$$$
[H]Oc1c([H])c([H])c([H])c(N2C([H])([H])C([H])([H])c3c([H])c(O[H])c([H])c([H])c3C2(c2c([H])c([H])c(OC([H])([H])C([H])([H])N3C([H])([H])C([H])([H])C([H])([H])C([H])([H])C3([H])[H])c([H])c2[H])C([H])([H])[H])c1[H]


 36 40  0  0  0  0  0  0  0  0999 V2000
    7.5246   45.1095  132.0815 C   0  0  0  0  0  0  0  0  0  0  0  0
    8.6410   46.0797  132.2330 C   0  0  0  0  0  0  0  0  0  0  0  0
    8.5824   47.2364  131.3516 N   0  0  0  0  0  0  0  0  0  0  0  0
    9.7846   48.0831  131.4329 C   0  0  0  0  0  0  0  0  0  0  0  0
    9.5852   48.8818  132.7237 C   0  0  0  0  0  0  0  0  0  0  0  0
    9.1419   47.9868  133.8050 C   0  0  0  0  0  0  0  0  0  0  0  0
    9.1790   48.5201  135.0989 C   0  0  0  0  0  0  0  0  0  0  0  0
    8.7855   47.7847  136.1941 C   0  0  0  0  0  0  0  0  0  0  0  0
    8.8229   48.3195  137.4893 O   0  0  0  0  0  0  0  0  0  0  0  0
    8.3492   46.5053  136.0095 C   0  0  0  0  0  0  0  0  0  0  0  0
    8.3124   45.9790  134.7348 C   0  0  0  0  0  0  0  0  0  0  0  0
    8.7011   46.6916  133.6127 C   0  0  0  0  0  0  0  0  0  0  0  0
    9.1382   49.2558  137.6609 H   0  0  0  0  0  0  0  0  0  0  0  0
    7.5355   47.6177  130.5181 C   0  0  0  0  0  0  0  0  0  0  0  0
    6.5852   46.7622  129.9585 C   0  0  0  0  0  0  0  0  0  0  0  0
    5.5833   47.1962  129.1276 C   0  0  0  0  0  0  0  0  0  0  0  0
    5.4800   48.5277  128.8100 C   0  0  0  0  0  0  0  0  0  0  0  0
    6.3849   49.4058  129.3317 C   0  0  0  0  0  0  0  0  0  0  0  0
    6.3125   50.7538  129.0349 O   0  0  0  0  0  0  0  0  0  0  0  0
    7.3788   48.9442  130.1613 C   0  0  0  0  0  0  0  0  0  0  0  0
    6.8211   51.0788  128.2244 H   0  0  0  0  0  0  0  0  0  0  0  0
    9.8979   45.3624  131.8903 C   0  0  0  0  0  0  0  0  0  0  0  0
    9.9982   44.0424  131.6279 C   0  0  0  0  0  0  0  0  0  0  0  0
   11.2165   43.4711  131.2935 C   0  0  0  0  0  0  0  0  0  0  0  0
   12.3610   44.2233  131.2177 C   0  0  0  0  0  0  0  0  0  0  0  0
   12.2624   45.6037  131.4907 C   0  0  0  0  0  0  0  0  0  0  0  0
   11.0572   46.1292  131.8138 C   0  0  0  0  0  0  0  0  0  0  0  0
   13.5936   43.7754  130.9061 O   0  0  0  0  0  0  0  0  0  0  0  0
   14.3598   43.7537  129.7729 C   0  0  0  0  0  0  0  0  0  0  0  0
   13.6943   44.2296  128.5301 C   0  0  0  0  0  0  0  0  0  0  0  0
   12.3065   44.5962  128.7326 N   0  0  0  0  0  0  0  0  0  0  0  0
   11.3778   43.6197  128.2755 C   0  0  0  0  0  0  0  0  0  0  0  0
   10.7689   44.0720  126.9682 C   0  0  0  0  0  0  0  0  0  0  0  0
    9.9030   45.3008  127.2088 C   0  0  0  0  0  0  0  0  0  0  0  0
   10.5494   46.2206  128.2057 C   0  0  0  0  0  0  0  0  0  0  0  0
   12.0338   45.9445  128.2895 C   0  0  0  0  0  0  0  0  0  0  0  0
  1  2  1  0  0  0
  2  3  1  0  0  0
  3  4  1  0  0  0
  4  5  1  0  0  0
  5  6  1  0  0  0
  6  7  2  0  0  0
  7  8  1  0  0  0
  8  9  1  0  0  0
  8 10  2  0  0  0
 10 11  1  0  0  0
 11 12  2  0  0  0
  3 14  1  0  0  0
 14 15  2  0  0  0
 15 16  1  0  0  0
 16 17  2  0  0  0
 17 18  1  0  0  0
 18 19  1  0  0  0
 18 20  2  0  0  0
  2 22  1  0  0  0
 22 23  2  0  0  0
 23 24  1  0  0  0
 24 25  2  0  0  0
 25 28  1  0  0  0
 28 29  1  0  0  0
 29 30  1  0  0  0
 30 31  1  0  0  0
 31 32  1  0  0  0
 32 33  1  0  0  0
 33 34  1  0  0  0
 34 35  1  0  0  0
 35 36  1  0  0  0
 25 26  1  0  0  0
 26 27  2  0  0  0
 12  2  1  0  0  0
 20 14  1  0  0  0
 27 22  1  0  0  0
 12  6  1  0  0  0
 36 31  1  0  0  0
  9 13  1  0  0  0
 19 21  1  0  0  0
M  END
> <minimizedAffinity>
7.88293

> <CNNscore>
0.4454659522

> <CNNaffinity>
7.9952230453

> <CNN_VS>
3.5615997314

> <CNNaffinity_variance>
0.8901931047

$$$$
[H]Oc1c([H])c([H])c([H])c(N2C([H])([H])C([H])([H])c3c([H])c(O[H])c([H])c([H])c3C2(c2c([H])c([H])c(OC([H])([H])C([H])([H])N3C([H])([H])C([H])([H])C([H])([H])C([H])([H])C3([H])[H])c([H])c2[H])C([H])([H])[H])c1[H]


 36 40  0  0  0  0  0  0  0  0999 V2000
    7.4185   46.2184  131.9296 C   0  0  0  0  0  0  0  0  0  0  0  0
    8.2471   47.0995  131.0649 C   0  0  0  0  0  0  0  0  0  0  0  0
    7.5372   47.7357  129.9652 N   0  0  0  0  0  0  0  0  0  0  0  0
    8.4296   48.4711  129.0532 C   0  0  0  0  0  0  0  0  0  0  0  0
    8.7256   49.7744  129.8000 C   0  0  0  0  0  0  0  0  0  0  0  0
    9.0528   49.4849  131.2057 C   0  0  0  0  0  0  0  0  0  0  0  0
    9.6049   50.5420  131.9389 C   0  0  0  0  0  0  0  0  0  0  0  0
    9.9491   50.3987  133.2641 C   0  0  0  0  0  0  0  0  0  0  0  0
   10.5018   51.4577  133.9976 O   0  0  0  0  0  0  0  0  0  0  0  0
    9.7453   49.1953  133.8739 C   0  0  0  0  0  0  0  0  0  0  0  0
    9.2014   48.1532  133.1521 C   0  0  0  0  0  0  0  0  0  0  0  0
    8.8446   48.2642  131.8185 C   0  0  0  0  0  0  0  0  0  0  0  0
   10.6652   52.3549  133.5807 H   0  0  0  0  0  0  0  0  0  0  0  0
    6.1652   47.7486  129.7334 C   0  0  0  0  0  0  0  0  0  0  0  0
    5.3113   46.6488  129.8300 C   0  0  0  0  0  0  0  0  0  0  0  0
    3.9657   46.7200  129.5716 C   0  0  0  0  0  0  0  0  0  0  0  0
    3.3981   47.9128  129.1982 C   0  0  0  0  0  0  0  0  0  0  0  0
    4.1901   49.0186  129.0893 C   0  0  0  0  0  0  0  0  0  0  0  0
    3.6543   50.2368  128.7163 O   0  0  0  0  0  0  0  0  0  0  0  0
    5.5353   48.9192  129.3537 C   0  0  0  0  0  0  0  0  0  0  0  0
    3.6286   50.4500  127.7289 H   0  0  0  0  0  0  0  0  0  0  0  0
    9.2947   46.2470  130.4423 C   0  0  0  0  0  0  0  0  0  0  0  0
    9.0753   45.0748  129.8107 C   0  0  0  0  0  0  0  0  0  0  0  0
   10.1203   44.3643  129.2401 C   0  0  0  0  0  0  0  0  0  0  0  0
   11.4113   44.8243  129.2965 C   0  0  0  0  0  0  0  0  0  0  0  0
   11.6468   46.0493  129.9552 C   0  0  0  0  0  0  0  0  0  0  0  0
   10.6034   46.7175  130.5011 C   0  0  0  0  0  0  0  0  0  0  0  0
   12.4998   44.2185  128.7816 O   0  0  0  0  0  0  0  0  0  0  0  0
   13.6697   43.7277  129.2935 C   0  0  0  0  0  0  0  0  0  0  0  0
   13.7725   43.7113  130.7778 C   0  0  0  0  0  0  0  0  0  0  0  0
   12.5002   43.9260  131.4385 N   0  0  0  0  0  0  0  0  0  0  0  0
   12.5556   44.8601  132.5106 C   0  0  0  0  0  0  0  0  0  0  0  0
   12.5290   44.1209  133.8287 C   0  0  0  0  0  0  0  0  0  0  0  0
   11.1732   43.4525  134.0096 C   0  0  0  0  0  0  0  0  0  0  0  0
   10.6828   42.8828  132.7085 C   0  0  0  0  0  0  0  0  0  0  0  0
   11.8389   42.6805  131.7549 C   0  0  0  0  0  0  0  0  0  0  0  0
  1  2  1  0  0  0
  2  3  1  0  0  0
  3  4  1  0  0  0
  4  5  1  0  0  0
  5  6  1  0  0  0
  6  7  2  0  0  0
  7  8  1  0  0  0
  8  9  1  0  0  0
  8 10  2  0  0  0
 10 11  1  0  0  0
 11 12  2  0  0  0
  3 14  1  0  0  0
 14 15  2  0  0  0
 15 16  1  0  0  0
 16 17  2  0  0  0
 17 18  1  0  0  0
 18 19  1  0  0  0
 18 20  2  0  0  0
  2 22  1  0  0  0
 22 23  2  0  0  0
 23 24  1  0  0  0
 24 25  2  0  0  0
 25 28  1  0  0  0
 28 29  1  0  0  0
 29 30  1  0  0  0
 30 31  1  0  0  0
 31 32  1  0  0  0
 32 33  1  0  0  0
 33 34  1  0  0  0
 34 35  1  0  0  0
 35 36  1  0  0  0
 25 26  1  0  0  0
 26 27  2  0  0  0
 12  2  1  0  0  0
 20 14  1  0  0  0
 27 22  1  0  0  0
 12  6  1  0  0  0
 36 31  1  0  0  0
  9 13  1  0  0  0
 19 21  1  0  0  0
M  END
> <minimizedAffinity>
8.42223

> <CNNscore>
0.4440391660

> <CNNaffinity>
7.6509590149

> <CNN_VS>
3.3973255157

> <CNNaffinity_variance>
0.7053412199

$$$$
[H]Oc1c([H])c([H])c([H])c(N2C([H])([H])C([H])([H])c3c([H])c(O[H])c([H])c([H])c3C2(c2c([H])c([H])c(OC([H])([H])C([H])([H])N3C([H])([H])C([H])([H])C([H])([H])C([H])([H])C3([H])[H])c([H])c2[H])C([H])([H])[H])c1[H]


 36 40  0  0  0  0  0  0  0  0999 V2000
    9.8843   47.7633  131.6797 C   0  0  0  0  0  0  0  0  0  0  0  0
    9.1613   46.7068  130.9236 C   0  0  0  0  0  0  0  0  0  0  0  0
    7.9692   47.1536  130.2182 N   0  0  0  0  0  0  0  0  0  0  0  0
    7.2084   46.0461  129.6153 C   0  0  0  0  0  0  0  0  0  0  0  0
    7.9985   45.7034  128.3496 C   0  0  0  0  0  0  0  0  0  0  0  0
    9.4362   45.6341  128.6580 C   0  0  0  0  0  0  0  0  0  0  0  0
   10.2509   45.0698  127.6691 C   0  0  0  0  0  0  0  0  0  0  0  0
   11.6123   44.9528  127.8359 C   0  0  0  0  0  0  0  0  0  0  0  0
   12.4273   44.3877  126.8452 O   0  0  0  0  0  0  0  0  0  0  0  0
   12.1774   45.3992  128.9947 C   0  0  0  0  0  0  0  0  0  0  0  0
   11.3754   45.9552  129.9696 C   0  0  0  0  0  0  0  0  0  0  0  0
   10.0035   46.0874  129.8334 C   0  0  0  0  0  0  0  0  0  0  0  0
   12.0451   44.0495  125.9821 H   0  0  0  0  0  0  0  0  0  0  0  0
    7.5302   48.4612  130.0346 C   0  0  0  0  0  0  0  0  0  0  0  0
    8.3057   49.6113  130.1890 C   0  0  0  0  0  0  0  0  0  0  0  0
    7.8106   50.8784  130.0103 C   0  0  0  0  0  0  0  0  0  0  0  0
    6.4952   51.0614  129.6629 C   0  0  0  0  0  0  0  0  0  0  0  0
    5.6945   49.9687  129.4996 C   0  0  0  0  0  0  0  0  0  0  0  0
    4.3652   50.1136  129.1497 O   0  0  0  0  0  0  0  0  0  0  0  0
    6.2161   48.7106  129.6850 C   0  0  0  0  0  0  0  0  0  0  0  0
    3.6940   50.1978  129.9004 H   0  0  0  0  0  0  0  0  0  0  0  0
    8.7018   45.6941  131.9111 C   0  0  0  0  0  0  0  0  0  0  0  0
    8.3435   45.9520  133.1863 C   0  0  0  0  0  0  0  0  0  0  0  0
    7.9046   44.9380  134.0240 C   0  0  0  0  0  0  0  0  0  0  0  0
    7.8189   43.6398  133.5895 C   0  0  0  0  0  0  0  0  0  0  0  0
    8.1919   43.3641  132.2573 C   0  0  0  0  0  0  0  0  0  0  0  0
    8.6157   44.3779  131.4663 C   0  0  0  0  0  0  0  0  0  0  0  0
    7.4105   42.5790  134.3139 O   0  0  0  0  0  0  0  0  0  0  0  0
    7.9721   41.3913  134.6959 C   0  0  0  0  0  0  0  0  0  0  0  0
    9.4252   41.2400  134.4140 C   0  0  0  0  0  0  0  0  0  0  0  0
    9.9993   42.3941  133.7509 N   0  0  0  0  0  0  0  0  0  0  0  0
   10.4540   42.1341  132.4278 C   0  0  0  0  0  0  0  0  0  0  0  0
   11.9616   42.0272  132.4218 C   0  0  0  0  0  0  0  0  0  0  0  0
   12.5690   43.3851  132.7458 C   0  0  0  0  0  0  0  0  0  0  0  0
   11.7731   44.0834  133.8121 C   0  0  0  0  0  0  0  0  0  0  0  0
   10.9504   43.0833  134.5929 C   0  0  0  0  0  0  0  0  0  0  0  0
  1  2  1  0  0  0
  2  3  1  0  0  0
  3  4  1  0  0  0
  4  5  1  0  0  0
  5  6  1  0  0  0
  6  7  2  0  0  0
  7  8  1  0  0  0
  8  9  1  0  0  0
  8 10  2  0  0  0
 10 11  1  0  0  0
 11 12  2  0  0  0
  3 14  1  0  0  0
 14 15  2  0  0  0
 15 16  1  0  0  0
 16 17  2  0  0  0
 17 18  1  0  0  0
 18 19  1  0  0  0
 18 20  2  0  0  0
  2 22  1  0  0  0
 22 23  2  0  0  0
 23 24  1  0  0  0
 24 25  2  0  0  0
 25 28  1  0  0  0
 28 29  1  0  0  0
 29 30  1  0  0  0
 30 31  1  0  0  0
 31 32  1  0  0  0
 32 33  1  0  0  0
 33 34  1  0  0  0
 34 35  1  0  0  0
 35 36  1  0  0  0
 25 26  1  0  0  0
 26 27  2  0  0  0
 12  2  1  0  0  0
 20 14  1  0  0  0
 27 22  1  0  0  0
 12  6  1  0  0  0
 36 31  1  0  0  0
  9 13  1  0  0  0
 19 21  1  0  0  0
M  END
> <minimizedAffinity>
10.23254

> <CNNscore>
0.4372302890

> <CNNaffinity>
7.9730768204

> <CNN_VS>
3.4860706329

> <CNNaffinity_variance>
1.2350765467

$$$$
[H]Oc1c([H])c([H])c([H])c(N2C([H])([H])C([H])([H])c3c([H])c(O[H])c([H])c([H])c3C2(c2c([H])c([H])c(OC([H])([H])C([H])([H])N3C([H])([H])C([H])([H])C([H])([H])C([H])([H])C3([H])[H])c([H])c2[H])C([H])([H])[H])c1[H]


 36 40  0  0  0  0  0  0  0  0999 V2000
   11.3814   45.7388  130.3119 C   0  0  0  0  0  0  0  0  0  0  0  0
   10.7761   45.9915  131.6462 C   0  0  0  0  0  0  0  0  0  0  0  0
    9.9179   44.9295  132.1499 N   0  0  0  0  0  0  0  0  0  0  0  0
    9.2247   45.2930  133.3975 C   0  0  0  0  0  0  0  0  0  0  0  0
   10.2983   45.1275  134.4763 C   0  0  0  0  0  0  0  0  0  0  0  0
   11.5575   45.7466  134.0313 C   0  0  0  0  0  0  0  0  0  0  0  0
   12.5423   45.9112  135.0126 C   0  0  0  0  0  0  0  0  0  0  0  0
   13.7647   46.4732  134.7210 C   0  0  0  0  0  0  0  0  0  0  0  0
   14.7502   46.6377  135.7041 O   0  0  0  0  0  0  0  0  0  0  0  0
   14.0184   46.8782  133.4431 C   0  0  0  0  0  0  0  0  0  0  0  0
   13.0485   46.7164  132.4756 C   0  0  0  0  0  0  0  0  0  0  0  0
   11.8093   46.1553  132.7357 C   0  0  0  0  0  0  0  0  0  0  0  0
   14.5971   46.3516  136.6529 H   0  0  0  0  0  0  0  0  0  0  0  0
    9.7357   43.6580  131.6148 C   0  0  0  0  0  0  0  0  0  0  0  0
    8.7070   43.2757  130.7524 C   0  0  0  0  0  0  0  0  0  0  0  0
    8.5695   41.9986  130.2700 C   0  0  0  0  0  0  0  0  0  0  0  0
    9.4675   41.0253  130.6313 C   0  0  0  0  0  0  0  0  0  0  0  0
   10.4921   41.3480  131.4727 C   0  0  0  0  0  0  0  0  0  0  0  0
   11.4158   40.3948  131.8583 O   0  0  0  0  0  0  0  0  0  0  0  0
   10.6063   42.6350  131.9415 C   0  0  0  0  0  0  0  0  0  0  0  0
   11.2131   39.8626  132.6930 H   0  0  0  0  0  0  0  0  0  0  0  0
    9.9119   47.1950  131.5174 C   0  0  0  0  0  0  0  0  0  0  0  0
    8.7290   47.3784  132.1405 C   0  0  0  0  0  0  0  0  0  0  0  0
    8.0077   48.5507  131.9731 C   0  0  0  0  0  0  0  0  0  0  0  0
    8.4675   49.5636  131.1707 C   0  0  0  0  0  0  0  0  0  0  0  0
    9.7036   49.3777  130.5169 C   0  0  0  0  0  0  0  0  0  0  0  0
   10.3822   48.2210  130.7027 C   0  0  0  0  0  0  0  0  0  0  0  0
    7.8518   50.7391  130.9342 O   0  0  0  0  0  0  0  0  0  0  0  0
    6.9035   51.1766  130.0504 C   0  0  0  0  0  0  0  0  0  0  0  0
    7.1264   50.8112  128.6254 C   0  0  0  0  0  0  0  0  0  0  0  0
    6.6107   49.4994  128.2872 N   0  0  0  0  0  0  0  0  0  0  0  0
    5.3108   49.2382  128.8037 C   0  0  0  0  0  0  0  0  0  0  0  0
    5.4157   48.3199  129.9997 C   0  0  0  0  0  0  0  0  0  0  0  0
    5.9004   46.9494  129.5476 C   0  0  0  0  0  0  0  0  0  0  0  0
    6.9551   47.0815  128.4855 C   0  0  0  0  0  0  0  0  0  0  0  0
    7.5809   48.4573  128.5352 C   0  0  0  0  0  0  0  0  0  0  0  0
  1  2  1  0  0  0
  2  3  1  0  0  0
  3  4  1  0  0  0
  4  5  1  0  0  0
  5  6  1  0  0  0
  6  7  2  0  0  0
  7  8  1  0  0  0
  8  9  1  0  0  0
  8 10  2  0  0  0
 10 11  1  0  0  0
 11 12  2  0  0  0
  3 14  1  0  0  0
 14 15  2  0  0  0
 15 16  1  0  0  0
 16 17  2  0  0  0
 17 18  1  0  0  0
 18 19  1  0  0  0
 18 20  2  0  0  0
  2 22  1  0  0  0
 22 23  2  0  0  0
 23 24  1  0  0  0
 24 25  2  0  0  0
 25 28  1  0  0  0
 28 29  1  0  0  0
 29 30  1  0  0  0
 30 31  1  0  0  0
 31 32  1  0  0  0
 32 33  1  0  0  0
 33 34  1  0  0  0
 34 35  1  0  0  0
 35 36  1  0  0  0
 25 26  1  0  0  0
 26 27  2  0  0  0
 12  2  1  0  0  0
 20 14  1  0  0  0
 27 22  1  0  0  0
 12  6  1  0  0  0
 36 31  1  0  0  0
  9 13  1  0  0  0
 19 21  1  0  0  0
M  END
> <minimizedAffinity>
11.27256

> <CNNscore>
0.4210455418

> <CNNaffinity>
7.7775793076

> <CNN_VS>
3.2747151852

> <CNNaffinity_variance>
0.9898403287

$$$$
[H]Oc1c([H])c([H])c([H])c(N2C([H])([H])C([H])([H])c3c([H])c(O[H])c([H])c([H])c3C2(c2c([H])c([H])c(OC([H])([H])C([H])([H])N3C([H])([H])C([H])([H])C([H])([H])C([H])([H])C3([H])[H])c([H])c2[H])C([H])([H])[H])c1[H]


 36 40  0  0  0  0  0  0  0  0999 V2000
   11.0954   47.5423  129.4847 C   0  0  0  0  0  0  0  0  0  0  0  0
   10.2331   46.4766  130.0604 C   0  0  0  0  0  0  0  0  0  0  0  0
    8.9342   46.9218  130.5429 N   0  0  0  0  0  0  0  0  0  0  0  0
    8.1852   45.8623  131.2396 C   0  0  0  0  0  0  0  0  0  0  0  0
    7.6242   45.0015  130.1047 C   0  0  0  0  0  0  0  0  0  0  0  0
    8.6743   44.7386  129.1071 C   0  0  0  0  0  0  0  0  0  0  0  0
    8.3877   43.7497  128.1585 C   0  0  0  0  0  0  0  0  0  0  0  0
    9.2864   43.4152  127.1708 C   0  0  0  0  0  0  0  0  0  0  0  0
    8.9987   42.4250  126.2213 O   0  0  0  0  0  0  0  0  0  0  0  0
   10.4845   44.0658  127.1188 C   0  0  0  0  0  0  0  0  0  0  0  0
   10.7677   45.0402  128.0533 C   0  0  0  0  0  0  0  0  0  0  0  0
    9.8863   45.4002  129.0591 C   0  0  0  0  0  0  0  0  0  0  0  0
    8.1283   41.9271  126.2305 H   0  0  0  0  0  0  0  0  0  0  0  0
    8.3497   48.1737  130.3779 C   0  0  0  0  0  0  0  0  0  0  0  0
    8.9226   49.3950  130.7360 C   0  0  0  0  0  0  0  0  0  0  0  0
    8.2880   50.5994  130.5639 C   0  0  0  0  0  0  0  0  0  0  0  0
    7.0299   50.6432  130.0166 C   0  0  0  0  0  0  0  0  0  0  0  0
    6.4257   49.4761  129.6494 C   0  0  0  0  0  0  0  0  0  0  0  0
    5.1596   49.4807  129.0949 O   0  0  0  0  0  0  0  0  0  0  0  0
    7.0838   48.2835  129.8332 C   0  0  0  0  0  0  0  0  0  0  0  0
    4.3751   49.4110  129.7280 H   0  0  0  0  0  0  0  0  0  0  0  0
   10.9458   45.9237  131.2429 C   0  0  0  0  0  0  0  0  0  0  0  0
   11.6002   46.6514  132.1720 C   0  0  0  0  0  0  0  0  0  0  0  0
   12.2150   46.0410  133.2545 C   0  0  0  0  0  0  0  0  0  0  0  0
   12.1815   44.6798  133.4206 C   0  0  0  0  0  0  0  0  0  0  0  0
   11.4987   43.9139  132.4527 C   0  0  0  0  0  0  0  0  0  0  0  0
   10.9091   44.5421  131.4082 C   0  0  0  0  0  0  0  0  0  0  0  0
   12.7437   43.9827  134.4280 O   0  0  0  0  0  0  0  0  0  0  0  0
   12.3133   43.5065  135.6362 C   0  0  0  0  0  0  0  0  0  0  0  0
   10.9412   43.9139  136.0431 C   0  0  0  0  0  0  0  0  0  0  0  0
   10.3390   44.8700  135.1352 N   0  0  0  0  0  0  0  0  0  0  0  0
   10.4224   46.2198  135.5780 C   0  0  0  0  0  0  0  0  0  0  0  0
    9.0795   46.6618  136.1125 C   0  0  0  0  0  0  0  0  0  0  0  0
    8.0734   46.7236  134.9716 C   0  0  0  0  0  0  0  0  0  0  0  0
    8.2718   45.5744  134.0240 C   0  0  0  0  0  0  0  0  0  0  0  0
    9.0227   44.4538  134.7077 C   0  0  0  0  0  0  0  0  0  0  0  0
  1  2  1  0  0  0
  2  3  1  0  0  0
  3  4  1  0  0  0
  4  5  1  0  0  0
  5  6  1  0  0  0
  6  7  2  0  0  0
  7  8  1  0  0  0
  8  9  1  0  0  0
  8 10  2  0  0  0
 10 11  1  0  0  0
 11 12  2  0  0  0
  3 14  1  0  0  0
 14 15  2  0  0  0
 15 16  1  0  0  0
 16 17  2  0  0  0
 17 18  1  0  0  0
 18 19  1  0  0  0
 18 20  2  0  0  0
  2 22  1  0  0  0
 22 23  2  0  0  0
 23 24  1  0  0  0
 24 25  2  0  0  0
 25 28  1  0  0  0
 28 29  1  0  0  0
 29 30  1  0  0  0
 30 31  1  0  0  0
 31 32  1  0  0  0
 32 33  1  0  0  0
 33 34  1  0  0  0
 34 35  1  0  0  0
 35 36  1  0  0  0
 25 26  1  0  0  0
 26 27  2  0  0  0
 12  2  1  0  0  0
 20 14  1  0  0  0
 27 22  1  0  0  0
 12  6  1  0  0  0
 36 31  1  0  0  0
  9 13  1  0  0  0
 19 21  1  0  0  0
M  END
> <minimizedAffinity>
4.51763

> <CNNscore>
0.4191656709

> <CNNaffinity>
7.9559645653

> <CNN_VS>
3.3348672390

> <CNNaffinity_variance>
0.6776171923

$$$$
[H]Oc1c([H])c([H])c([H])c(N2C([H])([H])C([H])([H])c3c([H])c(O[H])c([H])c([H])c3C2(c2c([H])c([H])c(OC([H])([H])C([H])([H])N3C([H])([H])C([H])([H])C([H])([H])C([H])([H])C3([H])[H])c([H])c2[H])C([H])([H])[H])c1[H]


 36 40  0  0  0  0  0  0  0  0999 V2000
    7.7876   44.5543  130.1762 C   0  0  0  0  0  0  0  0  0  0  0  0
    8.2664   45.9220  130.5091 C   0  0  0  0  0  0  0  0  0  0  0  0
    9.5307   46.3033  129.8972 N   0  0  0  0  0  0  0  0  0  0  0  0
   10.0345   47.6008  130.3784 C   0  0  0  0  0  0  0  0  0  0  0  0
    9.1949   48.6276  129.6139 C   0  0  0  0  0  0  0  0  0  0  0  0
    7.7752   48.2399  129.6458 C   0  0  0  0  0  0  0  0  0  0  0  0
    6.8620   49.2140  129.2251 C   0  0  0  0  0  0  0  0  0  0  0  0
    5.5070   48.9718  129.2044 C   0  0  0  0  0  0  0  0  0  0  0  0
    4.5933   49.9477  128.7829 O   0  0  0  0  0  0  0  0  0  0  0  0
    5.0472   47.7512  129.6046 C   0  0  0  0  0  0  0  0  0  0  0  0
    5.9464   46.7909  130.0194 C   0  0  0  0  0  0  0  0  0  0  0  0
    7.3147   47.0023  130.0523 C   0  0  0  0  0  0  0  0  0  0  0  0
    4.8967   50.8550  128.4827 H   0  0  0  0  0  0  0  0  0  0  0  0
   10.2453   45.6139  128.9225 C   0  0  0  0  0  0  0  0  0  0  0  0
    9.7644   45.2479  127.6644 C   0  0  0  0  0  0  0  0  0  0  0  0
   10.5132   44.5515  126.7495 C   0  0  0  0  0  0  0  0  0  0  0  0
   11.7999   44.1809  127.0516 C   0  0  0  0  0  0  0  0  0  0  0  0
   12.3175   44.5149  128.2691 C   0  0  0  0  0  0  0  0  0  0  0  0
   13.6093   44.1593  128.6087 O   0  0  0  0  0  0  0  0  0  0  0  0
   11.5455   45.2127  129.1671 C   0  0  0  0  0  0  0  0  0  0  0  0
   13.7409   43.2663  129.0629 H   0  0  0  0  0  0  0  0  0  0  0  0
    8.4889   45.9655  131.9789 C   0  0  0  0  0  0  0  0  0  0  0  0
    7.6750   45.4241  132.9093 C   0  0  0  0  0  0  0  0  0  0  0  0
    7.9842   45.4979  134.2589 C   0  0  0  0  0  0  0  0  0  0  0  0
    9.1243   46.1221  134.6971 C   0  0  0  0  0  0  0  0  0  0  0  0
    9.9791   46.6897  133.7292 C   0  0  0  0  0  0  0  0  0  0  0  0
    9.6473   46.5993  132.4197 C   0  0  0  0  0  0  0  0  0  0  0  0
    9.5216   46.2551  135.9783 O   0  0  0  0  0  0  0  0  0  0  0  0
   10.4427   45.6349  136.7774 C   0  0  0  0  0  0  0  0  0  0  0  0
   10.4737   44.1493  136.7000 C   0  0  0  0  0  0  0  0  0  0  0  0
   11.2977   43.6532  135.6154 N   0  0  0  0  0  0  0  0  0  0  0  0
   12.4697   44.4252  135.3798 C   0  0  0  0  0  0  0  0  0  0  0  0
   12.2733   45.2825  134.1506 C   0  0  0  0  0  0  0  0  0  0  0  0
   12.1806   44.3923  132.9191 C   0  0  0  0  0  0  0  0  0  0  0  0
   11.3928   43.1485  133.2195 C   0  0  0  0  0  0  0  0  0  0  0  0
   10.5177   43.3619  134.4342 C   0  0  0  0  0  0  0  0  0  0  0  0
  1  2  1  0  0  0
  2  3  1  0  0  0
  3  4  1  0  0  0
  4  5  1  0  0  0
  5  6  1  0  0  0
  6  7  2  0  0  0
  7  8  1  0  0  0
  8  9  1  0  0  0
  8 10  2  0  0  0
 10 11  1  0  0  0
 11 12  2  0  0  0
  3 14  1  0  0  0
 14 15  2  0  0  0
 15 16  1  0  0  0
 16 17  2  0  0  0
 17 18  1  0  0  0
 18 19  1  0  0  0
 18 20  2  0  0  0
  2 22  1  0  0  0
 22 23  2  0  0  0
 23 24  1  0  0  0
 24 25  2  0  0  0
 25 28  1  0  0  0
 28 29  1  0  0  0
 29 30  1  0  0  0
 30 31  1  0  0  0
 31 32  1  0  0  0
 32 33  1  0  0  0
 33 34  1  0  0  0
 34 35  1  0  0  0
 35 36  1  0  0  0
 25 26  1  0  0  0
 26 27  2  0  0  0
 12  2  1  0  0  0
 20 14  1  0  0  0
 27 22  1  0  0  0
 12  6  1  0  0  0
 36 31  1  0  0  0
  9 13  1  0  0  0
 19 21  1  0  0  0
M  END
> <minimizedAffinity>
5.94547

> <CNNscore>
0.4062187970

> <CNNaffinity>
7.8170752525

> <CNN_VS>
3.1754429340

> <CNNaffinity_variance>
0.7056435347

$$$$
[H]Oc1c([H])c([H])c([H])c(N2C([H])([H])C([H])([H])c3c([H])c(O[H])c([H])c([H])c3C2(c2c([H])c([H])c(OC([H])([H])C([H])([H])N3C([H])([H])C([H])([H])C([H])([H])C([H])([H])C3([H])[H])c([H])c2[H])C([H])([H])[H])c1[H]


 36 40  0  0  0  0  0  0  0  0999 V2000
   10.8252   48.1050  131.6175 C   0  0  0  0  0  0  0  0  0  0  0  0
    9.5539   47.5099  131.1273 C   0  0  0  0  0  0  0  0  0  0  0  0
    8.7277   46.8826  132.1482 N   0  0  0  0  0  0  0  0  0  0  0  0
    7.5610   46.1775  131.5909 C   0  0  0  0  0  0  0  0  0  0  0  0
    6.5678   47.2999  131.2787 C   0  0  0  0  0  0  0  0  0  0  0  0
    7.2576   48.4054  130.5941 C   0  0  0  0  0  0  0  0  0  0  0  0
    6.4350   49.3758  130.0096 C   0  0  0  0  0  0  0  0  0  0  0  0
    6.9595   50.4611  129.3448 C   0  0  0  0  0  0  0  0  0  0  0  0
    6.1351   51.4323  128.7598 O   0  0  0  0  0  0  0  0  0  0  0  0
    8.3148   50.5905  129.2559 C   0  0  0  0  0  0  0  0  0  0  0  0
    9.1261   49.6348  129.8315 C   0  0  0  0  0  0  0  0  0  0  0  0
    8.6307   48.5317  130.5067 C   0  0  0  0  0  0  0  0  0  0  0  0
    5.1355   51.3681  128.8060 H   0  0  0  0  0  0  0  0  0  0  0  0
    8.9050   46.9221  133.5277 C   0  0  0  0  0  0  0  0  0  0  0  0
    8.4679   47.9394  134.3775 C   0  0  0  0  0  0  0  0  0  0  0  0
    8.6883   47.9307  135.7318 C   0  0  0  0  0  0  0  0  0  0  0  0
    9.3668   46.8884  136.3127 C   0  0  0  0  0  0  0  0  0  0  0  0
    9.8153   45.8683  135.5252 C   0  0  0  0  0  0  0  0  0  0  0  0
   10.5020   44.8019  136.0744 O   0  0  0  0  0  0  0  0  0  0  0  0
    9.5811   45.9022  134.1712 C   0  0  0  0  0  0  0  0  0  0  0  0
   11.5075   44.8795  136.1364 H   0  0  0  0  0  0  0  0  0  0  0  0
    9.9130   46.4326  130.1669 C   0  0  0  0  0  0  0  0  0  0  0  0
   11.1603   45.9686  129.9431 C   0  0  0  0  0  0  0  0  0  0  0  0
   11.3889   44.9407  129.0411 C   0  0  0  0  0  0  0  0  0  0  0  0
   10.3598   44.3598  128.3447 C   0  0  0  0  0  0  0  0  0  0  0  0
    9.0537   44.8405  128.5747 C   0  0  0  0  0  0  0  0  0  0  0  0
    8.8659   45.8451  129.4626 C   0  0  0  0  0  0  0  0  0  0  0  0
   10.4655   43.3609  127.4459 O   0  0  0  0  0  0  0  0  0  0  0  0
   10.1598   42.0274  127.4375 C   0  0  0  0  0  0  0  0  0  0  0  0
    9.8793   41.4174  128.7653 C   0  0  0  0  0  0  0  0  0  0  0  0
    9.7705   42.3958  129.8293 N   0  0  0  0  0  0  0  0  0  0  0  0
   10.9360   42.5018  130.6388 C   0  0  0  0  0  0  0  0  0  0  0  0
   10.7017   41.8032  131.9585 C   0  0  0  0  0  0  0  0  0  0  0  0
    9.6466   42.5594  132.7539 C   0  0  0  0  0  0  0  0  0  0  0  0
    8.5522   43.0539  131.8508 C   0  0  0  0  0  0  0  0  0  0  0  0
    8.5338   42.2592  130.5644 C   0  0  0  0  0  0  0  0  0  0  0  0
  1  2  1  0  0  0
  2  3  1  0  0  0
  3  4  1  0  0  0
  4  5  1  0  0  0
  5  6  1  0  0  0
  6  7  2  0  0  0
  7  8  1  0  0  0
  8  9  1  0  0  0
  8 10  2  0  0  0
 10 11  1  0  0  0
 11 12  2  0  0  0
  3 14  1  0  0  0
 14 15  2  0  0  0
 15 16  1  0  0  0
 16 17  2  0  0  0
 17 18  1  0  0  0
 18 19  1  0  0  0
 18 20  2  0  0  0
  2 22  1  0  0  0
 22 23  2  0  0  0
 23 24  1  0  0  0
 24 25  2  0  0  0
 25 28  1  0  0  0
 28 29  1  0  0  0
 29 30  1  0  0  0
 30 31  1  0  0  0
 31 32  1  0  0  0
 32 33  1  0  0  0
 33 34  1  0  0  0
 34 35  1  0  0  0
 35 36  1  0  0  0
 25 26  1  0  0  0
 26 27  2  0  0  0
 12  2  1  0  0  0
 20 14  1  0  0  0
 27 22  1  0  0  0
 12  6  1  0  0  0
 36 31  1  0  0  0
  9 13  1  0  0  0
 19 21  1  0  0  0
M  END
> <minimizedAffinity>
5.41882

> <CNNscore>
0.4026226699

> <CNNaffinity>
7.7811880112

> <CNN_VS>
3.1328825951

> <CNNaffinity_variance>
0.5963246822

$$$$
[H]Oc1c([H])c([H])c([H])c(N2C([H])([H])C([H])([H])c3c([H])c(O[H])c([H])c([H])c3C2(c2c([H])c([H])c(OC([H])([H])C([H])([H])N3C([H])([H])C([H])([H])C([H])([H])C([H])([H])C3([H])[H])c([H])c2[H])C([H])([H])[H])c1[H]


 36 40  0  0  0  0  0  0  0  0999 V2000
    8.9859   44.6048  129.8005 C   0  0  0  0  0  0  0  0  0  0  0  0
   10.0331   45.1872  130.6806 C   0  0  0  0  0  0  0  0  0  0  0  0
   10.0342   44.6986  132.0516 N   0  0  0  0  0  0  0  0  0  0  0  0
   10.9857   45.4158  132.9172 C   0  0  0  0  0  0  0  0  0  0  0  0
   12.3434   44.8096  132.5526 C   0  0  0  0  0  0  0  0  0  0  0  0
   12.4774   44.7205  131.0894 C   0  0  0  0  0  0  0  0  0  0  0  0
   13.7608   44.4407  130.6052 C   0  0  0  0  0  0  0  0  0  0  0  0
   14.0146   44.3275  129.2569 C   0  0  0  0  0  0  0  0  0  0  0  0
   15.2999   44.0473  128.7729 O   0  0  0  0  0  0  0  0  0  0  0  0
   12.9872   44.4927  128.3744 C   0  0  0  0  0  0  0  0  0  0  0  0
   11.7223   44.7685  128.8508 C   0  0  0  0  0  0  0  0  0  0  0  0
   11.4336   44.8889  130.1999 C   0  0  0  0  0  0  0  0  0  0  0  0
   16.0775   43.9204  129.3932 H   0  0  0  0  0  0  0  0  0  0  0  0
    9.2920   43.6467  132.5797 C   0  0  0  0  0  0  0  0  0  0  0  0
    7.9772   43.3247  132.2396 C   0  0  0  0  0  0  0  0  0  0  0  0
    7.2898   42.2826  132.8091 C   0  0  0  0  0  0  0  0  0  0  0  0
    7.8921   41.4986  133.7613 C   0  0  0  0  0  0  0  0  0  0  0  0
    9.1774   41.7718  134.1290 C   0  0  0  0  0  0  0  0  0  0  0  0
    9.8169   41.0042  135.0841 O   0  0  0  0  0  0  0  0  0  0  0  0
    9.8429   42.8220  133.5428 C   0  0  0  0  0  0  0  0  0  0  0  0
    9.7305   41.2952  136.0479 H   0  0  0  0  0  0  0  0  0  0  0  0
    9.7760   46.6497  130.7634 C   0  0  0  0  0  0  0  0  0  0  0  0
   10.4431   47.6009  130.0770 C   0  0  0  0  0  0  0  0  0  0  0  0
   10.1105   48.9408  130.2060 C   0  0  0  0  0  0  0  0  0  0  0  0
    9.0951   49.3479  131.0334 C   0  0  0  0  0  0  0  0  0  0  0  0
    8.3939   48.3581  131.7534 C   0  0  0  0  0  0  0  0  0  0  0  0
    8.7444   47.0589  131.6037 C   0  0  0  0  0  0  0  0  0  0  0  0
    8.6893   50.6170  131.2373 O   0  0  0  0  0  0  0  0  0  0  0  0
    7.8122   51.4658  130.6193 C   0  0  0  0  0  0  0  0  0  0  0  0
    7.0489   50.8925  129.4779 C   0  0  0  0  0  0  0  0  0  0  0  0
    6.8029   49.4705  129.6152 N   0  0  0  0  0  0  0  0  0  0  0  0
    7.4334   48.6756  128.6175 C   0  0  0  0  0  0  0  0  0  0  0  0
    6.4073   48.2303  127.6010 C   0  0  0  0  0  0  0  0  0  0  0  0
    5.4273   47.2669  128.2561 C   0  0  0  0  0  0  0  0  0  0  0  0
    5.0986   47.7105  129.6536 C   0  0  0  0  0  0  0  0  0  0  0  0
    5.4020   49.1823  129.8224 C   0  0  0  0  0  0  0  0  0  0  0  0
  1  2  1  0  0  0
  2  3  1  0  0  0
  3  4  1  0  0  0
  4  5  1  0  0  0
  5  6  1  0  0  0
  6  7  2  0  0  0
  7  8  1  0  0  0
  8  9  1  0  0  0
  8 10  2  0  0  0
 10 11  1  0  0  0
 11 12  2  0  0  0
  3 14  1  0  0  0
 14 15  2  0  0  0
 15 16  1  0  0  0
 16 17  2  0  0  0
 17 18  1  0  0  0
 18 19  1  0  0  0
 18 20  2  0  0  0
  2 22  1  0  0  0
 22 23  2  0  0  0
 23 24  1  0  0  0
 24 25  2  0  0  0
 25 28  1  0  0  0
 28 29  1  0  0  0
 29 30  1  0  0  0
 30 31  1  0  0  0
 31 32  1  0  0  0
 32 33  1  0  0  0
 33 34  1  0  0  0
 34 35  1  0  0  0
 35 36  1  0  0  0
 25 26  1  0  0  0
 26 27  2  0  0  0
 12  2  1  0  0  0
 20 14  1  0  0  0
 27 22  1  0  0  0
 12  6  1  0  0  0
 36 31  1  0  0  0
  9 13  1  0  0  0
 19 21  1  0  0  0
M  END
> <minimizedAffinity>
6.68516

> <CNNscore>
0.3986883163

> <CNNaffinity>
7.6670327187

> <CNN_VS>
3.0567562580

> <CNNaffinity_variance>
0.8202886581

$$$$
[H]c1c([H])c([C@]2([H])c3c(c4c([H])c([H])c([H])c([H])c4n3[H])C([H])([H])[C@@]([H])(C([H])([H])[H])N2C([H])([H])C2(F)C([H])([H])OC2([H])[H])c([H])c([H])c1OC([H])([H])[C@@]([H])(N([H])C([H])([H])C([H])([H])C([H])([H])F)C([H])([H])[H]


 37 41  0  0  0  0  0  0  0  0999 V2000
    9.3806   44.8496  130.7652 C   0  0  0  0  0  0  0  0  0  0  0  0
   10.6799   44.2631  130.6284 N   0  0  0  0  0  0  0  0  0  0  0  0
   10.4194   42.9797  129.9325 C   0  0  0  0  0  0  0  0  0  0  0  0
   10.4250   43.2730  128.4203 C   0  0  0  0  0  0  0  0  0  0  0  0
    9.0966   42.3759  130.2438 C   0  0  0  0  0  0  0  0  0  0  0  0
    8.4838   42.7564  131.5242 C   0  0  0  0  0  0  0  0  0  0  0  0
    8.6403   44.1234  131.8249 C   0  0  0  0  0  0  0  0  0  0  0  0
    8.0649   44.3608  132.9911 N   0  0  0  0  0  0  0  0  0  0  0  0
    7.5466   43.2005  133.4473 C   0  0  0  0  0  0  0  0  0  0  0  0
    6.8494   42.8583  134.5898 C   0  0  0  0  0  0  0  0  0  0  0  0
    6.4390   41.5615  134.7892 C   0  0  0  0  0  0  0  0  0  0  0  0
    6.6963   40.5451  133.8758 C   0  0  0  0  0  0  0  0  0  0  0  0
    7.3948   40.8780  132.7274 C   0  0  0  0  0  0  0  0  0  0  0  0
    7.7956   42.1664  132.5406 C   0  0  0  0  0  0  0  0  0  0  0  0
    8.0322   45.3019  133.4553 H   0  0  0  0  0  0  0  0  0  0  0  0
    8.8983   49.1177  130.4442 C   0  0  0  0  0  0  0  0  0  0  0  0
    8.8002   48.4382  131.6826 C   0  0  0  0  0  0  0  0  0  0  0  0
    8.9618   47.0843  131.8130 C   0  0  0  0  0  0  0  0  0  0  0  0
    9.2297   46.2863  130.7541 C   0  0  0  0  0  0  0  0  0  0  0  0
    9.3356   46.9189  129.5070 C   0  0  0  0  0  0  0  0  0  0  0  0
    9.1723   48.2855  129.3755 C   0  0  0  0  0  0  0  0  0  0  0  0
    8.7322   50.4157  130.3705 O   0  0  0  0  0  0  0  0  0  0  0  0
    7.9946   51.4900  130.1974 C   0  0  0  0  0  0  0  0  0  0  0  0
    5.5496   51.3504  130.8532 C   0  0  0  0  0  0  0  0  0  0  0  0
    6.5591   51.3760  129.7641 C   0  0  0  0  0  0  0  0  0  0  0  0
    6.3553   50.3799  128.7226 N   0  0  0  0  0  0  0  0  0  0  0  0
    7.2924   49.9740  128.5157 H   0  0  0  0  0  0  0  0  0  0  0  0
    5.5131   49.2958  129.2509 C   0  0  0  0  0  0  0  0  0  0  0  0
    5.9302   48.0317  128.5469 C   0  0  0  0  0  0  0  0  0  0  0  0
    5.2675   46.8593  129.2715 C   0  0  0  0  0  0  0  0  0  0  0  0
    6.1243   46.4881  130.2917 F   0  0  0  0  0  0  0  0  0  0  0  0
   11.3704   43.9482  131.8250 C   0  0  0  0  0  0  0  0  0  0  0  0
   12.0260   45.0387  132.5800 C   0  0  0  0  0  0  0  0  0  0  0  0
   12.3028   46.2068  131.8529 F   0  0  0  0  0  0  0  0  0  0  0  0
   11.1660   45.5302  133.7800 C   0  0  0  0  0  0  0  0  0  0  0  0
   12.3707   45.9759  134.3231 O   0  0  0  0  0  0  0  0  0  0  0  0
   12.9478   44.8478  133.6865 C   0  0  0  0  0  0  0  0  0  0  0  0
 24 25  1  0  0  0
 25 23  1  0  0  0
 23 22  1  0  0  0
 22 16  1  0  0  0
 16 17  2  0  0  0
 17 18  1  0  0  0
 18 19  2  0  0  0
 19 20  1  0  0  0
 20 21  2  0  0  0
 19  1  1  0  0  0
  1  2  1  0  0  0
  2 32  1  0  0  0
 32 33  1  0  0  0
 33 34  1  0  0  0
 33 35  1  0  0  0
 35 36  1  0  0  0
 36 37  1  0  0  0
  2  3  1  0  0  0
  3  4  1  0  0  0
  3  5  1  0  0  0
  5  6  1  0  0  0
  6  7  2  0  0  0
  7  8  1  0  0  0
  8  9  1  0  0  0
  9 10  2  0  0  0
 10 11  1  0  0  0
 11 12  2  0  0  0
 12 13  1  0  0  0
 13 14  2  0  0  0
 25 26  1  0  0  0
 26 28  1  0  0  0
 28 29  1  0  0  0
 29 30  1  0  0  0
 30 31  1  0  0  0
 21 16  1  0  0  0
  7  1  1  0  0  0
 14  9  1  0  0  0
 37 33  1  0  0  0
 14  6  1  0  0  0
  8 15  1  0  0  0
 26 27  1  0  0  0
M  END
> <minimizedAffinity>
11.38204

> <CNNscore>
0.4845620096

> <CNNaffinity>
8.1205759048

> <CNN_VS>
3.9349226952

> <CNNaffinity_variance>
1.0201432705

$$$$
[H]c1c([H])c([C@]2([H])c3c(c4c([H])c([H])c([H])c([H])c4n3[H])C([H])([H])[C@@]([H])(C([H])([H])[H])N2C([H])([H])C2(F)C([H])([H])OC2([H])[H])c([H])c([H])c1OC([H])([H])[C@@]([H])(N([H])C([H])([H])C([H])([H])C([H])([H])F)C([H])([H])[H]


 37 41  0  0  0  0  0  0  0  0999 V2000
    9.6675   46.4889  131.3943 C   0  0  0  0  0  0  0  0  0  0  0  0
    9.0986   47.2792  130.3443 N   0  0  0  0  0  0  0  0  0  0  0  0
    9.7260   48.6112  130.5216 C   0  0  0  0  0  0  0  0  0  0  0  0
   11.0574   48.5935  129.7470 C   0  0  0  0  0  0  0  0  0  0  0  0
   10.0589   48.9444  131.9321 C   0  0  0  0  0  0  0  0  0  0  0  0
    9.2820   48.2561  132.9724 C   0  0  0  0  0  0  0  0  0  0  0  0
    9.0550   46.8969  132.6815 C   0  0  0  0  0  0  0  0  0  0  0  0
    8.3470   46.3735  133.6676 N   0  0  0  0  0  0  0  0  0  0  0  0
    8.1131   47.3436  134.5771 C   0  0  0  0  0  0  0  0  0  0  0  0
    7.4387   47.3699  135.7825 C   0  0  0  0  0  0  0  0  0  0  0  0
    7.3630   48.5344  136.5092 C   0  0  0  0  0  0  0  0  0  0  0  0
    7.9455   49.7230  136.0832 C   0  0  0  0  0  0  0  0  0  0  0  0
    8.6236   49.7069  134.8760 C   0  0  0  0  0  0  0  0  0  0  0  0
    8.6924   48.5470  134.1651 C   0  0  0  0  0  0  0  0  0  0  0  0
    8.0371   45.3713  133.7077 H   0  0  0  0  0  0  0  0  0  0  0  0
   10.5429   42.3000  130.9054 C   0  0  0  0  0  0  0  0  0  0  0  0
    9.2169   42.7880  130.9987 C   0  0  0  0  0  0  0  0  0  0  0  0
    8.9119   44.1156  131.1419 C   0  0  0  0  0  0  0  0  0  0  0  0
    9.8677   45.0707  131.2062 C   0  0  0  0  0  0  0  0  0  0  0  0
   11.1963   44.6307  131.1173 C   0  0  0  0  0  0  0  0  0  0  0  0
   11.5041   43.2906  130.9730 C   0  0  0  0  0  0  0  0  0  0  0  0
   10.7836   41.0185  130.7723 O   0  0  0  0  0  0  0  0  0  0  0  0
   10.5783   39.8436  130.2195 C   0  0  0  0  0  0  0  0  0  0  0  0
    8.7224   38.4436  129.2081 C   0  0  0  0  0  0  0  0  0  0  0  0
    9.5522   39.6732  129.1336 C   0  0  0  0  0  0  0  0  0  0  0  0
   10.0691   39.9783  127.8077 N   0  0  0  0  0  0  0  0  0  0  0  0
   10.6863   40.8108  127.9165 H   0  0  0  0  0  0  0  0  0  0  0  0
   10.9118   38.8627  127.3505 C   0  0  0  0  0  0  0  0  0  0  0  0
   11.3924   39.2125  125.9670 C   0  0  0  0  0  0  0  0  0  0  0  0
   12.7267   38.4982  125.7472 C   0  0  0  0  0  0  0  0  0  0  0  0
   13.0134   37.8238  126.9201 F   0  0  0  0  0  0  0  0  0  0  0  0
    7.6961   47.4783  130.3794 C   0  0  0  0  0  0  0  0  0  0  0  0
    6.9085   47.2333  129.1512 C   0  0  0  0  0  0  0  0  0  0  0  0
    7.0930   45.9812  128.5447 F   0  0  0  0  0  0  0  0  0  0  0  0
    5.3752   47.3135  129.4037 C   0  0  0  0  0  0  0  0  0  0  0  0
    5.2732   47.5918  128.0408 O   0  0  0  0  0  0  0  0  0  0  0  0
    6.5169   48.2553  128.1958 C   0  0  0  0  0  0  0  0  0  0  0  0
 24 25  1  0  0  0
 25 23  1  0  0  0
 23 22  1  0  0  0
 22 16  1  0  0  0
 16 17  2  0  0  0
 17 18  1  0  0  0
 18 19  2  0  0  0
 19 20  1  0  0  0
 20 21  2  0  0  0
 19  1  1  0  0  0
  1  2  1  0  0  0
  2 32  1  0  0  0
 32 33  1  0  0  0
 33 34  1  0  0  0
 33 35  1  0  0  0
 35 36  1  0  0  0
 36 37  1  0  0  0
  2  3  1  0  0  0
  3  4  1  0  0  0
  3  5  1  0  0  0
  5  6  1  0  0  0
  6  7  2  0  0  0
  7  8  1  0  0  0
  8  9  1  0  0  0
  9 10  2  0  0  0
 10 11  1  0  0  0
 11 12  2  0  0  0
 12 13  1  0  0  0
 13 14  2  0  0  0
 25 26  1  0  0  0
 26 28  1  0  0  0
 28 29  1  0  0  0
 29 30  1  0  0  0
 30 31  1  0  0  0
 21 16  1  0  0  0
  7  1  1  0  0  0
 14  9  1  0  0  0
 37 33  1  0  0  0
 14  6  1  0  0  0
  8 15  1  0  0  0
 26 27  1  0  0  0
M  END
> <minimizedAffinity>
24.11352

> <CNNscore>
0.4383661151

> <CNNaffinity>
7.7055902481

> <CNN_VS>
3.3778696060

> <CNNaffinity_variance>
2.1298260689

$$$$
[H]c1c([H])c([C@]2([H])c3c(c4c([H])c([H])c([H])c([H])c4n3[H])C([H])([H])[C@@]([H])(C([H])([H])[H])N2C([H])([H])C2(F)C([H])([H])OC2([H])[H])c([H])c([H])c1OC([H])([H])[C@@]([H])(N([H])C([H])([H])C([H])([H])C([H])([H])F)C([H])([H])[H]


 37 41  0  0  0  0  0  0  0  0999 V2000
   10.5488   46.2574  132.0458 C   0  0  0  0  0  0  0  0  0  0  0  0
   10.2465   45.2315  132.9981 N   0  0  0  0  0  0  0  0  0  0  0  0
   11.5242   45.0320  133.7239 C   0  0  0  0  0  0  0  0  0  0  0  0
   11.5560   46.0524  134.8774 C   0  0  0  0  0  0  0  0  0  0  0  0
   12.7373   45.2823  132.9011 C   0  0  0  0  0  0  0  0  0  0  0  0
   12.5871   45.1403  131.4461 C   0  0  0  0  0  0  0  0  0  0  0  0
   11.3758   45.6724  130.9631 C   0  0  0  0  0  0  0  0  0  0  0  0
   11.3343   45.4898  129.6544 N   0  0  0  0  0  0  0  0  0  0  0  0
   12.4707   44.8630  129.2819 C   0  0  0  0  0  0  0  0  0  0  0  0
   12.9582   44.4288  128.0645 C   0  0  0  0  0  0  0  0  0  0  0  0
   14.1806   43.8044  127.9900 C   0  0  0  0  0  0  0  0  0  0  0  0
   14.9764   43.5788  129.1078 C   0  0  0  0  0  0  0  0  0  0  0  0
   14.4963   44.0101  130.3329 C   0  0  0  0  0  0  0  0  0  0  0  0
   13.2840   44.6282  130.3941 C   0  0  0  0  0  0  0  0  0  0  0  0
   10.5402   45.7933  129.0385 H   0  0  0  0  0  0  0  0  0  0  0  0
    7.5564   49.1884  131.0425 C   0  0  0  0  0  0  0  0  0  0  0  0
    7.9977   48.2128  130.1159 C   0  0  0  0  0  0  0  0  0  0  0  0
    8.9383   47.2628  130.4141 C   0  0  0  0  0  0  0  0  0  0  0  0
    9.5228   47.1862  131.6316 C   0  0  0  0  0  0  0  0  0  0  0  0
    9.1143   48.1344  132.5807 C   0  0  0  0  0  0  0  0  0  0  0  0
    8.1651   49.0934  132.2795 C   0  0  0  0  0  0  0  0  0  0  0  0
    6.6554   50.0796  130.7079 O   0  0  0  0  0  0  0  0  0  0  0  0
    5.9124   50.7150  129.8290 C   0  0  0  0  0  0  0  0  0  0  0  0
    4.6100   48.6054  129.2992 C   0  0  0  0  0  0  0  0  0  0  0  0
    4.6563   50.0899  129.2882 C   0  0  0  0  0  0  0  0  0  0  0  0
    4.2022   50.7031  128.0488 N   0  0  0  0  0  0  0  0  0  0  0  0
    4.4943   50.0639  127.2795 H   0  0  0  0  0  0  0  0  0  0  0  0
    2.7320   50.7520  128.0458 C   0  0  0  0  0  0  0  0  0  0  0  0
    2.3200   51.5253  126.8212 C   0  0  0  0  0  0  0  0  0  0  0  0
    0.8404   51.8804  126.9753 C   0  0  0  0  0  0  0  0  0  0  0  0
    0.7907   53.0957  127.6336 F   0  0  0  0  0  0  0  0  0  0  0  0
    9.8670   43.9681  132.4807 C   0  0  0  0  0  0  0  0  0  0  0  0
    8.5680   43.8421  131.7838 C   0  0  0  0  0  0  0  0  0  0  0  0
    7.6624   44.8960  131.9807 F   0  0  0  0  0  0  0  0  0  0  0  0
    8.7290   43.7601  130.2384 C   0  0  0  0  0  0  0  0  0  0  0  0
    7.4867   43.1264  130.2495 O   0  0  0  0  0  0  0  0  0  0  0  0
    7.8967   42.5864  131.4951 C   0  0  0  0  0  0  0  0  0  0  0  0
 24 25  1  0  0  0
 25 23  1  0  0  0
 23 22  1  0  0  0
 22 16  1  0  0  0
 16 17  2  0  0  0
 17 18  1  0  0  0
 18 19  2  0  0  0
 19 20  1  0  0  0
 20 21  2  0  0  0
 19  1  1  0  0  0
  1  2  1  0  0  0
  2 32  1  0  0  0
 32 33  1  0  0  0
 33 34  1  0  0  0
 33 35  1  0  0  0
 35 36  1  0  0  0
 36 37  1  0  0  0
  2  3  1  0  0  0
  3  4  1  0  0  0
  3  5  1  0  0  0
  5  6  1  0  0  0
  6  7  2  0  0  0
  7  8  1  0  0  0
  8  9  1  0  0  0
  9 10  2  0  0  0
 10 11  1  0  0  0
 11 12  2  0  0  0
 12 13  1  0  0  0
 13 14  2  0  0  0
 25 26  1  0  0  0
 26 28  1  0  0  0
 28 29  1  0  0  0
 29 30  1  0  0  0
 30 31  1  0  0  0
 21 16  1  0  0  0
  7  1  1  0  0  0
 14  9  1  0  0  0
 37 33  1  0  0  0
 14  6  1  0  0  0
  8 15  1  0  0  0
 26 27  1  0  0  0
M  END
> <minimizedAffinity>
8.86216

> <CNNscore>
0.4281287789

> <CNNaffinity>
7.5414762497

> <CNN_VS>
3.2287230492

> <CNNaffinity_variance>
0.7112579346

$$$$
[H]c1c([H])c([C@]2([H])c3c(c4c([H])c([H])c([H])c([H])c4n3[H])C([H])([H])[C@@]([H])(C([H])([H])[H])N2C([H])([H])C2(F)C([H])([H])OC2([H])[H])c([H])c([H])c1OC([H])([H])[C@@]([H])(N([H])C([H])([H])C([H])([H])C([H])([H])F)C([H])([H])[H]


 37 41  0  0  0  0  0  0  0  0999 V2000
    8.7980   46.3510  130.7817 C   0  0  0  0  0  0  0  0  0  0  0  0
    8.8061   45.1829  129.9534 N   0  0  0  0  0  0  0  0  0  0  0  0
    8.3353   44.1039  130.8551 C   0  0  0  0  0  0  0  0  0  0  0  0
    6.7961   44.1000  130.7946 C   0  0  0  0  0  0  0  0  0  0  0  0
    8.7044   44.2989  132.2824 C   0  0  0  0  0  0  0  0  0  0  0  0
    9.8794   45.1400  132.5498 C   0  0  0  0  0  0  0  0  0  0  0  0
    9.9434   46.2764  131.7202 C   0  0  0  0  0  0  0  0  0  0  0  0
   11.0321   46.9581  132.0327 N   0  0  0  0  0  0  0  0  0  0  0  0
   11.6658   46.3032  133.0290 C   0  0  0  0  0  0  0  0  0  0  0  0
   12.8276   46.5479  133.7352 C   0  0  0  0  0  0  0  0  0  0  0  0
   13.2357   45.6805  134.7206 C   0  0  0  0  0  0  0  0  0  0  0  0
   12.5208   44.5355  135.0543 C   0  0  0  0  0  0  0  0  0  0  0  0
   11.3548   44.2813  134.3519 C   0  0  0  0  0  0  0  0  0  0  0  0
   10.9604   45.1483  133.3782 C   0  0  0  0  0  0  0  0  0  0  0  0
   11.3249   47.8528  131.5681 H   0  0  0  0  0  0  0  0  0  0  0  0
    7.8304   50.0863  128.8678 C   0  0  0  0  0  0  0  0  0  0  0  0
    8.4665   50.0284  130.1315 C   0  0  0  0  0  0  0  0  0  0  0  0
    8.7957   48.8543  130.7552 C   0  0  0  0  0  0  0  0  0  0  0  0
    8.5333   47.6478  130.2027 C   0  0  0  0  0  0  0  0  0  0  0  0
    7.9036   47.6590  128.9497 C   0  0  0  0  0  0  0  0  0  0  0  0
    7.5710   48.8442  128.3203 C   0  0  0  0  0  0  0  0  0  0  0  0
    7.5324   51.2359  128.3131 O   0  0  0  0  0  0  0  0  0  0  0  0
    6.8507   52.3579  128.2468 C   0  0  0  0  0  0  0  0  0  0  0  0
    7.2456   54.8489  127.9892 C   0  0  0  0  0  0  0  0  0  0  0  0
    7.3227   53.4950  127.3834 C   0  0  0  0  0  0  0  0  0  0  0  0
    6.8345   53.4126  126.0148 N   0  0  0  0  0  0  0  0  0  0  0  0
    5.8797   52.9985  126.0670 H   0  0  0  0  0  0  0  0  0  0  0  0
    6.6952   54.7719  125.4702 C   0  0  0  0  0  0  0  0  0  0  0  0
    6.7503   54.6527  123.9701 C   0  0  0  0  0  0  0  0  0  0  0  0
    8.1953   54.3328  123.5850 C   0  0  0  0  0  0  0  0  0  0  0  0
    8.1787   53.0889  122.9808 F   0  0  0  0  0  0  0  0  0  0  0  0
   10.0605   44.7700  129.4395 C   0  0  0  0  0  0  0  0  0  0  0  0
   10.0957   43.9821  128.1877 C   0  0  0  0  0  0  0  0  0  0  0  0
   11.2230   44.1746  127.3743 F   0  0  0  0  0  0  0  0  0  0  0  0
   10.0714   42.4487  128.4508 C   0  0  0  0  0  0  0  0  0  0  0  0
    9.5629   42.3426  127.1564 O   0  0  0  0  0  0  0  0  0  0  0  0
    8.9271   43.5818  127.4231 C   0  0  0  0  0  0  0  0  0  0  0  0
 24 25  1  0  0  0
 25 23  1  0  0  0
 23 22  1  0  0  0
 22 16  1  0  0  0
 16 17  2  0  0  0
 17 18  1  0  0  0
 18 19  2  0  0  0
 19 20  1  0  0  0
 20 21  2  0  0  0
 19  1  1  0  0  0
  1  2  1  0  0  0
  2 32  1  0  0  0
 32 33  1  0  0  0
 33 34  1  0  0  0
 33 35  1  0  0  0
 35 36  1  0  0  0
 36 37  1  0  0  0
  2  3  1  0  0  0
  3  4  1  0  0  0
  3  5  1  0  0  0
  5  6  1  0  0  0
  6  7  2  0  0  0
  7  8  1  0  0  0
  8  9  1  0  0  0
  9 10  2  0  0  0
 10 11  1  0  0  0
 11 12  2  0  0  0
 12 13  1  0  0  0
 13 14  2  0  0  0
 25 26  1  0  0  0
 26 28  1  0  0  0
 28 29  1  0  0  0
 29 30  1  0  0  0
 30 31  1  0  0  0
 21 16  1  0  0  0
  7  1  1  0  0  0
 14  9  1  0  0  0
 37 33  1  0  0  0
 14  6  1  0  0  0
  8 15  1  0  0  0
 26 27  1  0  0  0
M  END
> <minimizedAffinity>
5.51306

> <CNNscore>
0.4083727300

> <CNNaffinity>
7.2379441261

> <CNN_VS>
2.9557790756

> <CNNaffinity_variance>
0.7996362448

$$$$
[H]c1c([H])c([C@]2([H])c3c(c4c([H])c([H])c([H])c([H])c4n3[H])C([H])([H])[C@@]([H])(C([H])([H])[H])N2C([H])([H])C2(F)C([H])([H])OC2([H])[H])c([H])c([H])c1OC([H])([H])[C@@]([H])(N([H])C([H])([H])C([H])([H])C([H])([H])F)C([H])([H])[H]


 37 41  0  0  0  0  0  0  0  0999 V2000
   10.8560   46.3298  132.1985 C   0  0  0  0  0  0  0  0  0  0  0  0
   11.0526   46.2128  133.6122 N   0  0  0  0  0  0  0  0  0  0  0  0
   12.2767   45.3846  133.7339 C   0  0  0  0  0  0  0  0  0  0  0  0
   13.4816   46.3426  133.6754 C   0  0  0  0  0  0  0  0  0  0  0  0
   12.4598   44.4031  132.6319 C   0  0  0  0  0  0  0  0  0  0  0  0
   11.2463   43.9777  131.9205 C   0  0  0  0  0  0  0  0  0  0  0  0
   10.3490   45.0365  131.6804 C   0  0  0  0  0  0  0  0  0  0  0  0
    9.2947   44.5520  131.0467 N   0  0  0  0  0  0  0  0  0  0  0  0
    9.4828   43.2265  130.8718 C   0  0  0  0  0  0  0  0  0  0  0  0
    8.7252   42.2311  130.2855 C   0  0  0  0  0  0  0  0  0  0  0  0
    9.1855   40.9360  130.2559 C   0  0  0  0  0  0  0  0  0  0  0  0
   10.4089   40.5628  130.8014 C   0  0  0  0  0  0  0  0  0  0  0  0
   11.1756   41.5534  131.3917 C   0  0  0  0  0  0  0  0  0  0  0  0
   10.7092   42.8331  131.4143 C   0  0  0  0  0  0  0  0  0  0  0  0
    8.4699   45.1263  130.7436 H   0  0  0  0  0  0  0  0  0  0  0  0
    8.9188   49.7057  130.3540 C   0  0  0  0  0  0  0  0  0  0  0  0
    9.4791   49.7740  131.6526 C   0  0  0  0  0  0  0  0  0  0  0  0
   10.1109   48.7191  132.2560 C   0  0  0  0  0  0  0  0  0  0  0  0
   10.2472   47.5185  131.6479 C   0  0  0  0  0  0  0  0  0  0  0  0
    9.7062   47.4070  130.3588 C   0  0  0  0  0  0  0  0  0  0  0  0
    9.0683   48.4718  129.7499 C   0  0  0  0  0  0  0  0  0  0  0  0
    8.3207   50.7429  129.8205 O   0  0  0  0  0  0  0  0  0  0  0  0
    7.2722   51.3523  129.3133 C   0  0  0  0  0  0  0  0  0  0  0  0
    5.2983   50.7344  130.7793 C   0  0  0  0  0  0  0  0  0  0  0  0
    5.9014   50.7438  129.4221 C   0  0  0  0  0  0  0  0  0  0  0  0
    5.7738   49.4916  128.6913 N   0  0  0  0  0  0  0  0  0  0  0  0
    6.7413   49.1281  128.5586 H   0  0  0  0  0  0  0  0  0  0  0  0
    5.0491   48.5195  129.5241 C   0  0  0  0  0  0  0  0  0  0  0  0
    5.4144   47.1487  129.0192 C   0  0  0  0  0  0  0  0  0  0  0  0
    6.7094   46.7297  129.7165 C   0  0  0  0  0  0  0  0  0  0  0  0
    6.3416   45.9801  130.8190 F   0  0  0  0  0  0  0  0  0  0  0  0
   10.0367   45.5542  134.3484 C   0  0  0  0  0  0  0  0  0  0  0  0
    8.7991   46.2946  134.6786 C   0  0  0  0  0  0  0  0  0  0  0  0
    7.6327   45.5215  134.7850 F   0  0  0  0  0  0  0  0  0  0  0  0
    8.8952   47.0315  136.0457 C   0  0  0  0  0  0  0  0  0  0  0  0
    7.9002   47.8696  135.5430 O   0  0  0  0  0  0  0  0  0  0  0  0
    8.5177   47.6639  134.2830 C   0  0  0  0  0  0  0  0  0  0  0  0
 24 25  1  0  0  0
 25 23  1  0  0  0
 23 22  1  0  0  0
 22 16  1  0  0  0
 16 17  2  0  0  0
 17 18  1  0  0  0
 18 19  2  0  0  0
 19 20  1  0  0  0
 20 21  2  0  0  0
 19  1  1  0  0  0
  1  2  1  0  0  0
  2 32  1  0  0  0
 32 33  1  0  0  0
 33 34  1  0  0  0
 33 35  1  0  0  0
 35 36  1  0  0  0
 36 37  1  0  0  0
  2  3  1  0  0  0
  3  4  1  0  0  0
  3  5  1  0  0  0
  5  6  1  0  0  0
  6  7  2  0  0  0
  7  8  1  0  0  0
  8  9  1  0  0  0
  9 10  2  0  0  0
 10 11  1  0  0  0
 11 12  2  0  0  0
 12 13  1  0  0  0
 13 14  2  0  0  0
 25 26  1  0  0  0
 26 28  1  0  0  0
 28 29  1  0  0  0
 29 30  1  0  0  0
 30 31  1  0  0  0
 21 16  1  0  0  0
  7  1  1  0  0  0
 14  9  1  0  0  0
 37 33  1  0  0  0
 14  6  1  0  0  0
  8 15  1  0  0  0
 26 27  1  0  0  0
M  END
> <minimizedAffinity>
3.69133

> <CNNscore>
0.4035157263

> <CNNaffinity>
7.8956136703

> <CNN_VS>
3.1860044003

> <CNNaffinity_variance>
0.6692358255

$$$$
[H]c1c([H])c([C@]2([H])c3c(c4c([H])c([H])c([H])c([H])c4n3[H])C([H])([H])[C@@]([H])(C([H])([H])[H])N2C([H])([H])C2(F)C([H])([H])OC2([H])[H])c([H])c([H])c1OC([H])([H])[C@@]([H])(N([H])C([H])([H])C([H])([H])C([H])([H])F)C([H])([H])[H]


 37 41  0  0  0  0  0  0  0  0999 V2000
   10.7631   46.5354  132.1127 C   0  0  0  0  0  0  0  0  0  0  0  0
   11.2056   46.3250  133.4583 N   0  0  0  0  0  0  0  0  0  0  0  0
   12.4196   45.4868  133.3067 C   0  0  0  0  0  0  0  0  0  0  0  0
   13.6089   46.4428  133.0964 C   0  0  0  0  0  0  0  0  0  0  0  0
   12.3897   44.5794  132.1290 C   0  0  0  0  0  0  0  0  0  0  0  0
   11.0631   44.2055  131.6192 C   0  0  0  0  0  0  0  0  0  0  0  0
   10.1532   45.2805  131.6111 C   0  0  0  0  0  0  0  0  0  0  0  0
    8.9962   44.8421  131.1454 N   0  0  0  0  0  0  0  0  0  0  0  0
    9.1307   43.5303  130.8550 C   0  0  0  0  0  0  0  0  0  0  0  0
    8.2666   42.5780  130.3502 C   0  0  0  0  0  0  0  0  0  0  0  0
    8.6952   41.2863  130.1561 C   0  0  0  0  0  0  0  0  0  0  0  0
    9.9903   40.8742  130.4501 C   0  0  0  0  0  0  0  0  0  0  0  0
   10.8640   41.8215  130.9568 C   0  0  0  0  0  0  0  0  0  0  0  0
   10.4280   43.0983  131.1442 C   0  0  0  0  0  0  0  0  0  0  0  0
    8.1392   45.4376  131.0314 H   0  0  0  0  0  0  0  0  0  0  0  0
    8.5090   50.0245  130.9739 C   0  0  0  0  0  0  0  0  0  0  0  0
    9.6834   50.1084  131.7605 C   0  0  0  0  0  0  0  0  0  0  0  0
   10.4244   49.0157  132.1253 C   0  0  0  0  0  0  0  0  0  0  0  0
   10.0838   47.7596  131.7567 C   0  0  0  0  0  0  0  0  0  0  0  0
    8.9261   47.6308  130.9757 C   0  0  0  0  0  0  0  0  0  0  0  0
    8.1781   48.7337  130.6077 C   0  0  0  0  0  0  0  0  0  0  0  0
    7.8319   51.1001  130.6534 O   0  0  0  0  0  0  0  0  0  0  0  0
    7.0596   51.7966  129.8494 C   0  0  0  0  0  0  0  0  0  0  0  0
    7.0621   49.8737  128.1972 C   0  0  0  0  0  0  0  0  0  0  0  0
    6.7391   51.2980  128.4674 C   0  0  0  0  0  0  0  0  0  0  0  0
    7.1447   52.2228  127.4193 N   0  0  0  0  0  0  0  0  0  0  0  0
    6.3836   52.2136  126.7076 H   0  0  0  0  0  0  0  0  0  0  0  0
    7.2104   53.5829  127.9757 C   0  0  0  0  0  0  0  0  0  0  0  0
    7.1549   54.5373  126.8123 C   0  0  0  0  0  0  0  0  0  0  0  0
    7.9141   53.8944  125.6508 C   0  0  0  0  0  0  0  0  0  0  0  0
    9.1167   54.5685  125.5415 F   0  0  0  0  0  0  0  0  0  0  0  0
   10.3269   45.6225  134.3198 C   0  0  0  0  0  0  0  0  0  0  0  0
    9.0267   46.2360  134.6695 C   0  0  0  0  0  0  0  0  0  0  0  0
    7.9133   45.3833  134.6173 F   0  0  0  0  0  0  0  0  0  0  0  0
    9.0079   46.8010  136.1191 C   0  0  0  0  0  0  0  0  0  0  0  0
    7.9814   47.6306  135.6684 O   0  0  0  0  0  0  0  0  0  0  0  0
    8.6694   47.6233  134.4284 C   0  0  0  0  0  0  0  0  0  0  0  0
 24 25  1  0  0  0
 25 23  1  0  0  0
 23 22  1  0  0  0
 22 16  1  0  0  0
 16 17  2  0  0  0
 17 18  1  0  0  0
 18 19  2  0  0  0
 19 20  1  0  0  0
 20 21  2  0  0  0
 19  1  1  0  0  0
  1  2  1  0  0  0
  2 32  1  0  0  0
 32 33  1  0  0  0
 33 34  1  0  0  0
 33 35  1  0  0  0
 35 36  1  0  0  0
 36 37  1  0  0  0
  2  3  1  0  0  0
  3  4  1  0  0  0
  3  5  1  0  0  0
  5  6  1  0  0  0
  6  7  2  0  0  0
  7  8  1  0  0  0
  8  9  1  0  0  0
  9 10  2  0  0  0
 10 11  1  0  0  0
 11 12  2  0  0  0
 12 13  1  0  0  0
 13 14  2  0  0  0
 25 26  1  0  0  0
 26 28  1  0  0  0
 28 29  1  0  0  0
 29 30  1  0  0  0
 30 31  1  0  0  0
 21 16  1  0  0  0
  7  1  1  0  0  0
 14  9  1  0  0  0
 37 33  1  0  0  0
 14  6  1  0  0  0
  8 15  1  0  0  0
 26 27  1  0  0  0
M  END
> <minimizedAffinity>
4.51400

> <CNNscore>
0.4022345543

> <CNNaffinity>
7.7191572189

> <CNN_VS>
3.1049118042

> <CNNaffinity_variance>
1.3015245199

$$$$
[H]c1c([H])c([C@]2([H])c3c(c4c([H])c([H])c([H])c([H])c4n3[H])C([H])([H])[C@@]([H])(C([H])([H])[H])N2C([H])([H])C2(F)C([H])([H])OC2([H])[H])c([H])c([H])c1OC([H])([H])[C@@]([H])(N([H])C([H])([H])C([H])([H])C([H])([H])F)C([H])([H])[H]


 37 41  0  0  0  0  0  0  0  0999 V2000
    9.3409   45.2173  130.4076 C   0  0  0  0  0  0  0  0  0  0  0  0
   10.5143   44.7854  129.7096 N   0  0  0  0  0  0  0  0  0  0  0  0
   10.5731   43.3284  129.9798 C   0  0  0  0  0  0  0  0  0  0  0  0
    9.7145   42.6320  128.9071 C   0  0  0  0  0  0  0  0  0  0  0  0
   10.0118   42.9306  131.2981 C   0  0  0  0  0  0  0  0  0  0  0  0
    9.9963   43.9614  132.3455 C   0  0  0  0  0  0  0  0  0  0  0  0
    9.6312   45.2327  131.8615 C   0  0  0  0  0  0  0  0  0  0  0  0
    9.6543   46.0844  132.8723 N   0  0  0  0  0  0  0  0  0  0  0  0
   10.0188   45.4082  133.9827 C   0  0  0  0  0  0  0  0  0  0  0  0
   10.2052   45.7796  135.3001 C   0  0  0  0  0  0  0  0  0  0  0  0
   10.5893   44.8481  136.2354 C   0  0  0  0  0  0  0  0  0  0  0  0
   10.8075   43.5123  135.9169 C   0  0  0  0  0  0  0  0  0  0  0  0
   10.6235   43.1300  134.5987 C   0  0  0  0  0  0  0  0  0  0  0  0
   10.2423   44.0618  133.6812 C   0  0  0  0  0  0  0  0  0  0  0  0
    9.4220   47.1051  132.7927 H   0  0  0  0  0  0  0  0  0  0  0  0
    6.8307   48.4677  129.1092 C   0  0  0  0  0  0  0  0  0  0  0  0
    8.1746   48.3354  128.6833 C   0  0  0  0  0  0  0  0  0  0  0  0
    8.9892   47.3050  129.0716 C   0  0  0  0  0  0  0  0  0  0  0  0
    8.5642   46.3255  129.9021 C   0  0  0  0  0  0  0  0  0  0  0  0
    7.2379   46.4176  130.3483 C   0  0  0  0  0  0  0  0  0  0  0  0
    6.4158   47.4578  129.9565 C   0  0  0  0  0  0  0  0  0  0  0  0
    6.0918   49.4748  128.7119 O   0  0  0  0  0  0  0  0  0  0  0  0
    5.8289   50.7582  128.6038 C   0  0  0  0  0  0  0  0  0  0  0  0
    6.8093   52.7967  129.7487 C   0  0  0  0  0  0  0  0  0  0  0  0
    6.9317   51.7781  128.6747 C   0  0  0  0  0  0  0  0  0  0  0  0
    7.3010   52.3101  127.3713 N   0  0  0  0  0  0  0  0  0  0  0  0
    6.6808   51.8434  126.6761 H   0  0  0  0  0  0  0  0  0  0  0  0
    6.9981   53.7491  127.3348 C   0  0  0  0  0  0  0  0  0  0  0  0
    8.0022   54.3868  126.4114 C   0  0  0  0  0  0  0  0  0  0  0  0
    7.6406   53.9779  124.9828 C   0  0  0  0  0  0  0  0  0  0  0  0
    6.5889   54.7868  124.5928 F   0  0  0  0  0  0  0  0  0  0  0  0
   11.7508   45.3317  130.1347 C   0  0  0  0  0  0  0  0  0  0  0  0
   12.9747   44.5092  130.0142 C   0  0  0  0  0  0  0  0  0  0  0  0
   12.8952   43.2115  130.5425 F   0  0  0  0  0  0  0  0  0  0  0  0
   13.4014   44.2936  128.5335 C   0  0  0  0  0  0  0  0  0  0  0  0
   14.6791   44.0701  129.0459 O   0  0  0  0  0  0  0  0  0  0  0  0
   14.3314   45.0284  130.0317 C   0  0  0  0  0  0  0  0  0  0  0  0
 24 25  1  0  0  0
 25 23  1  0  0  0
 23 22  1  0  0  0
 22 16  1  0  0  0
 16 17  2  0  0  0
 17 18  1  0  0  0
 18 19  2  0  0  0
 19 20  1  0  0  0
 20 21  2  0  0  0
 19  1  1  0  0  0
  1  2  1  0  0  0
  2 32  1  0  0  0
 32 33  1  0  0  0
 33 34  1  0  0  0
 33 35  1  0  0  0
 35 36  1  0  0  0
 36 37  1  0  0  0
  2  3  1  0  0  0
  3  4  1  0  0  0
  3  5  1  0  0  0
  5  6  1  0  0  0
  6  7  2  0  0  0
  7  8  1  0  0  0
  8  9  1  0  0  0
  9 10  2  0  0  0
 10 11  1  0  0  0
 11 12  2  0  0  0
 12 13  1  0  0  0
 13 14  2  0  0  0
 25 26  1  0  0  0
 26 28  1  0  0  0
 28 29  1  0  0  0
 29 30  1  0  0  0
 30 31  1  0  0  0
 21 16  1  0  0  0
  7  1  1  0  0  0
 14  9  1  0  0  0
 37 33  1  0  0  0
 14  6  1  0  0  0
  8 15  1  0  0  0
 26 27  1  0  0  0
M  END
> <minimizedAffinity>
6.06426

> <CNNscore>
0.3923439682

> <CNNaffinity>
7.6389517784

> <CNN_VS>
2.9970965385

> <CNNaffinity_variance>
1.2461552620

$$$$
[H]c1c([H])c([C@]2([H])c3c(c4c([H])c([H])c([H])c([H])c4n3[H])C([H])([H])[C@@]([H])(C([H])([H])[H])N2C([H])([H])C2(F)C([H])([H])OC2([H])[H])c([H])c([H])c1OC([H])([H])[C@@]([H])(N([H])C([H])([H])C([H])([H])C([H])([H])F)C([H])([H])[H]


 37 41  0  0  0  0  0  0  0  0999 V2000
   10.7246   45.5288  130.9455 C   0  0  0  0  0  0  0  0  0  0  0  0
   11.9662   45.7795  131.6136 N   0  0  0  0  0  0  0  0  0  0  0  0
   12.7291   44.5210  131.4307 C   0  0  0  0  0  0  0  0  0  0  0  0
   13.4668   44.6284  130.0827 C   0  0  0  0  0  0  0  0  0  0  0  0
   11.8822   43.3010  131.3562 C   0  0  0  0  0  0  0  0  0  0  0  0
   10.5610   43.3763  131.9953 C   0  0  0  0  0  0  0  0  0  0  0  0
    9.9138   44.6083  131.7784 C   0  0  0  0  0  0  0  0  0  0  0  0
    8.7451   44.5780  132.3955 N   0  0  0  0  0  0  0  0  0  0  0  0
    8.6194   43.3759  132.9974 C   0  0  0  0  0  0  0  0  0  0  0  0
    7.6273   42.8008  133.7677 C   0  0  0  0  0  0  0  0  0  0  0  0
    7.7818   41.5260  134.2584 C   0  0  0  0  0  0  0  0  0  0  0  0
    8.9175   40.7616  134.0144 C   0  0  0  0  0  0  0  0  0  0  0  0
    9.9179   41.3293  133.2434 C   0  0  0  0  0  0  0  0  0  0  0  0
    9.7530   42.5929  132.7623 C   0  0  0  0  0  0  0  0  0  0  0  0
    8.0549   45.3689  132.3968 H   0  0  0  0  0  0  0  0  0  0  0  0
    8.6054   48.9081  129.3202 C   0  0  0  0  0  0  0  0  0  0  0  0
    9.1686   47.9033  128.4967 C   0  0  0  0  0  0  0  0  0  0  0  0
    9.8360   46.8132  128.9891 C   0  0  0  0  0  0  0  0  0  0  0  0
   10.0089   46.6143  130.3159 C   0  0  0  0  0  0  0  0  0  0  0  0
    9.4660   47.5863  131.1686 C   0  0  0  0  0  0  0  0  0  0  0  0
    8.7926   48.6867  130.6715 C   0  0  0  0  0  0  0  0  0  0  0  0
    7.9783   49.9351  128.8005 O   0  0  0  0  0  0  0  0  0  0  0  0
    7.0352   50.8508  128.8045 C   0  0  0  0  0  0  0  0  0  0  0  0
    5.5568   50.5632  130.8439 C   0  0  0  0  0  0  0  0  0  0  0  0
    5.6721   50.5488  129.3632 C   0  0  0  0  0  0  0  0  0  0  0  0
    5.0279   49.4165  128.7142 N   0  0  0  0  0  0  0  0  0  0  0  0
    5.6752   49.1013  127.9610 H   0  0  0  0  0  0  0  0  0  0  0  0
    4.9057   48.3134  129.6795 C   0  0  0  0  0  0  0  0  0  0  0  0
    5.6801   47.1501  129.1187 C   0  0  0  0  0  0  0  0  0  0  0  0
    6.2875   46.3883  130.2975 C   0  0  0  0  0  0  0  0  0  0  0  0
    7.1813   45.4782  129.7632 F   0  0  0  0  0  0  0  0  0  0  0  0
   11.9059   46.0238  133.0081 C   0  0  0  0  0  0  0  0  0  0  0  0
   11.3050   47.2881  133.4870 C   0  0  0  0  0  0  0  0  0  0  0  0
   11.1912   48.3118  132.5338 F   0  0  0  0  0  0  0  0  0  0  0  0
    9.8539   47.0933  134.0138 C   0  0  0  0  0  0  0  0  0  0  0  0
   10.0800   48.2546  134.7523 O   0  0  0  0  0  0  0  0  0  0  0  0
   11.4224   47.8057  134.8393 C   0  0  0  0  0  0  0  0  0  0  0  0
 24 25  1  0  0  0
 25 23  1  0  0  0
 23 22  1  0  0  0
 22 16  1  0  0  0
 16 17  2  0  0  0
 17 18  1  0  0  0
 18 19  2  0  0  0
 19 20  1  0  0  0
 20 21  2  0  0  0
 19  1  1  0  0  0
  1  2  1  0  0  0
  2 32  1  0  0  0
 32 33  1  0  0  0
 33 34  1  0  0  0
 33 35  1  0  0  0
 35 36  1  0  0  0
 36 37  1  0  0  0
  2  3  1  0  0  0
  3  4  1  0  0  0
  3  5  1  0  0  0
  5  6  1  0  0  0
  6  7  2  0  0  0
  7  8  1  0  0  0
  8  9  1  0  0  0
  9 10  2  0  0  0
 10 11  1  0  0  0
 11 12  2  0  0  0
 12 13  1  0  0  0
 13 14  2  0  0  0
 25 26  1  0  0  0
 26 28  1  0  0  0
 28 29  1  0  0  0
 29 30  1  0  0  0
 30 31  1  0  0  0
 21 16  1  0  0  0
  7  1  1  0  0  0
 14  9  1  0  0  0
 37 33  1  0  0  0
 14  6  1  0  0  0
  8 15  1  0  0  0
 26 27  1  0  0  0
M  END
> <minimizedAffinity>
7.27146

> <CNNscore>
0.3835807443

> <CNNaffinity>
7.6678466797

> <CNN_VS>
2.9412384033

> <CNNaffinity_variance>
0.5750564337

$$$$
[H]c1c([H])c([C@]2([H])c3c(c4c([H])c([H])c([H])c([H])c4n3[H])C([H])([H])[C@@]([H])(C([H])([H])[H])N2C([H])([H])C2(F)C([H])([H])OC2([H])[H])c([H])c([H])c1OC([H])([H])[C@@]([H])(N([H])C([H])([H])C([H])([H])C([H])([H])F)C([H])([H])[H]


 37 41  0  0  0  0  0  0  0  0999 V2000
    9.7563   45.8808  129.8598 C   0  0  0  0  0  0  0  0  0  0  0  0
    8.9594   46.9318  129.3020 N   0  0  0  0  0  0  0  0  0  0  0  0
    9.6789   48.1687  129.6911 C   0  0  0  0  0  0  0  0  0  0  0  0
   10.7397   48.4378  128.6071 C   0  0  0  0  0  0  0  0  0  0  0  0
   10.4075   48.0682  130.9836 C   0  0  0  0  0  0  0  0  0  0  0  0
    9.9161   47.0670  131.9405 C   0  0  0  0  0  0  0  0  0  0  0  0
    9.5477   45.8537  131.3275 C   0  0  0  0  0  0  0  0  0  0  0  0
    9.1158   45.0285  132.2657 N   0  0  0  0  0  0  0  0  0  0  0  0
    9.1940   45.6657  133.4535 C   0  0  0  0  0  0  0  0  0  0  0  0
    8.8836   45.2980  134.7484 C   0  0  0  0  0  0  0  0  0  0  0  0
    9.0729   46.1818  135.7843 C   0  0  0  0  0  0  0  0  0  0  0  0
    9.5743   47.4646  135.5929 C   0  0  0  0  0  0  0  0  0  0  0  0
    9.8883   47.8427  134.2983 C   0  0  0  0  0  0  0  0  0  0  0  0
    9.6970   46.9581  133.2803 C   0  0  0  0  0  0  0  0  0  0  0  0
    8.7781   44.0509  132.0855 H   0  0  0  0  0  0  0  0  0  0  0  0
    9.7518   41.9562  128.0850 C   0  0  0  0  0  0  0  0  0  0  0  0
   10.3449   43.0724  127.4468 C   0  0  0  0  0  0  0  0  0  0  0  0
   10.3704   44.3272  127.9953 C   0  0  0  0  0  0  0  0  0  0  0  0
    9.8232   44.5959  129.2028 C   0  0  0  0  0  0  0  0  0  0  0  0
    9.2246   43.5177  129.8705 C   0  0  0  0  0  0  0  0  0  0  0  0
    9.1986   42.2512  129.3166 C   0  0  0  0  0  0  0  0  0  0  0  0
    9.7500   40.7750  127.5170 O   0  0  0  0  0  0  0  0  0  0  0  0
   10.3532   39.7267  127.0020 C   0  0  0  0  0  0  0  0  0  0  0  0
    8.9859   39.2065  124.9314 C   0  0  0  0  0  0  0  0  0  0  0  0
   10.3232   39.4727  125.5202 C   0  0  0  0  0  0  0  0  0  0  0  0
   11.3742   38.5694  125.0752 N   0  0  0  0  0  0  0  0  0  0  0  0
   11.9821   39.1191  124.4317 H   0  0  0  0  0  0  0  0  0  0  0  0
   12.1961   38.1798  126.2311 C   0  0  0  0  0  0  0  0  0  0  0  0
   13.5855   38.7031  125.9796 C   0  0  0  0  0  0  0  0  0  0  0  0
   13.4545   40.1497  125.5008 C   0  0  0  0  0  0  0  0  0  0  0  0
   13.7584   40.1499  124.1516 F   0  0  0  0  0  0  0  0  0  0  0  0
    7.6341   47.0581  129.7874 C   0  0  0  0  0  0  0  0  0  0  0  0
    7.0379   48.4079  129.8947 C   0  0  0  0  0  0  0  0  0  0  0  0
    7.4478   49.1727  130.9976 F   0  0  0  0  0  0  0  0  0  0  0  0
    7.3688   49.3023  128.6651 C   0  0  0  0  0  0  0  0  0  0  0  0
    6.2226   50.0175  129.0115 O   0  0  0  0  0  0  0  0  0  0  0  0
    5.7061   48.7681  129.4395 C   0  0  0  0  0  0  0  0  0  0  0  0
 24 25  1  0  0  0
 25 23  1  0  0  0
 23 22  1  0  0  0
 22 16  1  0  0  0
 16 17  2  0  0  0
 17 18  1  0  0  0
 18 19  2  0  0  0
 19 20  1  0  0  0
 20 21  2  0  0  0
 19  1  1  0  0  0
  1  2  1  0  0  0
  2 32  1  0  0  0
 32 33  1  0  0  0
 33 34  1  0  0  0
 33 35  1  0  0  0
 35 36  1  0  0  0
 36 37  1  0  0  0
  2  3  1  0  0  0
  3  4  1  0  0  0
  3  5  1  0  0  0
  5  6  1  0  0  0
  6  7  2  0  0  0
  7  8  1  0  0  0
  8  9  1  0  0  0
  9 10  2  0  0  0
 10 11  1  0  0  0
 11 12  2  0  0  0
 12 13  1  0  0  0
 13 14  2  0  0  0
 25 26  1  0  0  0
 26 28  1  0  0  0
 28 29  1  0  0  0
 29 30  1  0  0  0
 30 31  1  0  0  0
 21 16  1  0  0  0
  7  1  1  0  0  0
 14  9  1  0  0  0
 37 33  1  0  0  0
 14  6  1  0  0  0
  8 15  1  0  0  0
 26 27  1  0  0  0
M  END
> <minimizedAffinity>
12.93842

> <CNNscore>
0.3803215325

> <CNNaffinity>
7.4614362717

> <CNN_VS>
2.8377449512

> <CNNaffinity_variance>
0.3864682019

$$$$
[H]Oc1c([H])c([H])c(C([H])([H])C(c2c([H])c([H])c(O[H])c([H])c2[H])(C([H])([H])[H])C([H])([H])C([H])([H])C([H])([H])[H])c([H])c1[H]


 22 23  0  0  0  0  0  0  0  0999 V2000
    9.5121   45.9629  132.4130 C   0  0  0  0  0  0  0  0  0  0  0  0
    8.6380   45.0648  133.2992 C   0  0  0  0  0  0  0  0  0  0  0  0
    9.6910   45.2230  131.1785 C   0  0  0  0  0  0  0  0  0  0  0  0
   10.6713   45.3004  130.2545 C   0  0  0  0  0  0  0  0  0  0  0  0
   10.7321   44.4976  129.0982 C   0  0  0  0  0  0  0  0  0  0  0  0
    9.7432   43.5712  128.8781 C   0  0  0  0  0  0  0  0  0  0  0  0
    9.7580   42.7438  127.7388 O   0  0  0  0  0  0  0  0  0  0  0  0
    8.7330   43.4657  129.7988 C   0  0  0  0  0  0  0  0  0  0  0  0
    8.6888   44.2560  130.9200 C   0  0  0  0  0  0  0  0  0  0  0  0
   10.5182   42.8590  127.0933 H   0  0  0  0  0  0  0  0  0  0  0  0
   10.9303   45.8764  133.0723 C   0  0  0  0  0  0  0  0  0  0  0  0
   12.2627   43.9616  133.6414 C   0  0  0  0  0  0  0  0  0  0  0  0
   11.0581   44.8236  134.0943 C   0  0  0  0  0  0  0  0  0  0  0  0
    9.1493   47.3542  132.5101 C   0  0  0  0  0  0  0  0  0  0  0  0
    8.5959   48.2075  131.5042 C   0  0  0  0  0  0  0  0  0  0  0  0
    8.8508   49.5520  131.4807 C   0  0  0  0  0  0  0  0  0  0  0  0
    8.3709   50.4475  130.5915 C   0  0  0  0  0  0  0  0  0  0  0  0
    7.5383   49.9854  129.5983 C   0  0  0  0  0  0  0  0  0  0  0  0
    7.0347   50.9105  128.6674 O   0  0  0  0  0  0  0  0  0  0  0  0
    7.2339   48.6446  129.5544 C   0  0  0  0  0  0  0  0  0  0  0  0
    7.7537   47.7592  130.4937 C   0  0  0  0  0  0  0  0  0  0  0  0
    6.1356   51.3326  128.9532 H   0  0  0  0  0  0  0  0  0  0  0  0
 12 13  1  0  0  0
 13 11  1  0  0  0
 11  1  1  0  0  0
  1  2  1  0  0  0
  1 14  1  0  0  0
 14 15  1  0  0  0
 15 16  2  0  0  0
 16 17  1  0  0  0
 17 18  2  0  0  0
 18 19  1  0  0  0
 18 20  1  0  0  0
 20 21  2  0  0  0
  1  3  1  0  0  0
  3  4  2  0  0  0
  4  5  1  0  0  0
  5  6  2  0  0  0
  6  7  1  0  0  0
  6  8  1  0  0  0
  8  9  2  0  0  0
 21 15  1  0  0  0
  9  3  1  0  0  0
 19 22  1  0  0  0
  7 10  1  0  0  0
M  END
> <minimizedAffinity>
-8.56180

> <CNNscore>
0.8886984587

> <CNNaffinity>
7.7624521255

> <CNN_VS>
6.8984794617

> <CNNaffinity_variance>
0.9752667546

$$$$
[H]Oc1c([H])c([H])c(C([H])([H])C(c2c([H])c([H])c(O[H])c([H])c2[H])(C([H])([H])[H])C([H])([H])C([H])([H])C([H])([H])[H])c([H])c1[H]


 22 23  0  0  0  0  0  0  0  0999 V2000
    9.3939   47.6511  131.1578 C   0  0  0  0  0  0  0  0  0  0  0  0
   10.3181   48.7624  131.6744 C   0  0  0  0  0  0  0  0  0  0  0  0
    8.2130   48.3345  130.6659 C   0  0  0  0  0  0  0  0  0  0  0  0
    7.8547   49.6313  130.7691 C   0  0  0  0  0  0  0  0  0  0  0  0
    6.6746   50.1708  130.2198 C   0  0  0  0  0  0  0  0  0  0  0  0
    5.8219   49.3438  129.5317 C   0  0  0  0  0  0  0  0  0  0  0  0
    4.6305   49.8334  128.9627 O   0  0  0  0  0  0  0  0  0  0  0  0
    6.1574   48.0205  129.4069 C   0  0  0  0  0  0  0  0  0  0  0  0
    7.3110   47.5111  129.9486 C   0  0  0  0  0  0  0  0  0  0  0  0
    4.4282   50.8096  129.0816 H   0  0  0  0  0  0  0  0  0  0  0  0
    8.8708   46.9599  132.4623 C   0  0  0  0  0  0  0  0  0  0  0  0
    9.4655   46.1632  134.6481 C   0  0  0  0  0  0  0  0  0  0  0  0
    9.5728   47.3747  133.6889 C   0  0  0  0  0  0  0  0  0  0  0  0
   10.1135   46.6155  130.4601 C   0  0  0  0  0  0  0  0  0  0  0  0
   10.3851   45.2753  130.8803 C   0  0  0  0  0  0  0  0  0  0  0  0
   11.5634   44.9365  131.4887 C   0  0  0  0  0  0  0  0  0  0  0  0
   11.9282   43.7066  131.9094 C   0  0  0  0  0  0  0  0  0  0  0  0
   11.0420   42.6716  131.7176 C   0  0  0  0  0  0  0  0  0  0  0  0
   11.4130   41.3877  132.1533 O   0  0  0  0  0  0  0  0  0  0  0  0
    9.8347   42.9321  131.1119 C   0  0  0  0  0  0  0  0  0  0  0  0
    9.5029   44.2176  130.6954 C   0  0  0  0  0  0  0  0  0  0  0  0
   11.9082   40.8367  131.4327 H   0  0  0  0  0  0  0  0  0  0  0  0
 12 13  1  0  0  0
 13 11  1  0  0  0
 11  1  1  0  0  0
  1  2  1  0  0  0
  1 14  1  0  0  0
 14 15  1  0  0  0
 15 16  2  0  0  0
 16 17  1  0  0  0
 17 18  2  0  0  0
 18 19  1  0  0  0
 18 20  1  0  0  0
 20 21  2  0  0  0
  1  3  1  0  0  0
  3  4  2  0  0  0
  4  5  1  0  0  0
  5  6  2  0  0  0
  6  7  1  0  0  0
  6  8  1  0  0  0
  8  9  2  0  0  0
 21 15  1  0  0  0
  9  3  1  0  0  0
 19 22  1  0  0  0
  7 10  1  0  0  0
M  END
> <minimizedAffinity>
-7.78712

> <CNNscore>
0.8591482639

> <CNNaffinity>
7.6699280739

> <CNN_VS>
6.5896053314

> <CNNaffinity_variance>
0.6278647184

$$$$
[H]Oc1c([H])c([H])c(C([H])([H])C(c2c([H])c([H])c(O[H])c([H])c2[H])(C([H])([H])[H])C([H])([H])C([H])([H])C([H])([H])[H])c([H])c1[H]


 22 23  0  0  0  0  0  0  0  0999 V2000
    9.9263   47.6434  131.8604 C   0  0  0  0  0  0  0  0  0  0  0  0
   10.3722   48.6635  132.9172 C   0  0  0  0  0  0  0  0  0  0  0  0
    9.0477   48.3764  130.9692 C   0  0  0  0  0  0  0  0  0  0  0  0
    8.3949   47.9650  129.8622 C   0  0  0  0  0  0  0  0  0  0  0  0
    7.5473   48.7873  129.0936 C   0  0  0  0  0  0  0  0  0  0  0  0
    7.3585   50.0918  129.4771 C   0  0  0  0  0  0  0  0  0  0  0  0
    6.5209   50.9546  128.7443 O   0  0  0  0  0  0  0  0  0  0  0  0
    8.0059   50.5412  130.5988 C   0  0  0  0  0  0  0  0  0  0  0  0
    8.8286   49.7267  131.3360 C   0  0  0  0  0  0  0  0  0  0  0  0
    6.0692   50.5793  127.9300 H   0  0  0  0  0  0  0  0  0  0  0  0
    8.9313   46.7122  132.6324 C   0  0  0  0  0  0  0  0  0  0  0  0
    9.2536   45.7751  134.8196 C   0  0  0  0  0  0  0  0  0  0  0  0
    8.7816   47.0401  134.0605 C   0  0  0  0  0  0  0  0  0  0  0  0
   10.9975   46.7712  131.4497 C   0  0  0  0  0  0  0  0  0  0  0  0
   11.1304   45.3610  131.6496 C   0  0  0  0  0  0  0  0  0  0  0  0
   10.4073   44.4588  130.9171 C   0  0  0  0  0  0  0  0  0  0  0  0
   10.4427   43.1142  131.0331 C   0  0  0  0  0  0  0  0  0  0  0  0
   11.2838   42.5716  131.9772 C   0  0  0  0  0  0  0  0  0  0  0  0
   11.3280   41.1723  132.1043 O   0  0  0  0  0  0  0  0  0  0  0  0
   12.0447   43.4139  132.7543 C   0  0  0  0  0  0  0  0  0  0  0  0
   11.9742   44.7947  132.5975 C   0  0  0  0  0  0  0  0  0  0  0  0
   10.6448   40.8000  132.7846 H   0  0  0  0  0  0  0  0  0  0  0  0
 12 13  1  0  0  0
 13 11  1  0  0  0
 11  1  1  0  0  0
  1  2  1  0  0  0
  1 14  1  0  0  0
 14 15  1  0  0  0
 15 16  2  0  0  0
 16 17  1  0  0  0
 17 18  2  0  0  0
 18 19  1  0  0  0
 18 20  1  0  0  0
 20 21  2  0  0  0
  1  3  1  0  0  0
  3  4  2  0  0  0
  4  5  1  0  0  0
  5  6  2  0  0  0
  6  7  1  0  0  0
  6  8  1  0  0  0
  8  9  2  0  0  0
 21 15  1  0  0  0
  9  3  1  0  0  0
 19 22  1  0  0  0
  7 10  1  0  0  0
M  END
> <minimizedAffinity>
-7.88392

> <CNNscore>
0.7775845528

> <CNNaffinity>
7.4911079407

> <CNN_VS>
5.8249697685

> <CNNaffinity_variance>
0.6127735376

$$$$
[H]Oc1c([H])c([H])c(C([H])([H])C(c2c([H])c([H])c(O[H])c([H])c2[H])(C([H])([H])[H])C([H])([H])C([H])([H])C([H])([H])[H])c([H])c1[H]


 22 23  0  0  0  0  0  0  0  0999 V2000
    8.2510   46.7674  130.8282 C   0  0  0  0  0  0  0  0  0  0  0  0
    6.9652   45.9451  130.6646 C   0  0  0  0  0  0  0  0  0  0  0  0
    7.9183   48.0955  130.3497 C   0  0  0  0  0  0  0  0  0  0  0  0
    8.0223   49.2913  130.9662 C   0  0  0  0  0  0  0  0  0  0  0  0
    7.6776   50.5203  130.3693 C   0  0  0  0  0  0  0  0  0  0  0  0
    7.2053   50.5251  129.0804 C   0  0  0  0  0  0  0  0  0  0  0  0
    6.8480   51.7261  128.4380 O   0  0  0  0  0  0  0  0  0  0  0  0
    7.0891   49.3268  128.4247 C   0  0  0  0  0  0  0  0  0  0  0  0
    7.4291   48.1384  129.0213 C   0  0  0  0  0  0  0  0  0  0  0  0
    6.9501   52.5779  128.9596 H   0  0  0  0  0  0  0  0  0  0  0  0
    9.1918   46.2232  129.7004 C   0  0  0  0  0  0  0  0  0  0  0  0
   10.1887   44.2626  128.7368 C   0  0  0  0  0  0  0  0  0  0  0  0
    8.8519   44.8690  129.2314 C   0  0  0  0  0  0  0  0  0  0  0  0
    8.9438   46.4690  132.0562 C   0  0  0  0  0  0  0  0  0  0  0  0
    9.9487   45.4805  132.2997 C   0  0  0  0  0  0  0  0  0  0  0  0
   11.2789   45.7460  132.1168 C   0  0  0  0  0  0  0  0  0  0  0  0
   12.3045   44.8875  132.3009 C   0  0  0  0  0  0  0  0  0  0  0  0
   12.0074   43.6091  132.7142 C   0  0  0  0  0  0  0  0  0  0  0  0
   13.0690   42.7086  132.9094 O   0  0  0  0  0  0  0  0  0  0  0  0
   10.6916   43.2645  132.9201 C   0  0  0  0  0  0  0  0  0  0  0  0
    9.6681   44.1851  132.7173 C   0  0  0  0  0  0  0  0  0  0  0  0
   13.3098   42.1678  132.0622 H   0  0  0  0  0  0  0  0  0  0  0  0
 12 13  1  0  0  0
 13 11  1  0  0  0
 11  1  1  0  0  0
  1  2  1  0  0  0
  1 14  1  0  0  0
 14 15  1  0  0  0
 15 16  2  0  0  0
 16 17  1  0  0  0
 17 18  2  0  0  0
 18 19  1  0  0  0
 18 20  1  0  0  0
 20 21  2  0  0  0
  1  3  1  0  0  0
  3  4  2  0  0  0
  4  5  1  0  0  0
  5  6  2  0  0  0
  6  7  1  0  0  0
  6  8  1  0  0  0
  8  9  2  0  0  0
 21 15  1  0  0  0
  9  3  1  0  0  0
 19 22  1  0  0  0
  7 10  1  0  0  0
M  END
> <minimizedAffinity>
-8.57600

> <CNNscore>
0.7260773182

> <CNNaffinity>
7.3777260780

> <CNN_VS>
5.3567996025

> <CNNaffinity_variance>
0.5726326704

$$$$
[H]Oc1c([H])c([H])c(C([H])([H])C(c2c([H])c([H])c(O[H])c([H])c2[H])(C([H])([H])[H])C([H])([H])C([H])([H])C([H])([H])[H])c([H])c1[H]


 22 23  0  0  0  0  0  0  0  0999 V2000
    9.1697   45.4819  130.4355 C   0  0  0  0  0  0  0  0  0  0  0  0
   10.1037   46.0695  129.3685 C   0  0  0  0  0  0  0  0  0  0  0  0
   10.0477   44.9174  131.4424 C   0  0  0  0  0  0  0  0  0  0  0  0
    9.7620   44.1290  132.4996 C   0  0  0  0  0  0  0  0  0  0  0  0
   10.7273   43.6299  133.3965 C   0  0  0  0  0  0  0  0  0  0  0  0
   12.0473   43.9523  133.2010 C   0  0  0  0  0  0  0  0  0  0  0  0
   13.0508   43.4785  134.0678 O   0  0  0  0  0  0  0  0  0  0  0  0
   12.3719   44.7502  132.1347 C   0  0  0  0  0  0  0  0  0  0  0  0
   11.4187   45.2283  131.2706 C   0  0  0  0  0  0  0  0  0  0  0  0
   12.7634   42.8979  134.8348 H   0  0  0  0  0  0  0  0  0  0  0  0
    8.5705   44.2072  129.7504 C   0  0  0  0  0  0  0  0  0  0  0  0
    9.8176   43.2911  127.9142 C   0  0  0  0  0  0  0  0  0  0  0  0
    9.5642   43.1662  129.4372 C   0  0  0  0  0  0  0  0  0  0  0  0
    8.0304   46.3253  130.6958 C   0  0  0  0  0  0  0  0  0  0  0  0
    7.7840   47.6609  130.2467 C   0  0  0  0  0  0  0  0  0  0  0  0
    7.1606   47.9163  129.0552 C   0  0  0  0  0  0  0  0  0  0  0  0
    6.8931   49.1309  128.5301 C   0  0  0  0  0  0  0  0  0  0  0  0
    7.2769   50.2408  129.2472 C   0  0  0  0  0  0  0  0  0  0  0  0
    7.0015   51.5097  128.7087 O   0  0  0  0  0  0  0  0  0  0  0  0
    7.9100   50.0667  130.4561 C   0  0  0  0  0  0  0  0  0  0  0  0
    8.1638   48.7935  130.9568 C   0  0  0  0  0  0  0  0  0  0  0  0
    7.7612   51.8759  128.1113 H   0  0  0  0  0  0  0  0  0  0  0  0
 12 13  1  0  0  0
 13 11  1  0  0  0
 11  1  1  0  0  0
  1  2  1  0  0  0
  1 14  1  0  0  0
 14 15  1  0  0  0
 15 16  2  0  0  0
 16 17  1  0  0  0
 17 18  2  0  0  0
 18 19  1  0  0  0
 18 20  1  0  0  0
 20 21  2  0  0  0
  1  3  1  0  0  0
  3  4  2  0  0  0
  4  5  1  0  0  0
  5  6  2  0  0  0
  6  7  1  0  0  0
  6  8  1  0  0  0
  8  9  2  0  0  0
 21 15  1  0  0  0
  9  3  1  0  0  0
 19 22  1  0  0  0
  7 10  1  0  0  0
M  END
> <minimizedAffinity>
-8.76172

> <CNNscore>
0.7068322301

> <CNNaffinity>
7.4117751122

> <CNN_VS>
5.2388815880

> <CNNaffinity_variance>
0.6328724027

$$$$
[H]Oc1c([H])c([H])c(C([H])([H])C(c2c([H])c([H])c(O[H])c([H])c2[H])(C([H])([H])[H])C([H])([H])C([H])([H])C([H])([H])[H])c([H])c1[H]


 22 23  0  0  0  0  0  0  0  0999 V2000
    9.4767   46.4839  130.2478 C   0  0  0  0  0  0  0  0  0  0  0  0
    8.3657   45.5274  130.7027 C   0  0  0  0  0  0  0  0  0  0  0  0
    8.8268   47.7687  130.0739 C   0  0  0  0  0  0  0  0  0  0  0  0
    8.9386   48.9028  130.7966 C   0  0  0  0  0  0  0  0  0  0  0  0
    8.2560   50.0991  130.4998 C   0  0  0  0  0  0  0  0  0  0  0  0
    7.4203   50.1363  129.4113 C   0  0  0  0  0  0  0  0  0  0  0  0
    6.7160   51.3072  129.0710 O   0  0  0  0  0  0  0  0  0  0  0  0
    7.2856   49.0013  128.6545 C   0  0  0  0  0  0  0  0  0  0  0  0
    7.9578   47.8438  128.9580 C   0  0  0  0  0  0  0  0  0  0  0  0
    6.8471   52.1125  129.6562 H   0  0  0  0  0  0  0  0  0  0  0  0
    9.7696   46.0462  128.7727 C   0  0  0  0  0  0  0  0  0  0  0  0
   10.3076   43.7895  128.1531 C   0  0  0  0  0  0  0  0  0  0  0  0
   10.9155   45.1319  128.6301 C   0  0  0  0  0  0  0  0  0  0  0  0
   10.7169   46.2608  130.9472 C   0  0  0  0  0  0  0  0  0  0  0  0
   10.9403   45.5527  132.1699 C   0  0  0  0  0  0  0  0  0  0  0  0
   11.7134   44.4243  132.2174 C   0  0  0  0  0  0  0  0  0  0  0  0
   11.9765   43.6733  133.3081 C   0  0  0  0  0  0  0  0  0  0  0  0
   11.4218   44.0617  134.5059 C   0  0  0  0  0  0  0  0  0  0  0  0
   11.6911   43.2863  135.6471 O   0  0  0  0  0  0  0  0  0  0  0  0
   10.6313   45.1870  134.5402 C   0  0  0  0  0  0  0  0  0  0  0  0
   10.3890   45.9295  133.3886 C   0  0  0  0  0  0  0  0  0  0  0  0
   11.0050   42.5287  135.8000 H   0  0  0  0  0  0  0  0  0  0  0  0
 12 13  1  0  0  0
 13 11  1  0  0  0
 11  1  1  0  0  0
  1  2  1  0  0  0
  1 14  1  0  0  0
 14 15  1  0  0  0
 15 16  2  0  0  0
 16 17  1  0  0  0
 17 18  2  0  0  0
 18 19  1  0  0  0
 18 20  1  0  0  0
 20 21  2  0  0  0
  1  3  1  0  0  0
  3  4  2  0  0  0
  4  5  1  0  0  0
  5  6  2  0  0  0
  6  7  1  0  0  0
  6  8  1  0  0  0
  8  9  2  0  0  0
 21 15  1  0  0  0
  9  3  1  0  0  0
 19 22  1  0  0  0
  7 10  1  0  0  0
M  END
> <minimizedAffinity>
-8.40863

> <CNNscore>
0.7005760074

> <CNNaffinity>
7.4308333397

> <CNN_VS>
5.2058634758

> <CNNaffinity_variance>
0.7496131063

$$$$
[H]Oc1c([H])c([H])c(C([H])([H])C(c2c([H])c([H])c(O[H])c([H])c2[H])(C([H])([H])[H])C([H])([H])C([H])([H])C([H])([H])[H])c([H])c1[H]


 22 23  0  0  0  0  0  0  0  0999 V2000
    9.7013   47.4335  131.9732 C   0  0  0  0  0  0  0  0  0  0  0  0
   10.3842   48.4440  132.9052 C   0  0  0  0  0  0  0  0  0  0  0  0
    8.9150   48.2331  131.0535 C   0  0  0  0  0  0  0  0  0  0  0  0
    8.1738   47.8562  129.9908 C   0  0  0  0  0  0  0  0  0  0  0  0
    7.4355   48.7471  129.1868 C   0  0  0  0  0  0  0  0  0  0  0  0
    7.4561   50.0868  129.4857 C   0  0  0  0  0  0  0  0  0  0  0  0
    6.7348   51.0183  128.7145 O   0  0  0  0  0  0  0  0  0  0  0  0
    8.1981   50.5030  130.5606 C   0  0  0  0  0  0  0  0  0  0  0  0
    8.9121   49.6216  131.3333 C   0  0  0  0  0  0  0  0  0  0  0  0
    6.2068   50.6651  127.9369 H   0  0  0  0  0  0  0  0  0  0  0  0
    8.6047   46.7714  132.8746 C   0  0  0  0  0  0  0  0  0  0  0  0
    9.3882   45.6594  134.8534 C   0  0  0  0  0  0  0  0  0  0  0  0
    8.7982   46.9879  134.3186 C   0  0  0  0  0  0  0  0  0  0  0  0
   10.5736   46.3475  131.6035 C   0  0  0  0  0  0  0  0  0  0  0  0
   10.3702   45.3319  130.6168 C   0  0  0  0  0  0  0  0  0  0  0  0
   10.8733   45.4486  129.3493 C   0  0  0  0  0  0  0  0  0  0  0  0
   10.7291   44.5628  128.3406 C   0  0  0  0  0  0  0  0  0  0  0  0
   10.0064   43.4183  128.5876 C   0  0  0  0  0  0  0  0  0  0  0  0
    9.8519   42.4898  127.5435 O   0  0  0  0  0  0  0  0  0  0  0  0
    9.4676   43.2277  129.8389 C   0  0  0  0  0  0  0  0  0  0  0  0
    9.6438   44.1698  130.8476 C   0  0  0  0  0  0  0  0  0  0  0  0
    9.0128   42.6591  126.9643 H   0  0  0  0  0  0  0  0  0  0  0  0
 12 13  1  0  0  0
 13 11  1  0  0  0
 11  1  1  0  0  0
  1  2  1  0  0  0
  1 14  1  0  0  0
 14 15  1  0  0  0
 15 16  2  0  0  0
 16 17  1  0  0  0
 17 18  2  0  0  0
 18 19  1  0  0  0
 18 20  1  0  0  0
 20 21  2  0  0  0
  1  3  1  0  0  0
  3  4  2  0  0  0
  4  5  1  0  0  0
  5  6  2  0  0  0
  6  7  1  0  0  0
  6  8  1  0  0  0
  8  9  2  0  0  0
 21 15  1  0  0  0
  9  3  1  0  0  0
 19 22  1  0  0  0
  7 10  1  0  0  0
M  END
> <minimizedAffinity>
-8.35450

> <CNNscore>
0.6921397448

> <CNNaffinity>
7.3242225647

> <CNN_VS>
5.0693855286

> <CNNaffinity_variance>
0.5593547821

$$$$
[H]Oc1c([H])c([H])c(C([H])([H])C(c2c([H])c([H])c(O[H])c([H])c2[H])(C([H])([H])[H])C([H])([H])C([H])([H])C([H])([H])[H])c([H])c1[H]


 22 23  0  0  0  0  0  0  0  0999 V2000
    9.6504   47.6741  131.8821 C   0  0  0  0  0  0  0  0  0  0  0  0
    9.8428   49.0522  132.5302 C   0  0  0  0  0  0  0  0  0  0  0  0
    8.6548   47.8749  130.8468 C   0  0  0  0  0  0  0  0  0  0  0  0
    8.4996   48.8959  129.9783 C   0  0  0  0  0  0  0  0  0  0  0  0
    7.4880   48.9532  128.9992 C   0  0  0  0  0  0  0  0  0  0  0  0
    6.5940   47.9158  128.9041 C   0  0  0  0  0  0  0  0  0  0  0  0
    5.5654   47.9239  127.9424 O   0  0  0  0  0  0  0  0  0  0  0  0
    6.7249   46.8617  129.7707 C   0  0  0  0  0  0  0  0  0  0  0  0
    7.7162   46.8220  130.7191 C   0  0  0  0  0  0  0  0  0  0  0  0
    5.5102   48.7182  127.3308 H   0  0  0  0  0  0  0  0  0  0  0  0
    8.8619   46.8575  132.9613 C   0  0  0  0  0  0  0  0  0  0  0  0
    9.3952   46.1171  135.1825 C   0  0  0  0  0  0  0  0  0  0  0  0
    9.0233   47.3601  134.3363 C   0  0  0  0  0  0  0  0  0  0  0  0
   10.8929   46.9618  131.7220 C   0  0  0  0  0  0  0  0  0  0  0  0
   11.1447   45.5599  131.8544 C   0  0  0  0  0  0  0  0  0  0  0  0
   10.5897   44.6451  131.0009 C   0  0  0  0  0  0  0  0  0  0  0  0
   10.7466   43.3048  131.0434 C   0  0  0  0  0  0  0  0  0  0  0  0
   11.5409   42.7811  132.0375 C   0  0  0  0  0  0  0  0  0  0  0  0
   11.7109   41.3867  132.0890 O   0  0  0  0  0  0  0  0  0  0  0  0
   12.1349   43.6370  132.9359 C   0  0  0  0  0  0  0  0  0  0  0  0
   11.9436   45.0127  132.8512 C   0  0  0  0  0  0  0  0  0  0  0  0
   11.0046   40.9082  132.6725 H   0  0  0  0  0  0  0  0  0  0  0  0
 12 13  1  0  0  0
 13 11  1  0  0  0
 11  1  1  0  0  0
  1  2  1  0  0  0
  1 14  1  0  0  0
 14 15  1  0  0  0
 15 16  2  0  0  0
 16 17  1  0  0  0
 17 18  2  0  0  0
 18 19  1  0  0  0
 18 20  1  0  0  0
 20 21  2  0  0  0
  1  3  1  0  0  0
  3  4  2  0  0  0
  4  5  1  0  0  0
  5  6  2  0  0  0
  6  7  1  0  0  0
  6  8  1  0  0  0
  8  9  2  0  0  0
 21 15  1  0  0  0
  9  3  1  0  0  0
 19 22  1  0  0  0
  7 10  1  0  0  0
M  END
> <minimizedAffinity>
-8.23071

> <CNNscore>
0.6856529713

> <CNNaffinity>
7.3567862511

> <CNN_VS>
5.0442023277

> <CNNaffinity_variance>
0.3815906942

$$$$
[H]Oc1c([H])c([H])c(C([H])([H])C(c2c([H])c([H])c(O[H])c([H])c2[H])(C([H])([H])[H])C([H])([H])C([H])([H])C([H])([H])[H])c([H])c1[H]


 22 23  0  0  0  0  0  0  0  0999 V2000
    9.5204   46.2758  130.0067 C   0  0  0  0  0  0  0  0  0  0  0  0
    8.4733   45.2266  130.4050 C   0  0  0  0  0  0  0  0  0  0  0  0
    8.7721   47.4995  129.7918 C   0  0  0  0  0  0  0  0  0  0  0  0
    7.7097   47.7384  128.9950 C   0  0  0  0  0  0  0  0  0  0  0  0
    7.0602   48.9850  128.8971 C   0  0  0  0  0  0  0  0  0  0  0  0
    7.5195   50.0360  129.6514 C   0  0  0  0  0  0  0  0  0  0  0  0
    6.9052   51.3017  129.5912 O   0  0  0  0  0  0  0  0  0  0  0  0
    8.5965   49.8263  130.4733 C   0  0  0  0  0  0  0  0  0  0  0  0
    9.2179   48.6053  130.5563 C   0  0  0  0  0  0  0  0  0  0  0  0
    6.1202   51.4059  128.9740 H   0  0  0  0  0  0  0  0  0  0  0  0
    9.9301   45.8653  128.5517 C   0  0  0  0  0  0  0  0  0  0  0  0
   10.2050   43.5292  128.0689 C   0  0  0  0  0  0  0  0  0  0  0  0
   10.9605   44.8148  128.4880 C   0  0  0  0  0  0  0  0  0  0  0  0
   10.7353   46.1610  130.7734 C   0  0  0  0  0  0  0  0  0  0  0  0
   10.9467   45.4948  132.0215 C   0  0  0  0  0  0  0  0  0  0  0  0
   11.7625   44.4006  132.1243 C   0  0  0  0  0  0  0  0  0  0  0  0
   12.0195   43.6897  133.2430 C   0  0  0  0  0  0  0  0  0  0  0  0
   11.4107   44.0861  134.4115 C   0  0  0  0  0  0  0  0  0  0  0  0
   11.6733   43.3524  135.5814 O   0  0  0  0  0  0  0  0  0  0  0  0
   10.5750   45.1785  134.3899 C   0  0  0  0  0  0  0  0  0  0  0  0
   10.3410   45.8804  133.2114 C   0  0  0  0  0  0  0  0  0  0  0  0
   11.0135   42.5715  135.7332 H   0  0  0  0  0  0  0  0  0  0  0  0
 12 13  1  0  0  0
 13 11  1  0  0  0
 11  1  1  0  0  0
  1  2  1  0  0  0
  1 14  1  0  0  0
 14 15  1  0  0  0
 15 16  2  0  0  0
 16 17  1  0  0  0
 17 18  2  0  0  0
 18 19  1  0  0  0
 18 20  1  0  0  0
 20 21  2  0  0  0
  1  3  1  0  0  0
  3  4  2  0  0  0
  4  5  1  0  0  0
  5  6  2  0  0  0
  6  7  1  0  0  0
  6  8  1  0  0  0
  8  9  2  0  0  0
 21 15  1  0  0  0
  9  3  1  0  0  0
 19 22  1  0  0  0
  7 10  1  0  0  0
M  END
> <minimizedAffinity>
-8.42473

> <CNNscore>
0.6841482520

> <CNNaffinity>
7.4430937767

> <CNN_VS>
5.0921797752

> <CNNaffinity_variance>
0.8747644424

$$$$
[H]Oc1c([H])c([H])c(-c2c([H])c([H])c3c(O[H])c([H])c([H])c([H])c3c2[H])c([H])c1[H]


 20 22  0  0  0  0  0  0  0  0999 V2000
    9.6586   46.7921  131.0737 C   0  0  0  0  0  0  0  0  0  0  0  0
   10.3933   45.9584  130.2698 C   0  0  0  0  0  0  0  0  0  0  0  0
   11.1109   44.9408  130.8865 C   0  0  0  0  0  0  0  0  0  0  0  0
   11.0726   44.7914  132.2584 C   0  0  0  0  0  0  0  0  0  0  0  0
   11.7767   43.7874  132.8973 C   0  0  0  0  0  0  0  0  0  0  0  0
   12.5503   42.8876  132.2002 O   0  0  0  0  0  0  0  0  0  0  0  0
   11.7066   43.6745  134.2962 C   0  0  0  0  0  0  0  0  0  0  0  0
   10.9588   44.5292  135.0711 C   0  0  0  0  0  0  0  0  0  0  0  0
   10.2573   45.5288  134.4381 C   0  0  0  0  0  0  0  0  0  0  0  0
   10.3184   45.6510  133.0561 C   0  0  0  0  0  0  0  0  0  0  0  0
    9.6138   46.6515  132.4417 C   0  0  0  0  0  0  0  0  0  0  0  0
   12.6351   42.9202  131.2177 H   0  0  0  0  0  0  0  0  0  0  0  0
    6.8005   51.0484  128.8062 O   0  0  0  0  0  0  0  0  0  0  0  0
    7.5076   49.9883  129.3634 C   0  0  0  0  0  0  0  0  0  0  0  0
    7.4965   48.7229  128.7724 C   0  0  0  0  0  0  0  0  0  0  0  0
    8.1770   47.6597  129.2887 C   0  0  0  0  0  0  0  0  0  0  0  0
    8.8994   47.8662  130.4434 C   0  0  0  0  0  0  0  0  0  0  0  0
    8.9319   49.1034  131.0532 C   0  0  0  0  0  0  0  0  0  0  0  0
    8.2339   50.1760  130.5152 C   0  0  0  0  0  0  0  0  0  0  0  0
    5.8272   51.2276  129.0801 H   0  0  0  0  0  0  0  0  0  0  0  0
 13 14  1  0  0  0
 14 15  2  0  0  0
 15 16  1  0  0  0
 16 17  2  0  0  0
 17 18  1  0  0  0
 18 19  2  0  0  0
 17  1  1  0  0  0
  1  2  2  0  0  0
  2  3  1  0  0  0
  3  4  2  0  0  0
  4  5  1  0  0  0
  5  6  1  0  0  0
  5  7  2  0  0  0
  7  8  1  0  0  0
  8  9  2  0  0  0
  9 10  1  0  0  0
 10 11  2  0  0  0
 19 14  1  0  0  0
 11  1  1  0  0  0
 10  4  1  0  0  0
 13 20  1  0  0  0
  6 12  1  0  0  0
M  END
> <minimizedAffinity>
-9.00902

> <CNNscore>
0.8150197268

> <CNNaffinity>
6.8743276596

> <CNN_VS>
5.6027126312

> <CNNaffinity_variance>
0.6902283430

$$$$
[H]Oc1c([H])c([H])c(-c2c([H])c([H])c3c(O[H])c([H])c([H])c([H])c3c2[H])c([H])c1[H]


 20 22  0  0  0  0  0  0  0  0999 V2000
    8.7842   46.7157  131.2646 C   0  0  0  0  0  0  0  0  0  0  0  0
    7.9931   45.5969  131.3251 C   0  0  0  0  0  0  0  0  0  0  0  0
    8.4844   44.5008  132.0238 C   0  0  0  0  0  0  0  0  0  0  0  0
    9.7248   44.5559  132.6273 C   0  0  0  0  0  0  0  0  0  0  0  0
   10.2372   43.4801  133.3288 C   0  0  0  0  0  0  0  0  0  0  0  0
    9.5388   42.3016  133.4608 O   0  0  0  0  0  0  0  0  0  0  0  0
   11.5045   43.5833  133.9268 C   0  0  0  0  0  0  0  0  0  0  0  0
   12.2706   44.7220  133.8456 C   0  0  0  0  0  0  0  0  0  0  0  0
   11.7633   45.7939  133.1485 C   0  0  0  0  0  0  0  0  0  0  0  0
   10.5120   45.7044  132.5529 C   0  0  0  0  0  0  0  0  0  0  0  0
   10.0216   46.7806  131.8629 C   0  0  0  0  0  0  0  0  0  0  0  0
    8.6452   42.1745  133.0620 H   0  0  0  0  0  0  0  0  0  0  0  0
    6.9178   51.2947  128.6236 O   0  0  0  0  0  0  0  0  0  0  0  0
    7.3791   50.1548  129.2732 C   0  0  0  0  0  0  0  0  0  0  0  0
    7.2789   48.8946  128.6792 C   0  0  0  0  0  0  0  0  0  0  0  0
    7.7198   47.7547  129.2844 C   0  0  0  0  0  0  0  0  0  0  0  0
    8.2846   47.8757  130.5351 C   0  0  0  0  0  0  0  0  0  0  0  0
    8.3990   49.1051  131.1507 C   0  0  0  0  0  0  0  0  0  0  0  0
    7.9455   50.2564  130.5215 C   0  0  0  0  0  0  0  0  0  0  0  0
    5.9494   51.6116  128.7506 H   0  0  0  0  0  0  0  0  0  0  0  0
 13 14  1  0  0  0
 14 15  2  0  0  0
 15 16  1  0  0  0
 16 17  2  0  0  0
 17 18  1  0  0  0
 18 19  2  0  0  0
 17  1  1  0  0  0
  1  2  2  0  0  0
  2  3  1  0  0  0
  3  4  2  0  0  0
  4  5  1  0  0  0
  5  6  1  0  0  0
  5  7  2  0  0  0
  7  8  1  0  0  0
  8  9  2  0  0  0
  9 10  1  0  0  0
 10 11  2  0  0  0
 19 14  1  0  0  0
 11  1  1  0  0  0
 10  4  1  0  0  0
 13 20  1  0  0  0
  6 12  1  0  0  0
M  END
> <minimizedAffinity>
-9.47985

> <CNNscore>
0.7896934748

> <CNNaffinity>
6.6290578842

> <CNN_VS>
5.2349238396

> <CNNaffinity_variance>
0.2244110107

$$$$
[H]Oc1c([H])c([H])c(-c2c([H])c([H])c3c(O[H])c([H])c([H])c([H])c3c2[H])c([H])c1[H]


 20 22  0  0  0  0  0  0  0  0999 V2000
    8.8475   46.7994  131.3848 C   0  0  0  0  0  0  0  0  0  0  0  0
    8.0494   45.6840  131.3919 C   0  0  0  0  0  0  0  0  0  0  0  0
    8.5276   44.5572  132.0497 C   0  0  0  0  0  0  0  0  0  0  0  0
    9.7624   44.5799  132.6666 C   0  0  0  0  0  0  0  0  0  0  0  0
   10.2618   43.4731  133.3281 C   0  0  0  0  0  0  0  0  0  0  0  0
    9.5554   42.2945  133.4052 O   0  0  0  0  0  0  0  0  0  0  0  0
   11.5239   43.5439  133.9417 C   0  0  0  0  0  0  0  0  0  0  0  0
   12.2973   44.6803  133.9144 C   0  0  0  0  0  0  0  0  0  0  0  0
   11.8029   45.7829  133.2571 C   0  0  0  0  0  0  0  0  0  0  0  0
   10.5569   45.7256  132.6467 C   0  0  0  0  0  0  0  0  0  0  0  0
   10.0795   46.8322  131.9967 C   0  0  0  0  0  0  0  0  0  0  0  0
    8.6649   42.1894  132.9932 H   0  0  0  0  0  0  0  0  0  0  0  0
    6.9285   51.2602  128.5839 O   0  0  0  0  0  0  0  0  0  0  0  0
    7.4061   50.1576  129.2843 C   0  0  0  0  0  0  0  0  0  0  0  0
    7.9638   50.2969  130.5573 C   0  0  0  0  0  0  0  0  0  0  0  0
    8.4423   49.2402  131.2745 C   0  0  0  0  0  0  0  0  0  0  0  0
    8.3617   47.9913  130.6987 C   0  0  0  0  0  0  0  0  0  0  0  0
    7.8168   47.8182  129.4430 C   0  0  0  0  0  0  0  0  0  0  0  0
    7.3338   48.9039  128.7254 C   0  0  0  0  0  0  0  0  0  0  0  0
    7.5474   51.7889  127.9581 H   0  0  0  0  0  0  0  0  0  0  0  0
 13 14  1  0  0  0
 14 15  2  0  0  0
 15 16  1  0  0  0
 16 17  2  0  0  0
 17 18  1  0  0  0
 18 19  2  0  0  0
 17  1  1  0  0  0
  1  2  2  0  0  0
  2  3  1  0  0  0
  3  4  2  0  0  0
  4  5  1  0  0  0
  5  6  1  0  0  0
  5  7  2  0  0  0
  7  8  1  0  0  0
  8  9  2  0  0  0
  9 10  1  0  0  0
 10 11  2  0  0  0
 19 14  1  0  0  0
 11  1  1  0  0  0
 10  4  1  0  0  0
 13 20  1  0  0  0
  6 12  1  0  0  0
M  END
> <minimizedAffinity>
-9.39122

> <CNNscore>
0.7786853909

> <CNNaffinity>
6.6024293900

> <CNN_VS>
5.1412153244

> <CNNaffinity_variance>
0.2099773437

$$$$
[H]Oc1c([H])c([H])c(-c2c([H])c([H])c3c(O[H])c([H])c([H])c([H])c3c2[H])c([H])c1[H]


 20 22  0  0  0  0  0  0  0  0999 V2000
    9.6582   46.8616  131.1133 C   0  0  0  0  0  0  0  0  0  0  0  0
   10.5900   47.0799  132.0958 C   0  0  0  0  0  0  0  0  0  0  0  0
   11.2721   45.9747  132.5901 C   0  0  0  0  0  0  0  0  0  0  0  0
   11.0070   44.7126  132.0975 C   0  0  0  0  0  0  0  0  0  0  0  0
   11.6712   43.5962  132.5713 C   0  0  0  0  0  0  0  0  0  0  0  0
   12.6283   43.6855  133.5562 O   0  0  0  0  0  0  0  0  0  0  0  0
   11.3679   42.3317  132.0388 C   0  0  0  0  0  0  0  0  0  0  0  0
   10.4267   42.1502  131.0532 C   0  0  0  0  0  0  0  0  0  0  0  0
    9.7644   43.2591  130.5800 C   0  0  0  0  0  0  0  0  0  0  0  0
   10.0552   44.5143  131.0981 C   0  0  0  0  0  0  0  0  0  0  0  0
    9.3869   45.6078  130.6157 C   0  0  0  0  0  0  0  0  0  0  0  0
   12.8808   44.5474  133.9649 H   0  0  0  0  0  0  0  0  0  0  0  0
    6.8069   51.1575  128.9132 O   0  0  0  0  0  0  0  0  0  0  0  0
    7.5161   50.0958  129.4644 C   0  0  0  0  0  0  0  0  0  0  0  0
    8.2443   50.2500  130.6464 C   0  0  0  0  0  0  0  0  0  0  0  0
    8.9515   49.2331  131.2171 C   0  0  0  0  0  0  0  0  0  0  0  0
    8.9325   48.0102  130.5829 C   0  0  0  0  0  0  0  0  0  0  0  0
    8.2237   47.8234  129.4140 C   0  0  0  0  0  0  0  0  0  0  0  0
    7.5085   48.8686  128.8455 C   0  0  0  0  0  0  0  0  0  0  0  0
    7.2532   51.7877  128.2364 H   0  0  0  0  0  0  0  0  0  0  0  0
 13 14  1  0  0  0
 14 15  2  0  0  0
 15 16  1  0  0  0
 16 17  2  0  0  0
 17 18  1  0  0  0
 18 19  2  0  0  0
 17  1  1  0  0  0
  1  2  2  0  0  0
  2  3  1  0  0  0
  3  4  2  0  0  0
  4  5  1  0  0  0
  5  6  1  0  0  0
  5  7  2  0  0  0
  7  8  1  0  0  0
  8  9  2  0  0  0
  9 10  1  0  0  0
 10 11  2  0  0  0
 19 14  1  0  0  0
 11  1  1  0  0  0
 10  4  1  0  0  0
 13 20  1  0  0  0
  6 12  1  0  0  0
M  END
> <minimizedAffinity>
-9.24211

> <CNNscore>
0.7547610998

> <CNNaffinity>
6.8096899986

> <CNN_VS>
5.1396889687

> <CNNaffinity_variance>
0.7098227739

$$$$
[H]Oc1c([H])c([H])c(-c2c([H])c([H])c3c(O[H])c([H])c([H])c([H])c3c2[H])c([H])c1[H]


 20 22  0  0  0  0  0  0  0  0999 V2000
    8.7898   46.6257  130.8884 C   0  0  0  0  0  0  0  0  0  0  0  0
    7.9512   45.8650  131.6624 C   0  0  0  0  0  0  0  0  0  0  0  0
    8.4725   44.7063  132.2251 C   0  0  0  0  0  0  0  0  0  0  0  0
    9.7878   44.3516  132.0013 C   0  0  0  0  0  0  0  0  0  0  0  0
   10.3318   43.2045  132.5493 C   0  0  0  0  0  0  0  0  0  0  0  0
    9.5917   42.3591  133.3439 O   0  0  0  0  0  0  0  0  0  0  0  0
   11.6761   42.8849  132.2937 C   0  0  0  0  0  0  0  0  0  0  0  0
   12.4882   43.6721  131.5121 C   0  0  0  0  0  0  0  0  0  0  0  0
   11.9497   44.8139  130.9658 C   0  0  0  0  0  0  0  0  0  0  0  0
   10.6224   45.1408  131.2108 C   0  0  0  0  0  0  0  0  0  0  0  0
   10.1021   46.2810  130.6595 C   0  0  0  0  0  0  0  0  0  0  0  0
    8.6442   42.5350  133.5561 H   0  0  0  0  0  0  0  0  0  0  0  0
    6.8147   51.4192  128.7558 O   0  0  0  0  0  0  0  0  0  0  0  0
    7.3027   50.2265  129.2791 C   0  0  0  0  0  0  0  0  0  0  0  0
    7.1603   49.0222  128.5862 C   0  0  0  0  0  0  0  0  0  0  0  0
    7.6254   47.8334  129.0665 C   0  0  0  0  0  0  0  0  0  0  0  0
    8.2594   47.8453  130.2895 C   0  0  0  0  0  0  0  0  0  0  0  0
    8.4169   49.0172  131.0004 C   0  0  0  0  0  0  0  0  0  0  0  0
    7.9380   50.2194  130.4979 C   0  0  0  0  0  0  0  0  0  0  0  0
    5.8572   51.7268  128.9631 H   0  0  0  0  0  0  0  0  0  0  0  0
 13 14  1  0  0  0
 14 15  2  0  0  0
 15 16  1  0  0  0
 16 17  2  0  0  0
 17 18  1  0  0  0
 18 19  2  0  0  0
 17  1  1  0  0  0
  1  2  2  0  0  0
  2  3  1  0  0  0
  3  4  2  0  0  0
  4  5  1  0  0  0
  5  6  1  0  0  0
  5  7  2  0  0  0
  7  8  1  0  0  0
  8  9  2  0  0  0
  9 10  1  0  0  0
 10 11  2  0  0  0
 19 14  1  0  0  0
 11  1  1  0  0  0
 10  4  1  0  0  0
 13 20  1  0  0  0
  6 12  1  0  0  0
M  END
> <minimizedAffinity>
-9.52689

> <CNNscore>
0.7135361433

> <CNNaffinity>
6.6204881668

> <CNN_VS>
4.7239575386

> <CNNaffinity_variance>
0.4028069079

$$$$
[H]Oc1c([H])c([H])c(-c2c([H])c([H])c3c(O[H])c([H])c([H])c([H])c3c2[H])c([H])c1[H]


 20 22  0  0  0  0  0  0  0  0999 V2000
    9.2743   46.3930  131.0979 C   0  0  0  0  0  0  0  0  0  0  0  0
    8.3456   45.7903  130.2883 C   0  0  0  0  0  0  0  0  0  0  0  0
    7.3913   46.6044  129.6902 C   0  0  0  0  0  0  0  0  0  0  0  0
    7.3950   47.9664  129.9152 C   0  0  0  0  0  0  0  0  0  0  0  0
    6.4574   48.7991  129.3325 C   0  0  0  0  0  0  0  0  0  0  0  0
    5.4744   48.3141  128.5003 O   0  0  0  0  0  0  0  0  0  0  0  0
    6.5014   50.1797  129.5907 C   0  0  0  0  0  0  0  0  0  0  0  0
    7.4481   50.7497  130.4086 C   0  0  0  0  0  0  0  0  0  0  0  0
    8.3821   49.9237  130.9896 C   0  0  0  0  0  0  0  0  0  0  0  0
    8.3493   48.5576  130.7422 C   0  0  0  0  0  0  0  0  0  0  0  0
    9.2865   47.7495  131.3284 C   0  0  0  0  0  0  0  0  0  0  0  0
    5.3971   47.3543  128.2844 H   0  0  0  0  0  0  0  0  0  0  0  0
   13.0654   43.2110  133.7300 O   0  0  0  0  0  0  0  0  0  0  0  0
   12.1278   43.9988  133.0708 C   0  0  0  0  0  0  0  0  0  0  0  0
   12.1719   44.1664  131.6848 C   0  0  0  0  0  0  0  0  0  0  0  0
   11.2707   44.9303  131.0034 C   0  0  0  0  0  0  0  0  0  0  0  0
   10.2833   45.5539  131.7343 C   0  0  0  0  0  0  0  0  0  0  0  0
   10.2107   45.4096  133.1046 C   0  0  0  0  0  0  0  0  0  0  0  0
   11.1356   44.6284  133.7838 C   0  0  0  0  0  0  0  0  0  0  0  0
   13.9387   43.6223  134.0802 H   0  0  0  0  0  0  0  0  0  0  0  0
 13 14  1  0  0  0
 14 15  2  0  0  0
 15 16  1  0  0  0
 16 17  2  0  0  0
 17 18  1  0  0  0
 18 19  2  0  0  0
 17  1  1  0  0  0
  1  2  2  0  0  0
  2  3  1  0  0  0
  3  4  2  0  0  0
  4  5  1  0  0  0
  5  6  1  0  0  0
  5  7  2  0  0  0
  7  8  1  0  0  0
  8  9  2  0  0  0
  9 10  1  0  0  0
 10 11  2  0  0  0
 19 14  1  0  0  0
 11  1  1  0  0  0
 10  4  1  0  0  0
 13 20  1  0  0  0
  6 12  1  0  0  0
M  END
> <minimizedAffinity>
-8.67795

> <CNNscore>
0.6800684333

> <CNNaffinity>
6.6118865013

> <CNN_VS>
4.4965353012

> <CNNaffinity_variance>
0.6197859049

$$$$
[H]Oc1c([H])c([H])c(-c2c([H])c([H])c3c(O[H])c([H])c([H])c([H])c3c2[H])c([H])c1[H]


 20 22  0  0  0  0  0  0  0  0999 V2000
    9.5884   46.8459  131.1351 C   0  0  0  0  0  0  0  0  0  0  0  0
    9.9815   48.1535  131.2643 C   0  0  0  0  0  0  0  0  0  0  0  0
    9.1221   49.1325  130.7806 C   0  0  0  0  0  0  0  0  0  0  0  0
    7.9221   48.7814  130.1953 C   0  0  0  0  0  0  0  0  0  0  0  0
    7.0486   49.7352  129.7062 C   0  0  0  0  0  0  0  0  0  0  0  0
    7.3299   51.0805  129.7773 O   0  0  0  0  0  0  0  0  0  0  0  0
    5.8381   49.3297  129.1191 C   0  0  0  0  0  0  0  0  0  0  0  0
    5.4763   48.0081  129.0066 C   0  0  0  0  0  0  0  0  0  0  0  0
    6.3434   47.0571  129.4924 C   0  0  0  0  0  0  0  0  0  0  0  0
    7.5429   47.4451  130.0749 C   0  0  0  0  0  0  0  0  0  0  0  0
    8.3946   46.4857  130.5536 C   0  0  0  0  0  0  0  0  0  0  0  0
    8.1643   51.4208  130.1793 H   0  0  0  0  0  0  0  0  0  0  0  0
   12.9629   42.7297  132.8947 O   0  0  0  0  0  0  0  0  0  0  0  0
   12.1274   43.7547  132.4638 C   0  0  0  0  0  0  0  0  0  0  0  0
   11.9506   44.9112  133.2269 C   0  0  0  0  0  0  0  0  0  0  0  0
   11.1405   45.9370  132.8378 C   0  0  0  0  0  0  0  0  0  0  0  0
   10.4783   45.8049  131.6370 C   0  0  0  0  0  0  0  0  0  0  0  0
   10.6303   44.6760  130.8586 C   0  0  0  0  0  0  0  0  0  0  0  0
   11.4588   43.6402  131.2684 C   0  0  0  0  0  0  0  0  0  0  0  0
   12.5951   41.9651  133.4730 H   0  0  0  0  0  0  0  0  0  0  0  0
 13 14  1  0  0  0
 14 15  2  0  0  0
 15 16  1  0  0  0
 16 17  2  0  0  0
 17 18  1  0  0  0
 18 19  2  0  0  0
 17  1  1  0  0  0
  1  2  2  0  0  0
  2  3  1  0  0  0
  3  4  2  0  0  0
  4  5  1  0  0  0
  5  6  1  0  0  0
  5  7  2  0  0  0
  7  8  1  0  0  0
  8  9  2  0  0  0
  9 10  1  0  0  0
 10 11  2  0  0  0
 19 14  1  0  0  0
 11  1  1  0  0  0
 10  4  1  0  0  0
 13 20  1  0  0  0
  6 12  1  0  0  0
M  END
> <minimizedAffinity>
-9.13454

> <CNNscore>
0.6399877667

> <CNNaffinity>
6.4562273026

> <CNN_VS>
4.1319065094

> <CNNaffinity_variance>
0.4283083081

$$$$
[H]Oc1c([H])c([H])c(-c2c([H])c([H])c3c(O[H])c([H])c([H])c([H])c3c2[H])c([H])c1[H]


 20 22  0  0  0  0  0  0  0  0999 V2000
    9.1909   46.2144  130.8719 C   0  0  0  0  0  0  0  0  0  0  0  0
    9.8138   47.3867  131.2167 C   0  0  0  0  0  0  0  0  0  0  0  0
    9.1558   48.5741  130.9202 C   0  0  0  0  0  0  0  0  0  0  0  0
    7.9220   48.5533  130.3014 C   0  0  0  0  0  0  0  0  0  0  0  0
    7.2456   49.7199  129.9955 C   0  0  0  0  0  0  0  0  0  0  0  0
    7.7664   50.9590  130.2912 O   0  0  0  0  0  0  0  0  0  0  0  0
    5.9915   49.6487  129.3657 C   0  0  0  0  0  0  0  0  0  0  0  0
    5.3965   48.4543  129.0344 C   0  0  0  0  0  0  0  0  0  0  0  0
    6.0671   47.2922  129.3376 C   0  0  0  0  0  0  0  0  0  0  0  0
    7.3072   47.3493  129.9601 C   0  0  0  0  0  0  0  0  0  0  0  0
    7.9613   46.1831  130.2551 C   0  0  0  0  0  0  0  0  0  0  0  0
    8.6421   51.0674  130.7330 H   0  0  0  0  0  0  0  0  0  0  0  0
   11.6240   41.3290  132.1522 O   0  0  0  0  0  0  0  0  0  0  0  0
   11.0259   42.5428  131.8306 C   0  0  0  0  0  0  0  0  0  0  0  0
   11.6864   43.4863  131.0403 C   0  0  0  0  0  0  0  0  0  0  0  0
   11.1329   44.6865  130.7040 C   0  0  0  0  0  0  0  0  0  0  0  0
    9.8672   44.9583  131.1753 C   0  0  0  0  0  0  0  0  0  0  0  0
    9.1867   44.0487  131.9583 C   0  0  0  0  0  0  0  0  0  0  0  0
    9.7636   42.8310  132.2920 C   0  0  0  0  0  0  0  0  0  0  0  0
   12.1964   41.2378  132.9997 H   0  0  0  0  0  0  0  0  0  0  0  0
 13 14  1  0  0  0
 14 15  2  0  0  0
 15 16  1  0  0  0
 16 17  2  0  0  0
 17 18  1  0  0  0
 18 19  2  0  0  0
 17  1  1  0  0  0
  1  2  2  0  0  0
  2  3  1  0  0  0
  3  4  2  0  0  0
  4  5  1  0  0  0
  5  6  1  0  0  0
  5  7  2  0  0  0
  7  8  1  0  0  0
  8  9  2  0  0  0
  9 10  1  0  0  0
 10 11  2  0  0  0
 19 14  1  0  0  0
 11  1  1  0  0  0
 10  4  1  0  0  0
 13 20  1  0  0  0
  6 12  1  0  0  0
M  END
> <minimizedAffinity>
-8.09100

> <CNNscore>
0.5363552570

> <CNNaffinity>
6.3705396652

> <CNN_VS>
3.4168725014

> <CNNaffinity_variance>
0.4684704840

$$$$
[H]Oc1c([H])c([H])c(-c2c([H])c([H])c3c(O[H])c([H])c([H])c([H])c3c2[H])c([H])c1[H]


 20 22  0  0  0  0  0  0  0  0999 V2000
    8.7408   46.3644  130.3695 C   0  0  0  0  0  0  0  0  0  0  0  0
    9.9769   46.6428  129.8446 C   0  0  0  0  0  0  0  0  0  0  0  0
   11.0223   45.7900  130.1778 C   0  0  0  0  0  0  0  0  0  0  0  0
   10.8041   44.7086  131.0077 C   0  0  0  0  0  0  0  0  0  0  0  0
   11.8262   43.8444  131.3548 C   0  0  0  0  0  0  0  0  0  0  0  0
   13.1107   44.0175  130.8921 O   0  0  0  0  0  0  0  0  0  0  0  0
   11.5558   42.7566  132.2023 C   0  0  0  0  0  0  0  0  0  0  0  0
   10.3027   42.5079  132.7103 C   0  0  0  0  0  0  0  0  0  0  0  0
    9.2840   43.3660  132.3666 C   0  0  0  0  0  0  0  0  0  0  0  0
    9.5384   44.4447  131.5297 C   0  0  0  0  0  0  0  0  0  0  0  0
    8.5130   45.2891  131.1973 C   0  0  0  0  0  0  0  0  0  0  0  0
   13.3563   44.7633  130.2946 H   0  0  0  0  0  0  0  0  0  0  0  0
    4.6018   49.9293  129.1102 O   0  0  0  0  0  0  0  0  0  0  0  0
    5.6244   49.0395  129.4210 C   0  0  0  0  0  0  0  0  0  0  0  0
    5.4247   47.6586  129.3562 C   0  0  0  0  0  0  0  0  0  0  0  0
    6.4024   46.7553  129.6531 C   0  0  0  0  0  0  0  0  0  0  0  0
    7.6319   47.2491  130.0307 C   0  0  0  0  0  0  0  0  0  0  0  0
    7.8632   48.6073  130.1051 C   0  0  0  0  0  0  0  0  0  0  0  0
    6.8576   49.5141  129.7997 C   0  0  0  0  0  0  0  0  0  0  0  0
    3.9598   50.2616  129.8395 H   0  0  0  0  0  0  0  0  0  0  0  0
 13 14  1  0  0  0
 14 15  2  0  0  0
 15 16  1  0  0  0
 16 17  2  0  0  0
 17 18  1  0  0  0
 18 19  2  0  0  0
 17  1  1  0  0  0
  1  2  2  0  0  0
  2  3  1  0  0  0
  3  4  2  0  0  0
  4  5  1  0  0  0
  5  6  1  0  0  0
  5  7  2  0  0  0
  7  8  1  0  0  0
  8  9  2  0  0  0
  9 10  1  0  0  0
 10 11  2  0  0  0
 19 14  1  0  0  0
 11  1  1  0  0  0
 10  4  1  0  0  0
 13 20  1  0  0  0
  6 12  1  0  0  0
M  END
> <minimizedAffinity>
-8.07624

> <CNNscore>
0.5146942139

> <CNNaffinity>
6.3377032280

> <CNN_VS>
3.2619791031

> <CNNaffinity_variance>
0.6179082990

$$$$
[H]Oc1c([H])c([H])c2c(=O)c(-c3c([H])c([H])c([H])c([H])c3C([H])([H])[H])c(C(F)(F)F)oc2c1[H]


 24 26  0  0  0  0  0  0  0  0999 V2000
    9.7339   46.1060  131.1715 C   0  0  0  0  0  0  0  0  0  0  0  0
    9.0316   45.7286  130.0714 C   0  0  0  0  0  0  0  0  0  0  0  0
    8.3262   46.6615  129.4092 O   0  0  0  0  0  0  0  0  0  0  0  0
    8.2892   47.9053  129.7802 C   0  0  0  0  0  0  0  0  0  0  0  0
    7.5337   48.7984  129.0352 C   0  0  0  0  0  0  0  0  0  0  0  0
    7.4600   50.1300  129.3852 C   0  0  0  0  0  0  0  0  0  0  0  0
    6.7165   51.0567  128.6684 O   0  0  0  0  0  0  0  0  0  0  0  0
    8.1688   50.5224  130.5020 C   0  0  0  0  0  0  0  0  0  0  0  0
    8.9281   49.6587  131.2620 C   0  0  0  0  0  0  0  0  0  0  0  0
    8.9833   48.3310  130.8878 C   0  0  0  0  0  0  0  0  0  0  0  0
    9.7218   47.4464  131.6109 C   0  0  0  0  0  0  0  0  0  0  0  0
   10.3756   47.7687  132.6276 O   0  0  0  0  0  0  0  0  0  0  0  0
    7.1220   51.5765  127.9011 H   0  0  0  0  0  0  0  0  0  0  0  0
    8.6479   44.7145  133.5236 C   0  0  0  0  0  0  0  0  0  0  0  0
   10.0413   44.5528  133.0453 C   0  0  0  0  0  0  0  0  0  0  0  0
   10.8233   43.6809  133.7744 C   0  0  0  0  0  0  0  0  0  0  0  0
   12.1277   43.4166  133.4062 C   0  0  0  0  0  0  0  0  0  0  0  0
   12.6654   44.0216  132.3038 C   0  0  0  0  0  0  0  0  0  0  0  0
   11.8775   44.8883  131.5860 C   0  0  0  0  0  0  0  0  0  0  0  0
   10.5517   45.1865  131.9223 C   0  0  0  0  0  0  0  0  0  0  0  0
    9.0120   44.3434  129.5841 C   0  0  0  0  0  0  0  0  0  0  0  0
    8.2556   43.4829  130.3890 F   0  0  0  0  0  0  0  0  0  0  0  0
    8.2562   44.3476  128.3783 F   0  0  0  0  0  0  0  0  0  0  0  0
   10.2010   43.8021  129.2298 F   0  0  0  0  0  0  0  0  0  0  0  0
 14 15  1  0  0  0
 15 16  2  0  0  0
 16 17  1  0  0  0
 17 18  2  0  0  0
 18 19  1  0  0  0
 19 20  2  0  0  0
 20  1  1  0  0  0
  1  2  2  0  0  0
  2  3  1  0  0  0
  3  4  1  0  0  0
  4  5  2  0  0  0
  5  6  1  0  0  0
  6  7  1  0  0  0
  6  8  2  0  0  0
  8  9  1  0  0  0
  9 10  2  0  0  0
 10 11  1  0  0  0
 11 12  2  0  0  0
  2 21  1  0  0  0
 21 22  1  0  0  0
 21 23  1  0  0  0
 21 24  1  0  0  0
 20 15  1  0  0  0
 11  1  1  0  0  0
 10  4  1  0  0  0
  7 13  1  0  0  0
M  END
> <minimizedAffinity>
-9.46237

> <CNNscore>
0.8811199665

> <CNNaffinity>
7.8740906715

> <CNN_VS>
6.9380183220

> <CNNaffinity_variance>
0.6470176578

$$$$
[H]Oc1c([H])c([H])c2c(=O)c(-c3c([H])c([H])c([H])c([H])c3C([H])([H])[H])c(C(F)(F)F)oc2c1[H]


 24 26  0  0  0  0  0  0  0  0999 V2000
    9.2858   46.1760  131.4837 C   0  0  0  0  0  0  0  0  0  0  0  0
    9.5545   47.2451  132.2781 C   0  0  0  0  0  0  0  0  0  0  0  0
    9.1168   48.4562  131.8936 O   0  0  0  0  0  0  0  0  0  0  0  0
    8.4503   48.6434  130.7951 C   0  0  0  0  0  0  0  0  0  0  0  0
    8.0386   49.9295  130.4789 C   0  0  0  0  0  0  0  0  0  0  0  0
    7.3283   50.1836  129.3248 C   0  0  0  0  0  0  0  0  0  0  0  0
    6.8975   51.4542  128.9704 O   0  0  0  0  0  0  0  0  0  0  0  0
    7.0519   49.1043  128.5110 C   0  0  0  0  0  0  0  0  0  0  0  0
    7.4474   47.8155  128.7983 C   0  0  0  0  0  0  0  0  0  0  0  0
    8.1573   47.5908  129.9608 C   0  0  0  0  0  0  0  0  0  0  0  0
    8.5655   46.3332  130.2811 C   0  0  0  0  0  0  0  0  0  0  0  0
    8.3319   45.3335  129.5663 O   0  0  0  0  0  0  0  0  0  0  0  0
    5.9943   51.8041  129.2622 H   0  0  0  0  0  0  0  0  0  0  0  0
   11.7324   44.9926  130.3604 C   0  0  0  0  0  0  0  0  0  0  0  0
   10.8194   44.2723  131.2791 C   0  0  0  0  0  0  0  0  0  0  0  0
   11.1930   42.9836  131.5998 C   0  0  0  0  0  0  0  0  0  0  0  0
   10.4450   42.2228  132.4764 C   0  0  0  0  0  0  0  0  0  0  0  0
    9.3138   42.7425  133.0428 C   0  0  0  0  0  0  0  0  0  0  0  0
    8.9513   44.0265  132.7155 C   0  0  0  0  0  0  0  0  0  0  0  0
    9.6781   44.8333  131.8320 C   0  0  0  0  0  0  0  0  0  0  0  0
   10.3063   47.1263  133.5339 C   0  0  0  0  0  0  0  0  0  0  0  0
   11.5398   46.4811  133.3831 F   0  0  0  0  0  0  0  0  0  0  0  0
   10.7123   48.4428  133.8904 F   0  0  0  0  0  0  0  0  0  0  0  0
    9.6244   46.6837  134.6163 F   0  0  0  0  0  0  0  0  0  0  0  0
 14 15  1  0  0  0
 15 16  2  0  0  0
 16 17  1  0  0  0
 17 18  2  0  0  0
 18 19  1  0  0  0
 19 20  2  0  0  0
 20  1  1  0  0  0
  1  2  2  0  0  0
  2  3  1  0  0  0
  3  4  1  0  0  0
  4  5  2  0  0  0
  5  6  1  0  0  0
  6  7  1  0  0  0
  6  8  2  0  0  0
  8  9  1  0  0  0
  9 10  2  0  0  0
 10 11  1  0  0  0
 11 12  2  0  0  0
  2 21  1  0  0  0
 21 22  1  0  0  0
 21 23  1  0  0  0
 21 24  1  0  0  0
 20 15  1  0  0  0
 11  1  1  0  0  0
 10  4  1  0  0  0
  7 13  1  0  0  0
M  END
> <minimizedAffinity>
-10.16988

> <CNNscore>
0.8577082157

> <CNNaffinity>
7.7553415298

> <CNN_VS>
6.6518201828

> <CNNaffinity_variance>
0.3613168299

$$$$
[H]Oc1c([H])c([H])c2c(=O)c(-c3c([H])c([H])c([H])c([H])c3C([H])([H])[H])c(C(F)(F)F)oc2c1[H]


 24 26  0  0  0  0  0  0  0  0999 V2000
    9.7630   46.0194  131.6038 C   0  0  0  0  0  0  0  0  0  0  0  0
    9.0316   45.5569  130.5563 C   0  0  0  0  0  0  0  0  0  0  0  0
    8.3380   46.4404  129.8183 O   0  0  0  0  0  0  0  0  0  0  0  0
    8.3392   47.7147  130.0679 C   0  0  0  0  0  0  0  0  0  0  0  0
    7.5931   48.5520  129.2520 C   0  0  0  0  0  0  0  0  0  0  0  0
    7.5594   49.9126  129.4729 C   0  0  0  0  0  0  0  0  0  0  0  0
    6.8267   50.7858  128.6816 O   0  0  0  0  0  0  0  0  0  0  0  0
    8.2980   50.3914  130.5353 C   0  0  0  0  0  0  0  0  0  0  0  0
    9.0489   49.5846  131.3633 C   0  0  0  0  0  0  0  0  0  0  0  0
    9.0638   48.2262  131.1183 C   0  0  0  0  0  0  0  0  0  0  0  0
    9.7927   47.3956  131.9118 C   0  0  0  0  0  0  0  0  0  0  0  0
   10.4728   47.7965  132.8822 O   0  0  0  0  0  0  0  0  0  0  0  0
    7.2312   51.2183  127.8614 H   0  0  0  0  0  0  0  0  0  0  0  0
   12.4341   45.1714  130.7127 C   0  0  0  0  0  0  0  0  0  0  0  0
   11.8191   44.7382  131.9896 C   0  0  0  0  0  0  0  0  0  0  0  0
   12.5913   43.9010  132.7682 C   0  0  0  0  0  0  0  0  0  0  0  0
   12.1445   43.4592  133.9978 C   0  0  0  0  0  0  0  0  0  0  0  0
   10.9193   43.8499  134.4633 C   0  0  0  0  0  0  0  0  0  0  0  0
   10.1590   44.6830  133.6791 C   0  0  0  0  0  0  0  0  0  0  0  0
   10.5708   45.1546  132.4270 C   0  0  0  0  0  0  0  0  0  0  0  0
    8.9682   44.1324  130.2055 C   0  0  0  0  0  0  0  0  0  0  0  0
    8.2750   43.3599  131.1454 F   0  0  0  0  0  0  0  0  0  0  0  0
    8.1189   44.0315  129.0681 F   0  0  0  0  0  0  0  0  0  0  0  0
   10.1232   43.5468  129.8114 F   0  0  0  0  0  0  0  0  0  0  0  0
 14 15  1  0  0  0
 15 16  2  0  0  0
 16 17  1  0  0  0
 17 18  2  0  0  0
 18 19  1  0  0  0
 19 20  2  0  0  0
 20  1  1  0  0  0
  1  2  2  0  0  0
  2  3  1  0  0  0
  3  4  1  0  0  0
  4  5  2  0  0  0
  5  6  1  0  0  0
  6  7  1  0  0  0
  6  8  2  0  0  0
  8  9  1  0  0  0
  9 10  2  0  0  0
 10 11  1  0  0  0
 11 12  2  0  0  0
  2 21  1  0  0  0
 21 22  1  0  0  0
 21 23  1  0  0  0
 21 24  1  0  0  0
 20 15  1  0  0  0
 11  1  1  0  0  0
 10  4  1  0  0  0
  7 13  1  0  0  0
M  END
> <minimizedAffinity>
-9.05234

> <CNNscore>
0.7942888737

> <CNNaffinity>
7.8393974304

> <CNN_VS>
6.2267460823

> <CNNaffinity_variance>
0.7263060212

$$$$
[H]Oc1c([H])c([H])c2c(=O)c(-c3c([H])c([H])c([H])c([H])c3C([H])([H])[H])c(C(F)(F)F)oc2c1[H]


 24 26  0  0  0  0  0  0  0  0999 V2000
   10.2387   44.4049  131.8509 C   0  0  0  0  0  0  0  0  0  0  0  0
    9.3714   45.4073  131.5526 C   0  0  0  0  0  0  0  0  0  0  0  0
    8.8563   45.4623  130.3125 O   0  0  0  0  0  0  0  0  0  0  0  0
    9.1558   44.5979  129.3911 C   0  0  0  0  0  0  0  0  0  0  0  0
    8.5753   44.7337  128.1389 C   0  0  0  0  0  0  0  0  0  0  0  0
    8.8589   43.8435  127.1249 C   0  0  0  0  0  0  0  0  0  0  0  0
    8.3008   43.9425  125.8583 O   0  0  0  0  0  0  0  0  0  0  0  0
    9.7398   42.8229  127.4179 C   0  0  0  0  0  0  0  0  0  0  0  0
   10.3323   42.6618  128.6521 C   0  0  0  0  0  0  0  0  0  0  0  0
   10.0297   43.5682  129.6484 C   0  0  0  0  0  0  0  0  0  0  0  0
   10.5929   43.4442  130.8806 C   0  0  0  0  0  0  0  0  0  0  0  0
   11.3946   42.5315  131.1793 O   0  0  0  0  0  0  0  0  0  0  0  0
    7.4291   43.4827  125.6299 H   0  0  0  0  0  0  0  0  0  0  0  0
   12.8789   45.5337  132.4859 C   0  0  0  0  0  0  0  0  0  0  0  0
   12.0671   44.7527  133.4490 C   0  0  0  0  0  0  0  0  0  0  0  0
   12.6243   44.5871  134.7001 C   0  0  0  0  0  0  0  0  0  0  0  0
   11.9486   43.9109  135.6966 C   0  0  0  0  0  0  0  0  0  0  0  0
   10.7069   43.3920  135.4530 C   0  0  0  0  0  0  0  0  0  0  0  0
   10.1624   43.5625  134.2033 C   0  0  0  0  0  0  0  0  0  0  0  0
   10.8107   44.2396  133.1637 C   0  0  0  0  0  0  0  0  0  0  0  0
    8.9815   46.4309  132.5307 C   0  0  0  0  0  0  0  0  0  0  0  0
   10.0585   47.1996  132.9885 F   0  0  0  0  0  0  0  0  0  0  0  0
    8.2175   47.3999  131.8219 F   0  0  0  0  0  0  0  0  0  0  0  0
    8.1673   46.0369  133.5378 F   0  0  0  0  0  0  0  0  0  0  0  0
 14 15  1  0  0  0
 15 16  2  0  0  0
 16 17  1  0  0  0
 17 18  2  0  0  0
 18 19  1  0  0  0
 19 20  2  0  0  0
 20  1  1  0  0  0
  1  2  2  0  0  0
  2  3  1  0  0  0
  3  4  1  0  0  0
  4  5  2  0  0  0
  5  6  1  0  0  0
  6  7  1  0  0  0
  6  8  2  0  0  0
  8  9  1  0  0  0
  9 10  2  0  0  0
 10 11  1  0  0  0
 11 12  2  0  0  0
  2 21  1  0  0  0
 21 22  1  0  0  0
 21 23  1  0  0  0
 21 24  1  0  0  0
 20 15  1  0  0  0
 11  1  1  0  0  0
 10  4  1  0  0  0
  7 13  1  0  0  0
M  END
> <minimizedAffinity>
3.98778

> <CNNscore>
0.3709125221

> <CNNaffinity>
6.7740249634

> <CNN_VS>
2.5125706196

> <CNNaffinity_variance>
0.9496103525

$$$$
[H]Oc1c([H])c([H])c2c(=O)c(-c3c([H])c([H])c([H])c([H])c3C([H])([H])[H])c(C(F)(F)F)oc2c1[H]


 24 26  0  0  0  0  0  0  0  0999 V2000
    9.4662   46.1961  130.3686 C   0  0  0  0  0  0  0  0  0  0  0  0
    8.3516   45.4282  130.2500 C   0  0  0  0  0  0  0  0  0  0  0  0
    7.1796   46.0337  129.9928 O   0  0  0  0  0  0  0  0  0  0  0  0
    7.0718   47.3204  129.8551 C   0  0  0  0  0  0  0  0  0  0  0  0
    5.8209   47.8576  129.5908 C   0  0  0  0  0  0  0  0  0  0  0  0
    5.6508   49.2170  129.4357 C   0  0  0  0  0  0  0  0  0  0  0  0
    4.4179   49.7960  129.1707 O   0  0  0  0  0  0  0  0  0  0  0  0
    6.7768   50.0052  129.5560 C   0  0  0  0  0  0  0  0  0  0  0  0
    8.0326   49.5007  129.8180 C   0  0  0  0  0  0  0  0  0  0  0  0
    8.1729   48.1357  129.9685 C   0  0  0  0  0  0  0  0  0  0  0  0
    9.3954   47.5978  130.2273 C   0  0  0  0  0  0  0  0  0  0  0  0
   10.4356   48.2831  130.3423 O   0  0  0  0  0  0  0  0  0  0  0  0
    4.0957   49.9372  128.2222 H   0  0  0  0  0  0  0  0  0  0  0  0
   10.9762   44.9522  128.1730 C   0  0  0  0  0  0  0  0  0  0  0  0
   11.4690   45.0271  129.5688 C   0  0  0  0  0  0  0  0  0  0  0  0
   12.7150   44.4776  129.7901 C   0  0  0  0  0  0  0  0  0  0  0  0
   13.2994   44.5192  131.0406 C   0  0  0  0  0  0  0  0  0  0  0  0
   12.6440   45.1112  132.0847 C   0  0  0  0  0  0  0  0  0  0  0  0
   11.4037   45.6544  131.8526 C   0  0  0  0  0  0  0  0  0  0  0  0
   10.7730   45.6346  130.6029 C   0  0  0  0  0  0  0  0  0  0  0  0
    8.3802   43.9673  130.3962 C   0  0  0  0  0  0  0  0  0  0  0  0
    9.3194   43.5220  131.3344 F   0  0  0  0  0  0  0  0  0  0  0  0
    7.1549   43.5972  131.0182 F   0  0  0  0  0  0  0  0  0  0  0  0
    8.4082   43.2382  129.2560 F   0  0  0  0  0  0  0  0  0  0  0  0
 14 15  1  0  0  0
 15 16  2  0  0  0
 16 17  1  0  0  0
 17 18  2  0  0  0
 18 19  1  0  0  0
 19 20  2  0  0  0
 20  1  1  0  0  0
  1  2  2  0  0  0
  2  3  1  0  0  0
  3  4  1  0  0  0
  4  5  2  0  0  0
  5  6  1  0  0  0
  6  7  1  0  0  0
  6  8  2  0  0  0
  8  9  1  0  0  0
  9 10  2  0  0  0
 10 11  1  0  0  0
 11 12  2  0  0  0
  2 21  1  0  0  0
 21 22  1  0  0  0
 21 23  1  0  0  0
 21 24  1  0  0  0
 20 15  1  0  0  0
 11  1  1  0  0  0
 10  4  1  0  0  0
  7 13  1  0  0  0
M  END
> <minimizedAffinity>
-7.90279

> <CNNscore>
0.3232549131

> <CNNaffinity>
6.7583832741

> <CNN_VS>
2.1846807003

> <CNNaffinity_variance>
0.2283336669

$$$$
[H]Oc1c([H])c([H])c2c(=O)c(-c3c([H])c([H])c([H])c([H])c3C([H])([H])[H])c(C(F)(F)F)oc2c1[H]


 24 26  0  0  0  0  0  0  0  0999 V2000
    9.8402   45.9888  131.8511 C   0  0  0  0  0  0  0  0  0  0  0  0
    8.8384   45.5094  132.6338 C   0  0  0  0  0  0  0  0  0  0  0  0
    9.1625   44.7876  133.7203 O   0  0  0  0  0  0  0  0  0  0  0  0
   10.3921   44.5306  134.0487 C   0  0  0  0  0  0  0  0  0  0  0  0
   10.6317   43.7770  135.1881 C   0  0  0  0  0  0  0  0  0  0  0  0
   11.9181   43.4753  135.5818 C   0  0  0  0  0  0  0  0  0  0  0  0
   12.2024   42.7249  136.7139 O   0  0  0  0  0  0  0  0  0  0  0  0
   12.9421   43.9566  134.7923 C   0  0  0  0  0  0  0  0  0  0  0  0
   12.7357   44.7078  133.6551 C   0  0  0  0  0  0  0  0  0  0  0  0
   11.4370   44.9944  133.2850 C   0  0  0  0  0  0  0  0  0  0  0  0
   11.1904   45.7333  132.1697 C   0  0  0  0  0  0  0  0  0  0  0  0
   12.0947   46.1846  131.4324 O   0  0  0  0  0  0  0  0  0  0  0  0
   12.3351   43.1630  137.6161 H   0  0  0  0  0  0  0  0  0  0  0  0
    9.6607   44.7758  129.1781 C   0  0  0  0  0  0  0  0  0  0  0  0
    9.5347   46.2310  129.4292 C   0  0  0  0  0  0  0  0  0  0  0  0
    9.3103   47.0102  128.3129 C   0  0  0  0  0  0  0  0  0  0  0  0
    9.1373   48.3759  128.4211 C   0  0  0  0  0  0  0  0  0  0  0  0
    9.1869   48.9786  129.6478 C   0  0  0  0  0  0  0  0  0  0  0  0
    9.4116   48.1928  130.7520 C   0  0  0  0  0  0  0  0  0  0  0  0
    9.5931   46.8061  130.6897 C   0  0  0  0  0  0  0  0  0  0  0  0
    7.4205   45.7467  132.3346 C   0  0  0  0  0  0  0  0  0  0  0  0
    7.1800   46.9904  131.7382 F   0  0  0  0  0  0  0  0  0  0  0  0
    7.0717   44.8520  131.2843 F   0  0  0  0  0  0  0  0  0  0  0  0
    6.5323   45.4683  133.3175 F   0  0  0  0  0  0  0  0  0  0  0  0
 14 15  1  0  0  0
 15 16  2  0  0  0
 16 17  1  0  0  0
 17 18  2  0  0  0
 18 19  1  0  0  0
 19 20  2  0  0  0
 20  1  1  0  0  0
  1  2  2  0  0  0
  2  3  1  0  0  0
  3  4  1  0  0  0
  4  5  2  0  0  0
  5  6  1  0  0  0
  6  7  1  0  0  0
  6  8  2  0  0  0
  8  9  1  0  0  0
  9 10  2  0  0  0
 10 11  1  0  0  0
 11 12  2  0  0  0
  2 21  1  0  0  0
 21 22  1  0  0  0
 21 23  1  0  0  0
 21 24  1  0  0  0
 20 15  1  0  0  0
 11  1  1  0  0  0
 10  4  1  0  0  0
  7 13  1  0  0  0
M  END
> <minimizedAffinity>
2.75987

> <CNNscore>
0.2912741899

> <CNNaffinity>
6.5200576782

> <CNN_VS>
1.8991245031

> <CNNaffinity_variance>
1.4090149403

$$$$
[H]Oc1c([H])c([H])c2c(=O)c(-c3c([H])c([H])c([H])c([H])c3C([H])([H])[H])c(C(F)(F)F)oc2c1[H]


 24 26  0  0  0  0  0  0  0  0999 V2000
    9.5630   45.0049  131.2539 C   0  0  0  0  0  0  0  0  0  0  0  0
    9.2457   44.2064  132.3065 C   0  0  0  0  0  0  0  0  0  0  0  0
    8.9070   44.7847  133.4714 O   0  0  0  0  0  0  0  0  0  0  0  0
    8.8728   46.0731  133.6295 C   0  0  0  0  0  0  0  0  0  0  0  0
    8.5116   46.5809  134.8684 C   0  0  0  0  0  0  0  0  0  0  0  0
    8.4592   47.9407  135.0901 C   0  0  0  0  0  0  0  0  0  0  0  0
    8.1032   48.4909  136.3133 O   0  0  0  0  0  0  0  0  0  0  0  0
    8.7811   48.7597  134.0275 C   0  0  0  0  0  0  0  0  0  0  0  0
    9.1435   48.2849  132.7851 C   0  0  0  0  0  0  0  0  0  0  0  0
    9.1873   46.9187  132.5921 C   0  0  0  0  0  0  0  0  0  0  0  0
    9.5397   46.4096  131.3808 C   0  0  0  0  0  0  0  0  0  0  0  0
    9.8371   47.1232  130.3974 O   0  0  0  0  0  0  0  0  0  0  0  0
    7.1397   48.7076  136.5324 H   0  0  0  0  0  0  0  0  0  0  0  0
   12.3733   44.6525  130.4629 C   0  0  0  0  0  0  0  0  0  0  0  0
   11.2262   44.3381  129.5786 C   0  0  0  0  0  0  0  0  0  0  0  0
   11.5533   43.8457  128.3321 C   0  0  0  0  0  0  0  0  0  0  0  0
   10.5726   43.4798  127.4314 C   0  0  0  0  0  0  0  0  0  0  0  0
    9.2526   43.6023  127.7673 C   0  0  0  0  0  0  0  0  0  0  0  0
    8.9389   44.0944  129.0109 C   0  0  0  0  0  0  0  0  0  0  0  0
    9.8989   44.4781  129.9548 C   0  0  0  0  0  0  0  0  0  0  0  0
    9.2636   42.7406  132.2189 C   0  0  0  0  0  0  0  0  0  0  0  0
   10.5390   42.2148  131.9793 F   0  0  0  0  0  0  0  0  0  0  0  0
    8.9926   42.2522  133.5277 F   0  0  0  0  0  0  0  0  0  0  0  0
    8.3160   42.1618  131.4447 F   0  0  0  0  0  0  0  0  0  0  0  0
 14 15  1  0  0  0
 15 16  2  0  0  0
 16 17  1  0  0  0
 17 18  2  0  0  0
 18 19  1  0  0  0
 19 20  2  0  0  0
 20  1  1  0  0  0
  1  2  2  0  0  0
  2  3  1  0  0  0
  3  4  1  0  0  0
  4  5  2  0  0  0
  5  6  1  0  0  0
  6  7  1  0  0  0
  6  8  2  0  0  0
  8  9  1  0  0  0
  9 10  2  0  0  0
 10 11  1  0  0  0
 11 12  2  0  0  0
  2 21  1  0  0  0
 21 22  1  0  0  0
 21 23  1  0  0  0
 21 24  1  0  0  0
 20 15  1  0  0  0
 11  1  1  0  0  0
 10  4  1  0  0  0
  7 13  1  0  0  0
M  END
> <minimizedAffinity>
-3.32709

> <CNNscore>
0.2263317406

> <CNNaffinity>
6.6848473549

> <CNN_VS>
1.5129930973

> <CNNaffinity_variance>
0.4640862942

$$$$
[H]Oc1c([H])c([H])c2c(=O)c(-c3c([H])c([H])c([H])c([H])c3C([H])([H])[H])c(C(F)(F)F)oc2c1[H]


 24 26  0  0  0  0  0  0  0  0999 V2000
   10.1983   46.0991  130.5405 C   0  0  0  0  0  0  0  0  0  0  0  0
   10.9381   46.0979  131.6802 C   0  0  0  0  0  0  0  0  0  0  0  0
   10.9361   47.2012  132.4476 O   0  0  0  0  0  0  0  0  0  0  0  0
   10.2576   48.2653  132.1420 C   0  0  0  0  0  0  0  0  0  0  0  0
   10.3156   49.3577  132.9944 C   0  0  0  0  0  0  0  0  0  0  0  0
    9.6146   50.5122  132.7172 C   0  0  0  0  0  0  0  0  0  0  0  0
    9.6446   51.6275  133.5422 O   0  0  0  0  0  0  0  0  0  0  0  0
    8.8616   50.5234  131.5612 C   0  0  0  0  0  0  0  0  0  0  0  0
    8.7841   49.4540  130.6948 C   0  0  0  0  0  0  0  0  0  0  0  0
    9.4965   48.3111  130.9980 C   0  0  0  0  0  0  0  0  0  0  0  0
    9.4464   47.2334  130.1692 C   0  0  0  0  0  0  0  0  0  0  0  0
    8.7743   47.2103  129.1144 O   0  0  0  0  0  0  0  0  0  0  0  0
    8.9778   51.7442  134.2939 H   0  0  0  0  0  0  0  0  0  0  0  0
    8.2339   43.9774  131.0764 C   0  0  0  0  0  0  0  0  0  0  0  0
    9.1942   43.9408  129.9481 C   0  0  0  0  0  0  0  0  0  0  0  0
    9.1093   42.8330  129.1302 C   0  0  0  0  0  0  0  0  0  0  0  0
    9.9243   42.7012  128.0233 C   0  0  0  0  0  0  0  0  0  0  0  0
   10.8343   43.6765  127.7215 C   0  0  0  0  0  0  0  0  0  0  0  0
   10.9103   44.7746  128.5435 C   0  0  0  0  0  0  0  0  0  0  0  0
   10.1055   44.9498  129.6754 C   0  0  0  0  0  0  0  0  0  0  0  0
   11.7397   44.9413  132.0997 C   0  0  0  0  0  0  0  0  0  0  0  0
   12.7476   44.6048  131.1879 F   0  0  0  0  0  0  0  0  0  0  0  0
   12.5003   45.3615  133.2267 F   0  0  0  0  0  0  0  0  0  0  0  0
   11.0632   43.8550  132.5411 F   0  0  0  0  0  0  0  0  0  0  0  0
 14 15  1  0  0  0
 15 16  2  0  0  0
 16 17  1  0  0  0
 17 18  2  0  0  0
 18 19  1  0  0  0
 19 20  2  0  0  0
 20  1  1  0  0  0
  1  2  2  0  0  0
  2  3  1  0  0  0
  3  4  1  0  0  0
  4  5  2  0  0  0
  5  6  1  0  0  0
  6  7  1  0  0  0
  6  8  2  0  0  0
  8  9  1  0  0  0
  9 10  2  0  0  0
 10 11  1  0  0  0
 11 12  2  0  0  0
  2 21  1  0  0  0
 21 22  1  0  0  0
 21 23  1  0  0  0
 21 24  1  0  0  0
 20 15  1  0  0  0
 11  1  1  0  0  0
 10  4  1  0  0  0
  7 13  1  0  0  0
M  END
> <minimizedAffinity>
-5.75629

> <CNNscore>
0.2103589475

> <CNNaffinity>
6.5824165344

> <CNN_VS>
1.3846702576

> <CNNaffinity_variance>
0.5689250231

$$$$
[H]Oc1c([H])c([H])c2c(=O)c(-c3c([H])c([H])c([H])c([H])c3C([H])([H])[H])c(C(F)(F)F)oc2c1[H]


 24 26  0  0  0  0  0  0  0  0999 V2000
    8.8872   46.3091  131.0502 C   0  0  0  0  0  0  0  0  0  0  0  0
    9.6075   45.2883  130.5161 C   0  0  0  0  0  0  0  0  0  0  0  0
   10.3410   44.5207  131.3401 O   0  0  0  0  0  0  0  0  0  0  0  0
   10.3886   44.7175  132.6227 C   0  0  0  0  0  0  0  0  0  0  0  0
   11.1734   43.8745  133.3954 C   0  0  0  0  0  0  0  0  0  0  0  0
   11.2594   44.0393  134.7616 C   0  0  0  0  0  0  0  0  0  0  0  0
   12.0322   43.2193  135.5715 O   0  0  0  0  0  0  0  0  0  0  0  0
   10.5325   45.0743  135.3129 C   0  0  0  0  0  0  0  0  0  0  0  0
    9.7441   45.9280  134.5715 C   0  0  0  0  0  0  0  0  0  0  0  0
    9.6770   45.7392  133.2056 C   0  0  0  0  0  0  0  0  0  0  0  0
    8.9099   46.5597  132.4382 C   0  0  0  0  0  0  0  0  0  0  0  0
    8.2390   47.5065  132.9056 O   0  0  0  0  0  0  0  0  0  0  0  0
   11.6513   42.3784  135.9851 H   0  0  0  0  0  0  0  0  0  0  0  0
    9.7987   48.9809  130.2266 C   0  0  0  0  0  0  0  0  0  0  0  0
    8.4655   48.4286  129.8893 C   0  0  0  0  0  0  0  0  0  0  0  0
    7.6535   49.2516  129.1364 C   0  0  0  0  0  0  0  0  0  0  0  0
    6.4024   48.8354  128.7261 C   0  0  0  0  0  0  0  0  0  0  0  0
    5.9486   47.5903  129.0643 C   0  0  0  0  0  0  0  0  0  0  0  0
    6.7655   46.7799  129.8147 C   0  0  0  0  0  0  0  0  0  0  0  0
    8.0396   47.1600  130.2530 C   0  0  0  0  0  0  0  0  0  0  0  0
    9.6168   44.9973  129.0768 C   0  0  0  0  0  0  0  0  0  0  0  0
   10.0433   46.0778  128.2951 F   0  0  0  0  0  0  0  0  0  0  0  0
   10.6614   44.0555  128.8596 F   0  0  0  0  0  0  0  0  0  0  0  0
    8.5162   44.3971  128.5662 F   0  0  0  0  0  0  0  0  0  0  0  0
 14 15  1  0  0  0
 15 16  2  0  0  0
 16 17  1  0  0  0
 17 18  2  0  0  0
 18 19  1  0  0  0
 19 20  2  0  0  0
 20  1  1  0  0  0
  1  2  2  0  0  0
  2  3  1  0  0  0
  3  4  1  0  0  0
  4  5  2  0  0  0
  5  6  1  0  0  0
  6  7  1  0  0  0
  6  8  2  0  0  0
  8  9  1  0  0  0
  9 10  2  0  0  0
 10 11  1  0  0  0
 11 12  2  0  0  0
  2 21  1  0  0  0
 21 22  1  0  0  0
 21 23  1  0  0  0
 21 24  1  0  0  0
 20 15  1  0  0  0
 11  1  1  0  0  0
 10  4  1  0  0  0
  7 13  1  0  0  0
M  END
> <minimizedAffinity>
-7.91438

> <CNNscore>
0.2004441768

> <CNNaffinity>
6.7727689743

> <CNN_VS>
1.3575620651

> <CNNaffinity_variance>
0.1496024281

$$$$
[H]c1c([H])c([C@]2([H])c3c(c4c([H])c([H])c([H])c([H])c4n3[H])C([H])([H])[C@@]([H])(C([H])([H])[H])N2C([H])([H])C([H])(F)F)c(OC([H])([H])[H])c([H])c1N([H])C([H])([H])C([H])([H])N([H])C([H])([H])C([H])([H])C([H])([H])F


 37 40  0  0  0  0  0  0  0  0999 V2000
    8.8727   45.0152  131.4910 C   0  0  0  0  0  0  0  0  0  0  0  0
    9.9653   45.2278  132.3455 N   0  0  0  0  0  0  0  0  0  0  0  0
   10.9309   46.1435  131.7585 C   0  0  0  0  0  0  0  0  0  0  0  0
   12.1561   46.2808  132.6555 C   0  0  0  0  0  0  0  0  0  0  0  0
   10.3842   47.5038  131.4838 C   0  0  0  0  0  0  0  0  0  0  0  0
    8.9960   47.4671  130.9622 C   0  0  0  0  0  0  0  0  0  0  0  0
    8.2623   46.2909  130.9585 C   0  0  0  0  0  0  0  0  0  0  0  0
    7.0765   46.5970  130.4340 N   0  0  0  0  0  0  0  0  0  0  0  0
    7.0159   47.8991  130.1048 C   0  0  0  0  0  0  0  0  0  0  0  0
    6.0645   48.7263  129.5477 C   0  0  0  0  0  0  0  0  0  0  0  0
    6.2578   50.0698  129.3060 C   0  0  0  0  0  0  0  0  0  0  0  0
    7.4778   50.6376  129.6384 C   0  0  0  0  0  0  0  0  0  0  0  0
    8.4484   49.8372  130.1966 C   0  0  0  0  0  0  0  0  0  0  0  0
    8.2407   48.4940  130.4326 C   0  0  0  0  0  0  0  0  0  0  0  0
    6.2757   45.9379  130.2831 H   0  0  0  0  0  0  0  0  0  0  0  0
    9.7678   42.9001  130.5644 C   0  0  0  0  0  0  0  0  0  0  0  0
   10.1242   42.0505  129.5363 C   0  0  0  0  0  0  0  0  0  0  0  0
    9.9917   42.4336  128.2219 C   0  0  0  0  0  0  0  0  0  0  0  0
    9.4804   43.7177  127.9958 C   0  0  0  0  0  0  0  0  0  0  0  0
    9.1235   44.5682  129.0155 C   0  0  0  0  0  0  0  0  0  0  0  0
    9.2611   44.1735  130.3309 C   0  0  0  0  0  0  0  0  0  0  0  0
   11.2097   42.2053  132.3523 C   0  0  0  0  0  0  0  0  0  0  0  0
    9.9041   42.5078  131.9062 O   0  0  0  0  0  0  0  0  0  0  0  0
   10.3550   41.5946  127.1365 N   0  0  0  0  0  0  0  0  0  0  0  0
   10.8585   42.0462  126.3301 H   0  0  0  0  0  0  0  0  0  0  0  0
   10.0501   40.2087  127.1436 C   0  0  0  0  0  0  0  0  0  0  0  0
   10.7285   39.3693  126.1185 C   0  0  0  0  0  0  0  0  0  0  0  0
   11.8291   38.5936  126.6644 N   0  0  0  0  0  0  0  0  0  0  0  0
   11.5596   37.6201  126.8560 H   0  0  0  0  0  0  0  0  0  0  0  0
   12.9595   38.7020  125.7590 C   0  0  0  0  0  0  0  0  0  0  0  0
   12.7354   39.7619  124.7102 C   0  0  0  0  0  0  0  0  0  0  0  0
   13.9085   40.7248  124.7245 C   0  0  0  0  0  0  0  0  0  0  0  0
   13.4866   41.9556  125.1574 F   0  0  0  0  0  0  0  0  0  0  0  0
    9.7277   45.5185  133.7193 C   0  0  0  0  0  0  0  0  0  0  0  0
    8.4825   46.1977  134.1165 C   0  0  0  0  0  0  0  0  0  0  0  0
    8.3259   45.9063  135.4986 F   0  0  0  0  0  0  0  0  0  0  0  0
    8.5496   47.5950  134.1304 F   0  0  0  0  0  0  0  0  0  0  0  0
 22 23  1  0  0  0
 23 16  1  0  0  0
 16 17  2  0  0  0
 17 18  1  0  0  0
 18 24  1  0  0  0
 24 26  1  0  0  0
 26 27  1  0  0  0
 27 28  1  0  0  0
 28 30  1  0  0  0
 30 31  1  0  0  0
 31 32  1  0  0  0
 32 33  1  0  0  0
 18 19  2  0  0  0
 19 20  1  0  0  0
 20 21  2  0  0  0
 21  1  1  0  0  0
  1  2  1  0  0  0
  2 34  1  0  0  0
 34 35  1  0  0  0
 35 36  1  0  0  0
 35 37  1  0  0  0
  2  3  1  0  0  0
  3  4  1  0  0  0
  3  5  1  0  0  0
  5  6  1  0  0  0
  6  7  2  0  0  0
  7  8  1  0  0  0
  8  9  1  0  0  0
  9 10  2  0  0  0
 10 11  1  0  0  0
 11 12  2  0  0  0
 12 13  1  0  0  0
 13 14  2  0  0  0
 21 16  1  0  0  0
  7  1  1  0  0  0
 14  9  1  0  0  0
 14  6  1  0  0  0
 24 25  1  0  0  0
 28 29  1  0  0  0
  8 15  1  0  0  0
M  END
> <minimizedAffinity>
5.93068

> <CNNscore>
0.4674036503

> <CNNaffinity>
7.9049501419

> <CNN_VS>
3.6948025227

> <CNNaffinity_variance>
0.2472249269

$$$$
[H]c1c([H])c([C@]2([H])c3c(c4c([H])c([H])c([H])c([H])c4n3[H])C([H])([H])[C@@]([H])(C([H])([H])[H])N2C([H])([H])C([H])(F)F)c(OC([H])([H])[H])c([H])c1N([H])C([H])([H])C([H])([H])N([H])C([H])([H])C([H])([H])C([H])([H])F


 37 40  0  0  0  0  0  0  0  0999 V2000
    9.9732   47.2218  131.3700 C   0  0  0  0  0  0  0  0  0  0  0  0
    9.6114   46.9670  132.7017 N   0  0  0  0  0  0  0  0  0  0  0  0
    8.4189   46.1381  132.7808 C   0  0  0  0  0  0  0  0  0  0  0  0
    7.9840   45.9586  134.2310 C   0  0  0  0  0  0  0  0  0  0  0  0
    8.5762   44.7919  132.1583 C   0  0  0  0  0  0  0  0  0  0  0  0
    9.3599   44.8324  130.8995 C   0  0  0  0  0  0  0  0  0  0  0  0
   10.0311   45.9809  130.5095 C   0  0  0  0  0  0  0  0  0  0  0  0
   10.6257   45.6868  129.3541 N   0  0  0  0  0  0  0  0  0  0  0  0
   10.3704   44.4183  128.9889 C   0  0  0  0  0  0  0  0  0  0  0  0
   10.7184   43.6157  127.9240 C   0  0  0  0  0  0  0  0  0  0  0  0
   10.3122   42.3059  127.7810 C   0  0  0  0  0  0  0  0  0  0  0  0
    9.5043   41.7485  128.7598 C   0  0  0  0  0  0  0  0  0  0  0  0
    9.1396   42.5251  129.8360 C   0  0  0  0  0  0  0  0  0  0  0  0
    9.5538   43.8345  129.9656 C   0  0  0  0  0  0  0  0  0  0  0  0
   11.2196   46.3316  128.7797 H   0  0  0  0  0  0  0  0  0  0  0  0
    9.1575   49.5325  131.0119 C   0  0  0  0  0  0  0  0  0  0  0  0
    8.3344   50.4811  130.4387 C   0  0  0  0  0  0  0  0  0  0  0  0
    7.3400   50.1190  129.5600 C   0  0  0  0  0  0  0  0  0  0  0  0
    7.2174   48.7507  129.2875 C   0  0  0  0  0  0  0  0  0  0  0  0
    8.0343   47.8014  129.8551 C   0  0  0  0  0  0  0  0  0  0  0  0
    9.0287   48.1760  130.7358 C   0  0  0  0  0  0  0  0  0  0  0  0
    9.7741   50.2157  133.2280 C   0  0  0  0  0  0  0  0  0  0  0  0
   10.1723   49.9037  131.9093 O   0  0  0  0  0  0  0  0  0  0  0  0
    6.4670   51.0612  128.9566 N   0  0  0  0  0  0  0  0  0  0  0  0
    5.5345   50.7048  128.6235 H   0  0  0  0  0  0  0  0  0  0  0  0
    6.8405   52.4225  128.8114 C   0  0  0  0  0  0  0  0  0  0  0  0
    7.2086   52.8726  127.4411 C   0  0  0  0  0  0  0  0  0  0  0  0
    7.2444   54.3195  127.3142 N   0  0  0  0  0  0  0  0  0  0  0  0
    8.0786   54.7268  127.7561 H   0  0  0  0  0  0  0  0  0  0  0  0
    7.1243   54.6592  125.9073 C   0  0  0  0  0  0  0  0  0  0  0  0
    8.3913   54.3546  125.1489 C   0  0  0  0  0  0  0  0  0  0  0  0
    8.0458   54.1063  123.6920 C   0  0  0  0  0  0  0  0  0  0  0  0
    6.6831   54.0756  123.5424 F   0  0  0  0  0  0  0  0  0  0  0  0
   10.6104   46.5466  133.6256 C   0  0  0  0  0  0  0  0  0  0  0  0
   11.6911   45.6530  133.1750 C   0  0  0  0  0  0  0  0  0  0  0  0
   12.6960   45.7532  134.1750 F   0  0  0  0  0  0  0  0  0  0  0  0
   11.3870   44.2882  133.2189 F   0  0  0  0  0  0  0  0  0  0  0  0
 22 23  1  0  0  0
 23 16  1  0  0  0
 16 17  2  0  0  0
 17 18  1  0  0  0
 18 24  1  0  0  0
 24 26  1  0  0  0
 26 27  1  0  0  0
 27 28  1  0  0  0
 28 30  1  0  0  0
 30 31  1  0  0  0
 31 32  1  0  0  0
 32 33  1  0  0  0
 18 19  2  0  0  0
 19 20  1  0  0  0
 20 21  2  0  0  0
 21  1  1  0  0  0
  1  2  1  0  0  0
  2 34  1  0  0  0
 34 35  1  0  0  0
 35 36  1  0  0  0
 35 37  1  0  0  0
  2  3  1  0  0  0
  3  4  1  0  0  0
  3  5  1  0  0  0
  5  6  1  0  0  0
  6  7  2  0  0  0
  7  8  1  0  0  0
  8  9  1  0  0  0
  9 10  2  0  0  0
 10 11  1  0  0  0
 11 12  2  0  0  0
 12 13  1  0  0  0
 13 14  2  0  0  0
 21 16  1  0  0  0
  7  1  1  0  0  0
 14  9  1  0  0  0
 14  6  1  0  0  0
 24 25  1  0  0  0
 28 29  1  0  0  0
  8 15  1  0  0  0
M  END
> <minimizedAffinity>
-3.43660

> <CNNscore>
0.4383005798

> <CNNaffinity>
7.6758399010

> <CNN_VS>
3.3643250465

> <CNNaffinity_variance>
0.2125896215

$$$$
[H]c1c([H])c([C@]2([H])c3c(c4c([H])c([H])c([H])c([H])c4n3[H])C([H])([H])[C@@]([H])(C([H])([H])[H])N2C([H])([H])C([H])(F)F)c(OC([H])([H])[H])c([H])c1N([H])C([H])([H])C([H])([H])N([H])C([H])([H])C([H])([H])C([H])([H])F


 37 40  0  0  0  0  0  0  0  0999 V2000
    7.9666   47.2494  131.1169 C   0  0  0  0  0  0  0  0  0  0  0  0
    7.8550   47.4180  129.7283 N   0  0  0  0  0  0  0  0  0  0  0  0
    9.1430   47.2726  129.0684 C   0  0  0  0  0  0  0  0  0  0  0  0
    9.0184   47.5603  127.5763 C   0  0  0  0  0  0  0  0  0  0  0  0
    9.7648   45.9286  129.2463 C   0  0  0  0  0  0  0  0  0  0  0  0
    9.5758   45.3881  130.6147 C   0  0  0  0  0  0  0  0  0  0  0  0
    8.7234   46.0044  131.5176 C   0  0  0  0  0  0  0  0  0  0  0  0
    8.7812   45.2795  132.6339 N   0  0  0  0  0  0  0  0  0  0  0  0
    9.6209   44.2393  132.4911 C   0  0  0  0  0  0  0  0  0  0  0  0
   10.0453   43.2041  133.2961 C   0  0  0  0  0  0  0  0  0  0  0  0
   10.9420   42.2356  132.8974 C   0  0  0  0  0  0  0  0  0  0  0  0
   11.4566   42.2931  131.6116 C   0  0  0  0  0  0  0  0  0  0  0  0
   11.0519   43.3153  130.7836 C   0  0  0  0  0  0  0  0  0  0  0  0
   10.1538   44.2776  131.1964 C   0  0  0  0  0  0  0  0  0  0  0  0
    8.2572   45.4650  133.5224 H   0  0  0  0  0  0  0  0  0  0  0  0
    8.9643   48.3610  133.0924 C   0  0  0  0  0  0  0  0  0  0  0  0
    9.6149   49.3949  133.7354 C   0  0  0  0  0  0  0  0  0  0  0  0
    9.9731   50.5373  133.0580 C   0  0  0  0  0  0  0  0  0  0  0  0
    9.6425   50.5845  131.6979 C   0  0  0  0  0  0  0  0  0  0  0  0
    8.9949   49.5579  131.0520 C   0  0  0  0  0  0  0  0  0  0  0  0
    8.6398   48.4163  131.7416 C   0  0  0  0  0  0  0  0  0  0  0  0
    9.2668   46.9422  135.0039 C   0  0  0  0  0  0  0  0  0  0  0  0
    8.5988   47.1952  133.7854 O   0  0  0  0  0  0  0  0  0  0  0  0
   10.6341   51.6263  133.6835 N   0  0  0  0  0  0  0  0  0  0  0  0
   10.3143   52.5943  133.4221 H   0  0  0  0  0  0  0  0  0  0  0  0
   11.6795   51.4133  134.6191 C   0  0  0  0  0  0  0  0  0  0  0  0
   12.7974   52.3961  134.6082 C   0  0  0  0  0  0  0  0  0  0  0  0
   12.3426   53.7680  134.7572 N   0  0  0  0  0  0  0  0  0  0  0  0
   12.1608   54.0115  135.7393 H   0  0  0  0  0  0  0  0  0  0  0  0
   13.3138   54.6437  134.1255 C   0  0  0  0  0  0  0  0  0  0  0  0
   14.6286   53.9435  133.8919 C   0  0  0  0  0  0  0  0  0  0  0  0
   14.9092   53.9072  132.4008 C   0  0  0  0  0  0  0  0  0  0  0  0
   15.6376   52.7856  132.0981 F   0  0  0  0  0  0  0  0  0  0  0  0
    6.8205   46.7363  129.0258 C   0  0  0  0  0  0  0  0  0  0  0  0
    5.6236   46.2795  129.7525 C   0  0  0  0  0  0  0  0  0  0  0  0
    5.9630   46.3845  131.1286 F   0  0  0  0  0  0  0  0  0  0  0  0
    4.5194   47.1344  129.6700 F   0  0  0  0  0  0  0  0  0  0  0  0
 22 23  1  0  0  0
 23 16  1  0  0  0
 16 17  2  0  0  0
 17 18  1  0  0  0
 18 24  1  0  0  0
 24 26  1  0  0  0
 26 27  1  0  0  0
 27 28  1  0  0  0
 28 30  1  0  0  0
 30 31  1  0  0  0
 31 32  1  0  0  0
 32 33  1  0  0  0
 18 19  2  0  0  0
 19 20  1  0  0  0
 20 21  2  0  0  0
 21  1  1  0  0  0
  1  2  1  0  0  0
  2 34  1  0  0  0
 34 35  1  0  0  0
 35 36  1  0  0  0
 35 37  1  0  0  0
  2  3  1  0  0  0
  3  4  1  0  0  0
  3  5  1  0  0  0
  5  6  1  0  0  0
  6  7  2  0  0  0
  7  8  1  0  0  0
  8  9  1  0  0  0
  9 10  2  0  0  0
 10 11  1  0  0  0
 11 12  2  0  0  0
 12 13  1  0  0  0
 13 14  2  0  0  0
 21 16  1  0  0  0
  7  1  1  0  0  0
 14  9  1  0  0  0
 14  6  1  0  0  0
 24 25  1  0  0  0
 28 29  1  0  0  0
  8 15  1  0  0  0
M  END
> <minimizedAffinity>
12.54500

> <CNNscore>
0.4370202124

> <CNNaffinity>
7.8753614426

> <CNN_VS>
3.4416921139

> <CNNaffinity_variance>
0.8436505198

$$$$
[H]c1c([H])c([C@]2([H])c3c(c4c([H])c([H])c([H])c([H])c4n3[H])C([H])([H])[C@@]([H])(C([H])([H])[H])N2C([H])([H])C([H])(F)F)c(OC([H])([H])[H])c([H])c1N([H])C([H])([H])C([H])([H])N([H])C([H])([H])C([H])([H])C([H])([H])F


 37 40  0  0  0  0  0  0  0  0999 V2000
   10.1729   45.1997  130.5324 C   0  0  0  0  0  0  0  0  0  0  0  0
   11.3240   45.5281  131.2649 N   0  0  0  0  0  0  0  0  0  0  0  0
   11.0070   45.8168  132.6548 C   0  0  0  0  0  0  0  0  0  0  0  0
   12.2529   46.2701  133.4076 C   0  0  0  0  0  0  0  0  0  0  0  0
   10.3970   44.6691  133.3865 C   0  0  0  0  0  0  0  0  0  0  0  0
    9.4307   43.9102  132.5554 C   0  0  0  0  0  0  0  0  0  0  0  0
    9.3114   44.1501  131.1953 C   0  0  0  0  0  0  0  0  0  0  0  0
    8.3720   43.3148  130.7540 N   0  0  0  0  0  0  0  0  0  0  0  0
    7.8887   42.5592  131.7555 C   0  0  0  0  0  0  0  0  0  0  0  0
    6.9386   41.5667  131.8644 C   0  0  0  0  0  0  0  0  0  0  0  0
    6.6206   40.9305  133.0455 C   0  0  0  0  0  0  0  0  0  0  0  0
    7.2886   41.3008  134.2023 C   0  0  0  0  0  0  0  0  0  0  0  0
    8.2432   42.2893  134.1258 C   0  0  0  0  0  0  0  0  0  0  0  0
    8.5508   42.9171  132.9366 C   0  0  0  0  0  0  0  0  0  0  0  0
    8.0304   43.2304  129.7667 H   0  0  0  0  0  0  0  0  0  0  0  0
    9.3932   47.0309  129.0586 C   0  0  0  0  0  0  0  0  0  0  0  0
    8.6216   48.1351  128.7566 C   0  0  0  0  0  0  0  0  0  0  0  0
    7.7500   48.6647  129.6797 C   0  0  0  0  0  0  0  0  0  0  0  0
    7.6951   48.0239  130.9238 C   0  0  0  0  0  0  0  0  0  0  0  0
    8.4609   46.9238  131.2302 C   0  0  0  0  0  0  0  0  0  0  0  0
    9.3324   46.4009  130.2964 C   0  0  0  0  0  0  0  0  0  0  0  0
   10.0257   45.1734  127.6773 C   0  0  0  0  0  0  0  0  0  0  0  0
   10.2831   46.4913  128.1152 O   0  0  0  0  0  0  0  0  0  0  0  0
    6.9464   49.8036  129.4127 N   0  0  0  0  0  0  0  0  0  0  0  0
    6.0679   49.9134  129.9817 H   0  0  0  0  0  0  0  0  0  0  0  0
    7.3161   50.7489  128.4211 C   0  0  0  0  0  0  0  0  0  0  0  0
    7.1690   52.1862  128.7794 C   0  0  0  0  0  0  0  0  0  0  0  0
    6.6071   52.9809  127.7006 N   0  0  0  0  0  0  0  0  0  0  0  0
    5.8818   53.6288  128.0337 H   0  0  0  0  0  0  0  0  0  0  0  0
    7.6951   53.6522  127.0115 C   0  0  0  0  0  0  0  0  0  0  0  0
    7.1859   54.6465  125.9989 C   0  0  0  0  0  0  0  0  0  0  0  0
    8.1246   54.6598  124.8064 C   0  0  0  0  0  0  0  0  0  0  0  0
    8.3853   53.3723  124.4132 F   0  0  0  0  0  0  0  0  0  0  0  0
   12.4819   44.7076  131.1456 C   0  0  0  0  0  0  0  0  0  0  0  0
   12.9683   44.3219  129.8099 C   0  0  0  0  0  0  0  0  0  0  0  0
   12.7323   45.4566  128.9875 F   0  0  0  0  0  0  0  0  0  0  0  0
   14.3562   44.1823  129.7034 F   0  0  0  0  0  0  0  0  0  0  0  0
 22 23  1  0  0  0
 23 16  1  0  0  0
 16 17  2  0  0  0
 17 18  1  0  0  0
 18 24  1  0  0  0
 24 26  1  0  0  0
 26 27  1  0  0  0
 27 28  1  0  0  0
 28 30  1  0  0  0
 30 31  1  0  0  0
 31 32  1  0  0  0
 32 33  1  0  0  0
 18 19  2  0  0  0
 19 20  1  0  0  0
 20 21  2  0  0  0
 21  1  1  0  0  0
  1  2  1  0  0  0
  2 34  1  0  0  0
 34 35  1  0  0  0
 35 36  1  0  0  0
 35 37  1  0  0  0
  2  3  1  0  0  0
  3  4  1  0  0  0
  3  5  1  0  0  0
  5  6  1  0  0  0
  6  7  2  0  0  0
  7  8  1  0  0  0
  8  9  1  0  0  0
  9 10  2  0  0  0
 10 11  1  0  0  0
 11 12  2  0  0  0
 12 13  1  0  0  0
 13 14  2  0  0  0
 21 16  1  0  0  0
  7  1  1  0  0  0
 14  9  1  0  0  0
 14  6  1  0  0  0
 24 25  1  0  0  0
 28 29  1  0  0  0
  8 15  1  0  0  0
M  END
> <minimizedAffinity>
2.76998

> <CNNscore>
0.4301962554

> <CNNaffinity>
7.3651566505

> <CNN_VS>
3.1684627533

> <CNNaffinity_variance>
0.4372476041

$$$$
[H]c1c([H])c([C@]2([H])c3c(c4c([H])c([H])c([H])c([H])c4n3[H])C([H])([H])[C@@]([H])(C([H])([H])[H])N2C([H])([H])C([H])(F)F)c(OC([H])([H])[H])c([H])c1N([H])C([H])([H])C([H])([H])N([H])C([H])([H])C([H])([H])C([H])([H])F


 37 40  0  0  0  0  0  0  0  0999 V2000
    8.1012   45.0734  130.2148 C   0  0  0  0  0  0  0  0  0  0  0  0
    8.7850   44.5782  129.0939 N   0  0  0  0  0  0  0  0  0  0  0  0
   10.0817   45.2177  128.9351 C   0  0  0  0  0  0  0  0  0  0  0  0
   10.7633   44.7415  127.6571 C   0  0  0  0  0  0  0  0  0  0  0  0
   11.0088   44.9973  130.0825 C   0  0  0  0  0  0  0  0  0  0  0  0
   10.3183   45.0535  131.3941 C   0  0  0  0  0  0  0  0  0  0  0  0
    8.9349   45.0900  131.4751 C   0  0  0  0  0  0  0  0  0  0  0  0
    8.6420   45.1357  132.7739 N   0  0  0  0  0  0  0  0  0  0  0  0
    9.7596   45.1304  133.5212 C   0  0  0  0  0  0  0  0  0  0  0  0
   10.0368   45.1632  134.8710 C   0  0  0  0  0  0  0  0  0  0  0  0
   11.3112   45.1471  135.3966 C   0  0  0  0  0  0  0  0  0  0  0  0
   12.3896   45.0947  134.5274 C   0  0  0  0  0  0  0  0  0  0  0  0
   12.1452   45.0609  133.1734 C   0  0  0  0  0  0  0  0  0  0  0  0
   10.8642   45.0776  132.6617 C   0  0  0  0  0  0  0  0  0  0  0  0
    7.6821   45.1718  133.1930 H   0  0  0  0  0  0  0  0  0  0  0  0
    8.2923   47.5202  130.5462 C   0  0  0  0  0  0  0  0  0  0  0  0
    7.9121   48.8316  130.3426 C   0  0  0  0  0  0  0  0  0  0  0  0
    6.8292   49.1413  129.5528 C   0  0  0  0  0  0  0  0  0  0  0  0
    6.1485   48.0609  128.9776 C   0  0  0  0  0  0  0  0  0  0  0  0
    6.5226   46.7528  129.1765 C   0  0  0  0  0  0  0  0  0  0  0  0
    7.6106   46.4536  129.9712 C   0  0  0  0  0  0  0  0  0  0  0  0
   10.2620   48.2696  131.6937 C   0  0  0  0  0  0  0  0  0  0  0  0
    9.3980   47.2054  131.3533 O   0  0  0  0  0  0  0  0  0  0  0  0
    6.3999   50.4748  129.3257 N   0  0  0  0  0  0  0  0  0  0  0  0
    5.3706   50.6699  129.4264 H   0  0  0  0  0  0  0  0  0  0  0  0
    7.3223   51.4956  128.9784 C   0  0  0  0  0  0  0  0  0  0  0  0
    6.7465   52.7942  128.5333 C   0  0  0  0  0  0  0  0  0  0  0  0
    6.9291   53.0334  127.1118 N   0  0  0  0  0  0  0  0  0  0  0  0
    6.0638   52.8790  126.5786 H   0  0  0  0  0  0  0  0  0  0  0  0
    7.4724   54.3690  126.9382 C   0  0  0  0  0  0  0  0  0  0  0  0
    8.3664   54.4552  125.7271 C   0  0  0  0  0  0  0  0  0  0  0  0
    7.5049   54.6369  124.4908 C   0  0  0  0  0  0  0  0  0  0  0  0
    7.3762   53.4364  123.8407 F   0  0  0  0  0  0  0  0  0  0  0  0
    8.8609   43.1705  128.8912 C   0  0  0  0  0  0  0  0  0  0  0  0
    8.5349   42.2555  129.9984 C   0  0  0  0  0  0  0  0  0  0  0  0
    9.7409   42.1254  130.7390 F   0  0  0  0  0  0  0  0  0  0  0  0
    7.6684   42.7798  130.9635 F   0  0  0  0  0  0  0  0  0  0  0  0
 22 23  1  0  0  0
 23 16  1  0  0  0
 16 17  2  0  0  0
 17 18  1  0  0  0
 18 24  1  0  0  0
 24 26  1  0  0  0
 26 27  1  0  0  0
 27 28  1  0  0  0
 28 30  1  0  0  0
 30 31  1  0  0  0
 31 32  1  0  0  0
 32 33  1  0  0  0
 18 19  2  0  0  0
 19 20  1  0  0  0
 20 21  2  0  0  0
 21  1  1  0  0  0
  1  2  1  0  0  0
  2 34  1  0  0  0
 34 35  1  0  0  0
 35 36  1  0  0  0
 35 37  1  0  0  0
  2  3  1  0  0  0
  3  4  1  0  0  0
  3  5  1  0  0  0
  5  6  1  0  0  0
  6  7  2  0  0  0
  7  8  1  0  0  0
  8  9  1  0  0  0
  9 10  2  0  0  0
 10 11  1  0  0  0
 11 12  2  0  0  0
 12 13  1  0  0  0
 13 14  2  0  0  0
 21 16  1  0  0  0
  7  1  1  0  0  0
 14  9  1  0  0  0
 14  6  1  0  0  0
 24 25  1  0  0  0
 28 29  1  0  0  0
  8 15  1  0  0  0
M  END
> <minimizedAffinity>
-4.46368

> <CNNscore>
0.4009921551

> <CNNaffinity>
7.6988973618

> <CNN_VS>
3.0871975422

> <CNNaffinity_variance>
0.2818508744

$$$$
[H]c1c([H])c([C@]2([H])c3c(c4c([H])c([H])c([H])c([H])c4n3[H])C([H])([H])[C@@]([H])(C([H])([H])[H])N2C([H])([H])C([H])(F)F)c(OC([H])([H])[H])c([H])c1N([H])C([H])([H])C([H])([H])N([H])C([H])([H])C([H])([H])C([H])([H])F


 37 40  0  0  0  0  0  0  0  0999 V2000
   10.2135   46.8434  131.5686 C   0  0  0  0  0  0  0  0  0  0  0  0
    9.8175   46.5342  132.8789 N   0  0  0  0  0  0  0  0  0  0  0  0
    8.5705   45.7858  132.8963 C   0  0  0  0  0  0  0  0  0  0  0  0
    8.1050   45.5493  134.3287 C   0  0  0  0  0  0  0  0  0  0  0  0
    8.6444   44.4719  132.1941 C   0  0  0  0  0  0  0  0  0  0  0  0
    9.4458   44.5345  130.9474 C   0  0  0  0  0  0  0  0  0  0  0  0
   10.1985   45.6557  130.6345 C   0  0  0  0  0  0  0  0  0  0  0  0
   10.7872   45.3918  129.4688 N   0  0  0  0  0  0  0  0  0  0  0  0
   10.4512   44.1682  129.0245 C   0  0  0  0  0  0  0  0  0  0  0  0
   10.7582   43.4092  127.9157 C   0  0  0  0  0  0  0  0  0  0  0  0
   10.2660   42.1415  127.6893 C   0  0  0  0  0  0  0  0  0  0  0  0
    9.4092   41.5827  128.6247 C   0  0  0  0  0  0  0  0  0  0  0  0
    9.0836   42.3161  129.7429 C   0  0  0  0  0  0  0  0  0  0  0  0
    9.5840   43.5838  129.9561 C   0  0  0  0  0  0  0  0  0  0  0  0
   11.4311   46.0279  128.9404 H   0  0  0  0  0  0  0  0  0  0  0  0
    9.3265   49.1557  131.5749 C   0  0  0  0  0  0  0  0  0  0  0  0
    8.5652   50.1921  131.0728 C   0  0  0  0  0  0  0  0  0  0  0  0
    7.7827   50.0200  129.9547 C   0  0  0  0  0  0  0  0  0  0  0  0
    7.8068   48.7488  129.3672 C   0  0  0  0  0  0  0  0  0  0  0  0
    8.5631   47.7129  129.8625 C   0  0  0  0  0  0  0  0  0  0  0  0
    9.3444   47.8968  130.9853 C   0  0  0  0  0  0  0  0  0  0  0  0
   10.0347   50.5819  133.3701 C   0  0  0  0  0  0  0  0  0  0  0  0
   10.1249   49.3328  132.7169 O   0  0  0  0  0  0  0  0  0  0  0  0
    6.9787   51.0561  129.4124 N   0  0  0  0  0  0  0  0  0  0  0  0
    7.3779   51.5978  128.6032 H   0  0  0  0  0  0  0  0  0  0  0  0
    5.6941   51.3443  129.9419 C   0  0  0  0  0  0  0  0  0  0  0  0
    4.6701   50.2693  129.8353 C   0  0  0  0  0  0  0  0  0  0  0  0
    4.2574   50.0186  128.4648 N   0  0  0  0  0  0  0  0  0  0  0  0
    4.3620   49.0298  128.2033 H   0  0  0  0  0  0  0  0  0  0  0  0
    2.9009   50.5097  128.2977 C   0  0  0  0  0  0  0  0  0  0  0  0
    2.8486   51.7047  127.3798 C   0  0  0  0  0  0  0  0  0  0  0  0
    1.5751   51.6381  126.5566 C   0  0  0  0  0  0  0  0  0  0  0  0
    1.8893   51.3948  125.2442 F   0  0  0  0  0  0  0  0  0  0  0  0
   10.7732   45.9913  133.7846 C   0  0  0  0  0  0  0  0  0  0  0  0
   12.2080   46.0612  133.4595 C   0  0  0  0  0  0  0  0  0  0  0  0
   12.8506   45.2636  134.4448 F   0  0  0  0  0  0  0  0  0  0  0  0
   12.5802   45.4052  132.2813 F   0  0  0  0  0  0  0  0  0  0  0  0
 22 23  1  0  0  0
 23 16  1  0  0  0
 16 17  2  0  0  0
 17 18  1  0  0  0
 18 24  1  0  0  0
 24 26  1  0  0  0
 26 27  1  0  0  0
 27 28  1  0  0  0
 28 30  1  0  0  0
 30 31  1  0  0  0
 31 32  1  0  0  0
 32 33  1  0  0  0
 18 19  2  0  0  0
 19 20  1  0  0  0
 20 21  2  0  0  0
 21  1  1  0  0  0
  1  2  1  0  0  0
  2 34  1  0  0  0
 34 35  1  0  0  0
 35 36  1  0  0  0
 35 37  1  0  0  0
  2  3  1  0  0  0
  3  4  1  0  0  0
  3  5  1  0  0  0
  5  6  1  0  0  0
  6  7  2  0  0  0
  7  8  1  0  0  0
  8  9  1  0  0  0
  9 10  2  0  0  0
 10 11  1  0  0  0
 11 12  2  0  0  0
 12 13  1  0  0  0
 13 14  2  0  0  0
 21 16  1  0  0  0
  7  1  1  0  0  0
 14  9  1  0  0  0
 14  6  1  0  0  0
 24 25  1  0  0  0
 28 29  1  0  0  0
  8 15  1  0  0  0
M  END
> <minimizedAffinity>
4.60187

> <CNNscore>
0.4009044170

> <CNNaffinity>
7.6915826797

> <CNN_VS>
3.0835895538

> <CNNaffinity_variance>
0.4455786645

$$$$
[H]c1c([H])c([C@]2([H])c3c(c4c([H])c([H])c([H])c([H])c4n3[H])C([H])([H])[C@@]([H])(C([H])([H])[H])N2C([H])([H])C([H])(F)F)c(OC([H])([H])[H])c([H])c1N([H])C([H])([H])C([H])([H])N([H])C([H])([H])C([H])([H])C([H])([H])F


 37 40  0  0  0  0  0  0  0  0999 V2000
    9.7230   44.9933  129.7841 C   0  0  0  0  0  0  0  0  0  0  0  0
   11.0307   44.7565  129.3334 N   0  0  0  0  0  0  0  0  0  0  0  0
   11.9796   44.7400  130.4355 C   0  0  0  0  0  0  0  0  0  0  0  0
   13.4046   44.5842  129.9162 C   0  0  0  0  0  0  0  0  0  0  0  0
   11.7178   43.6712  131.4425 C   0  0  0  0  0  0  0  0  0  0  0  0
   10.2718   43.4855  131.7159 C   0  0  0  0  0  0  0  0  0  0  0  0
    9.3090   44.1073  130.9361 C   0  0  0  0  0  0  0  0  0  0  0  0
    8.1317   43.7385  131.4390 N   0  0  0  0  0  0  0  0  0  0  0  0
    8.2923   42.9189  132.4926 C   0  0  0  0  0  0  0  0  0  0  0  0
    7.4477   42.2608  133.3604 C   0  0  0  0  0  0  0  0  0  0  0  0
    7.8788   41.4534  134.3915 C   0  0  0  0  0  0  0  0  0  0  0  0
    9.2415   41.2833  134.5792 C   0  0  0  0  0  0  0  0  0  0  0  0
   10.1107   41.9277  133.7285 C   0  0  0  0  0  0  0  0  0  0  0  0
    9.6647   42.7327  132.7009 C   0  0  0  0  0  0  0  0  0  0  0  0
    7.1880   44.0284  131.0870 H   0  0  0  0  0  0  0  0  0  0  0  0
    9.3286   47.3768  129.2394 C   0  0  0  0  0  0  0  0  0  0  0  0
    9.1356   48.7056  129.5601 C   0  0  0  0  0  0  0  0  0  0  0  0
    9.1600   49.1299  130.8683 C   0  0  0  0  0  0  0  0  0  0  0  0
    9.3885   48.1457  131.8382 C   0  0  0  0  0  0  0  0  0  0  0  0
    9.5811   46.8209  131.5249 C   0  0  0  0  0  0  0  0  0  0  0  0
    9.5549   46.4063  130.2088 C   0  0  0  0  0  0  0  0  0  0  0  0
   10.5525   46.7739  127.2653 C   0  0  0  0  0  0  0  0  0  0  0  0
    9.3039   46.9450  127.9030 O   0  0  0  0  0  0  0  0  0  0  0  0
    8.9756   50.4872  131.2396 N   0  0  0  0  0  0  0  0  0  0  0  0
    9.7033   50.9144  131.8686 H   0  0  0  0  0  0  0  0  0  0  0  0
    7.8575   51.2303  130.7802 C   0  0  0  0  0  0  0  0  0  0  0  0
    6.5783   50.4855  130.6227 C   0  0  0  0  0  0  0  0  0  0  0  0
    6.1743   50.3476  129.2339 N   0  0  0  0  0  0  0  0  0  0  0  0
    6.9792   50.2231  128.6066 H   0  0  0  0  0  0  0  0  0  0  0  0
    5.2104   49.2651  129.1425 C   0  0  0  0  0  0  0  0  0  0  0  0
    5.8680   47.9622  128.7637 C   0  0  0  0  0  0  0  0  0  0  0  0
    5.3004   46.8535  129.6310 C   0  0  0  0  0  0  0  0  0  0  0  0
    6.3030   46.3044  130.3883 F   0  0  0  0  0  0  0  0  0  0  0  0
   11.2681   43.6944  128.4148 C   0  0  0  0  0  0  0  0  0  0  0  0
   10.1649   42.7931  128.0406 C   0  0  0  0  0  0  0  0  0  0  0  0
    9.2956   43.5834  127.2409 F   0  0  0  0  0  0  0  0  0  0  0  0
   10.5122   41.7707  127.1511 F   0  0  0  0  0  0  0  0  0  0  0  0
 22 23  1  0  0  0
 23 16  1  0  0  0
 16 17  2  0  0  0
 17 18  1  0  0  0
 18 24  1  0  0  0
 24 26  1  0  0  0
 26 27  1  0  0  0
 27 28  1  0  0  0
 28 30  1  0  0  0
 30 31  1  0  0  0
 31 32  1  0  0  0
 32 33  1  0  0  0
 18 19  2  0  0  0
 19 20  1  0  0  0
 20 21  2  0  0  0
 21  1  1  0  0  0
  1  2  1  0  0  0
  2 34  1  0  0  0
 34 35  1  0  0  0
 35 36  1  0  0  0
 35 37  1  0  0  0
  2  3  1  0  0  0
  3  4  1  0  0  0
  3  5  1  0  0  0
  5  6  1  0  0  0
  6  7  2  0  0  0
  7  8  1  0  0  0
  8  9  1  0  0  0
  9 10  2  0  0  0
 10 11  1  0  0  0
 11 12  2  0  0  0
 12 13  1  0  0  0
 13 14  2  0  0  0
 21 16  1  0  0  0
  7  1  1  0  0  0
 14  9  1  0  0  0
 14  6  1  0  0  0
 24 25  1  0  0  0
 28 29  1  0  0  0
  8 15  1  0  0  0
M  END
> <minimizedAffinity>
4.67030

> <CNNscore>
0.3656126559

> <CNNaffinity>
7.5999908447

> <CNN_VS>
2.7786529064

> <CNNaffinity_variance>
0.5837408304

$$$$
[H]c1c([H])c([C@]2([H])c3c(c4c([H])c([H])c([H])c([H])c4n3[H])C([H])([H])[C@@]([H])(C([H])([H])[H])N2C([H])([H])C([H])(F)F)c(OC([H])([H])[H])c([H])c1N([H])C([H])([H])C([H])([H])N([H])C([H])([H])C([H])([H])C([H])([H])F


 37 40  0  0  0  0  0  0  0  0999 V2000
    9.6270   48.0008  132.1913 C   0  0  0  0  0  0  0  0  0  0  0  0
   10.4478   49.0052  131.6558 N   0  0  0  0  0  0  0  0  0  0  0  0
   10.7105   48.7819  130.2428 C   0  0  0  0  0  0  0  0  0  0  0  0
   11.6848   49.8244  129.7056 C   0  0  0  0  0  0  0  0  0  0  0  0
    9.4855   48.7886  129.3919 C   0  0  0  0  0  0  0  0  0  0  0  0
    8.3354   48.1127  130.0406 C   0  0  0  0  0  0  0  0  0  0  0  0
    8.3861   47.7311  131.3723 C   0  0  0  0  0  0  0  0  0  0  0  0
    7.2116   47.1611  131.6381 N   0  0  0  0  0  0  0  0  0  0  0  0
    6.4193   47.1590  130.5519 C   0  0  0  0  0  0  0  0  0  0  0  0
    5.1460   46.7142  130.2680 C   0  0  0  0  0  0  0  0  0  0  0  0
    4.5442   46.8367  129.0336 C   0  0  0  0  0  0  0  0  0  0  0  0
    5.2501   47.4419  128.0056 C   0  0  0  0  0  0  0  0  0  0  0  0
    6.5244   47.8966  128.2581 C   0  0  0  0  0  0  0  0  0  0  0  0
    7.1138   47.7670  129.4987 C   0  0  0  0  0  0  0  0  0  0  0  0
    6.9112   46.7578  132.5576 H   0  0  0  0  0  0  0  0  0  0  0  0
    9.8547   45.7303  133.1539 C   0  0  0  0  0  0  0  0  0  0  0  0
   10.4760   44.5075  133.3106 C   0  0  0  0  0  0  0  0  0  0  0  0
   11.6473   44.2177  132.6502 C   0  0  0  0  0  0  0  0  0  0  0  0
   12.1609   45.2237  131.8221 C   0  0  0  0  0  0  0  0  0  0  0  0
   11.5465   46.4433  131.6618 C   0  0  0  0  0  0  0  0  0  0  0  0
   10.3717   46.7235  132.3298 C   0  0  0  0  0  0  0  0  0  0  0  0
    8.2367   45.1011  134.8105 C   0  0  0  0  0  0  0  0  0  0  0  0
    8.6589   46.0252  133.8293 O   0  0  0  0  0  0  0  0  0  0  0  0
   12.3223   42.9773  132.7910 N   0  0  0  0  0  0  0  0  0  0  0  0
   13.0677   42.9195  133.5317 H   0  0  0  0  0  0  0  0  0  0  0  0
   12.0020   41.8675  131.9667 C   0  0  0  0  0  0  0  0  0  0  0  0
   10.5600   41.5187  131.8452 C   0  0  0  0  0  0  0  0  0  0  0  0
   10.0080   41.8513  130.5429 N   0  0  0  0  0  0  0  0  0  0  0  0
    8.9854   41.9541  130.5702 H   0  0  0  0  0  0  0  0  0  0  0  0
   10.6848   43.0371  130.0478 C   0  0  0  0  0  0  0  0  0  0  0  0
   10.1874   43.4344  128.6810 C   0  0  0  0  0  0  0  0  0  0  0  0
   10.5691   44.8798  128.4189 C   0  0  0  0  0  0  0  0  0  0  0  0
   11.9326   45.0123  128.4780 F   0  0  0  0  0  0  0  0  0  0  0  0
   10.1449   50.3699  131.9286 C   0  0  0  0  0  0  0  0  0  0  0  0
    9.5070   50.7345  133.2051 C   0  0  0  0  0  0  0  0  0  0  0  0
   10.0531   49.8370  134.1621 F   0  0  0  0  0  0  0  0  0  0  0  0
    9.8956   51.9725  133.7280 F   0  0  0  0  0  0  0  0  0  0  0  0
 22 23  1  0  0  0
 23 16  1  0  0  0
 16 17  2  0  0  0
 17 18  1  0  0  0
 18 24  1  0  0  0
 24 26  1  0  0  0
 26 27  1  0  0  0
 27 28  1  0  0  0
 28 30  1  0  0  0
 30 31  1  0  0  0
 31 32  1  0  0  0
 32 33  1  0  0  0
 18 19  2  0  0  0
 19 20  1  0  0  0
 20 21  2  0  0  0
 21  1  1  0  0  0
  1  2  1  0  0  0
  2 34  1  0  0  0
 34 35  1  0  0  0
 35 36  1  0  0  0
 35 37  1  0  0  0
  2  3  1  0  0  0
  3  4  1  0  0  0
  3  5  1  0  0  0
  5  6  1  0  0  0
  6  7  2  0  0  0
  7  8  1  0  0  0
  8  9  1  0  0  0
  9 10  2  0  0  0
 10 11  1  0  0  0
 11 12  2  0  0  0
 12 13  1  0  0  0
 13 14  2  0  0  0
 21 16  1  0  0  0
  7  1  1  0  0  0
 14  9  1  0  0  0
 14  6  1  0  0  0
 24 25  1  0  0  0
 28 29  1  0  0  0
  8 15  1  0  0  0
M  END
> <minimizedAffinity>
6.49758

> <CNNscore>
0.3281649947

> <CNNaffinity>
7.7285776138

> <CNN_VS>
2.5362486839

> <CNNaffinity_variance>
0.6251319051

$$$$
[H]c1c([H])c([C@]2([H])c3c(c4c([H])c([H])c([H])c([H])c4n3[H])C([H])([H])[C@@]([H])(C([H])([H])[H])N2C([H])([H])C([H])(F)F)c(OC([H])([H])[H])c([H])c1N([H])C([H])([H])C([H])([H])N([H])C([H])([H])C([H])([H])C([H])([H])F


 37 40  0  0  0  0  0  0  0  0999 V2000
    9.2539   45.2451  131.1700 C   0  0  0  0  0  0  0  0  0  0  0  0
   10.0327   45.4856  132.3123 N   0  0  0  0  0  0  0  0  0  0  0  0
   10.8010   46.7140  132.1848 C   0  0  0  0  0  0  0  0  0  0  0  0
   11.7160   46.9036  133.3895 C   0  0  0  0  0  0  0  0  0  0  0  0
    9.9627   47.9371  132.0235 C   0  0  0  0  0  0  0  0  0  0  0  0
    8.7866   47.7125  131.1479 C   0  0  0  0  0  0  0  0  0  0  0  0
    8.4351   46.4375  130.7325 C   0  0  0  0  0  0  0  0  0  0  0  0
    7.3517   46.5828  129.9709 N   0  0  0  0  0  0  0  0  0  0  0  0
    6.9959   47.8761  129.8793 C   0  0  0  0  0  0  0  0  0  0  0  0
    5.9909   48.5739  129.2448 C   0  0  0  0  0  0  0  0  0  0  0  0
    5.8421   49.9429  129.3122 C   0  0  0  0  0  0  0  0  0  0  0  0
    6.7507   50.6757  130.0598 C   0  0  0  0  0  0  0  0  0  0  0  0
    7.7659   50.0072  130.7053 C   0  0  0  0  0  0  0  0  0  0  0  0
    7.9023   48.6366  130.6287 C   0  0  0  0  0  0  0  0  0  0  0  0
    6.8221   45.8156  129.4919 H   0  0  0  0  0  0  0  0  0  0  0  0
   10.3155   43.4709  129.8067 C   0  0  0  0  0  0  0  0  0  0  0  0
   11.0702   43.0063  128.7482 C   0  0  0  0  0  0  0  0  0  0  0  0
   11.6512   43.8768  127.8557 C   0  0  0  0  0  0  0  0  0  0  0  0
   11.4322   45.2412  128.0839 C   0  0  0  0  0  0  0  0  0  0  0  0
   10.6814   45.7099  129.1361 C   0  0  0  0  0  0  0  0  0  0  0  0
   10.1033   44.8274  130.0259 C   0  0  0  0  0  0  0  0  0  0  0  0
    8.3175   42.4537  130.6619 C   0  0  0  0  0  0  0  0  0  0  0  0
    9.7231   42.5808  130.7176 O   0  0  0  0  0  0  0  0  0  0  0  0
   12.4416   43.4409  126.7606 N   0  0  0  0  0  0  0  0  0  0  0  0
   13.1853   44.1003  126.4146 H   0  0  0  0  0  0  0  0  0  0  0  0
   12.2336   42.1710  126.1625 C   0  0  0  0  0  0  0  0  0  0  0  0
   13.4161   41.5307  125.5240 C   0  0  0  0  0  0  0  0  0  0  0  0
   13.0565   40.4199  124.6591 N   0  0  0  0  0  0  0  0  0  0  0  0
   13.7545   40.2615  123.9212 H   0  0  0  0  0  0  0  0  0  0  0  0
   12.8304   39.2488  125.4877 C   0  0  0  0  0  0  0  0  0  0  0  0
   11.3641   38.9142  125.5939 C   0  0  0  0  0  0  0  0  0  0  0  0
   10.9594   38.0852  124.3886 C   0  0  0  0  0  0  0  0  0  0  0  0
   10.1675   38.8373  123.5595 F   0  0  0  0  0  0  0  0  0  0  0  0
    9.4348   45.3665  133.5994 C   0  0  0  0  0  0  0  0  0  0  0  0
    7.9968   45.0682  133.7111 C   0  0  0  0  0  0  0  0  0  0  0  0
    7.9158   43.6505  133.7686 F   0  0  0  0  0  0  0  0  0  0  0  0
    7.4100   45.4321  134.9278 F   0  0  0  0  0  0  0  0  0  0  0  0
 22 23  1  0  0  0
 23 16  1  0  0  0
 16 17  2  0  0  0
 17 18  1  0  0  0
 18 24  1  0  0  0
 24 26  1  0  0  0
 26 27  1  0  0  0
 27 28  1  0  0  0
 28 30  1  0  0  0
 30 31  1  0  0  0
 31 32  1  0  0  0
 32 33  1  0  0  0
 18 19  2  0  0  0
 19 20  1  0  0  0
 20 21  2  0  0  0
 21  1  1  0  0  0
  1  2  1  0  0  0
  2 34  1  0  0  0
 34 35  1  0  0  0
 35 36  1  0  0  0
 35 37  1  0  0  0
  2  3  1  0  0  0
  3  4  1  0  0  0
  3  5  1  0  0  0
  5  6  1  0  0  0
  6  7  2  0  0  0
  7  8  1  0  0  0
  8  9  1  0  0  0
  9 10  2  0  0  0
 10 11  1  0  0  0
 11 12  2  0  0  0
 12 13  1  0  0  0
 13 14  2  0  0  0
 21 16  1  0  0  0
  7  1  1  0  0  0
 14  9  1  0  0  0
 14  6  1  0  0  0
 24 25  1  0  0  0
 28 29  1  0  0  0
  8 15  1  0  0  0
M  END
> <minimizedAffinity>
8.38367

> <CNNscore>
0.3149091303

> <CNNaffinity>
7.7147645950

> <CNN_VS>
2.4294497967

> <CNNaffinity_variance>
0.4777855277

$$$$
[H]c1nc(OC([H])([H])C([H])([H])N([H])C([H])([H])C([H])([H])C([H])([H])F)c(F)c([C@]2([H])c3c(c4c([H])c(F)c([H])c([H])c4n3[H])C([H])([H])[C@@]([H])(C([H])([H])[H])N2C([H])([H])C2(F)C([H])([H])C2([H])[H])c1F


 38 42  0  0  0  0  0  0  0  0999 V2000
   13.1788   46.6373  132.6741 C   0  0  0  0  0  0  0  0  0  0  0  0
   11.7411   46.6958  133.1594 C   0  0  0  0  0  0  0  0  0  0  0  0
   11.1705   45.3028  133.3530 C   0  0  0  0  0  0  0  0  0  0  0  0
   10.8805   44.6782  132.0275 C   0  0  0  0  0  0  0  0  0  0  0  0
   10.7042   45.4286  130.8873 C   0  0  0  0  0  0  0  0  0  0  0  0
   10.4710   44.5763  129.8889 N   0  0  0  0  0  0  0  0  0  0  0  0
   10.4832   43.3013  130.3084 C   0  0  0  0  0  0  0  0  0  0  0  0
   10.3132   42.0479  129.7642 C   0  0  0  0  0  0  0  0  0  0  0  0
   10.3898   40.8872  130.4996 C   0  0  0  0  0  0  0  0  0  0  0  0
   10.6516   40.9634  131.8634 C   0  0  0  0  0  0  0  0  0  0  0  0
   10.7273   39.8231  132.5915 F   0  0  0  0  0  0  0  0  0  0  0  0
   10.8264   42.2157  132.4340 C   0  0  0  0  0  0  0  0  0  0  0  0
   10.7447   43.3658  131.6756 C   0  0  0  0  0  0  0  0  0  0  0  0
   10.7940   46.8871  130.9747 C   0  0  0  0  0  0  0  0  0  0  0  0
   10.9136   47.4375  132.2691 N   0  0  0  0  0  0  0  0  0  0  0  0
   10.2965   44.8314  128.8929 H   0  0  0  0  0  0  0  0  0  0  0  0
    9.7749   47.5976  130.1840 C   0  0  0  0  0  0  0  0  0  0  0  0
    9.8025   47.4187  128.7993 C   0  0  0  0  0  0  0  0  0  0  0  0
   10.7181   46.6557  128.1939 F   0  0  0  0  0  0  0  0  0  0  0  0
    8.8609   48.0404  127.9935 C   0  0  0  0  0  0  0  0  0  0  0  0
    7.9133   48.8206  128.5368 N   0  0  0  0  0  0  0  0  0  0  0  0
    7.8543   49.0163  129.8573 C   0  0  0  0  0  0  0  0  0  0  0  0
    8.7929   48.4002  130.6915 C   0  0  0  0  0  0  0  0  0  0  0  0
    8.7479   48.5961  132.0205 F   0  0  0  0  0  0  0  0  0  0  0  0
    6.9271   49.7941  130.4946 O   0  0  0  0  0  0  0  0  0  0  0  0
    5.6002   50.0450  130.1407 C   0  0  0  0  0  0  0  0  0  0  0  0
    5.1470   49.1225  129.0504 C   0  0  0  0  0  0  0  0  0  0  0  0
    4.6459   47.8608  129.5732 N   0  0  0  0  0  0  0  0  0  0  0  0
    4.3525   48.0446  130.5696 H   0  0  0  0  0  0  0  0  0  0  0  0
    5.5993   46.8007  129.4672 C   0  0  0  0  0  0  0  0  0  0  0  0
    6.2114   46.3719  130.7634 C   0  0  0  0  0  0  0  0  0  0  0  0
    7.3450   45.4001  130.4396 C   0  0  0  0  0  0  0  0  0  0  0  0
    7.5965   45.4049  129.0749 F   0  0  0  0  0  0  0  0  0  0  0  0
    9.7822   48.0191  132.8855 C   0  0  0  0  0  0  0  0  0  0  0  0
   10.1233   49.3023  133.6611 C   0  0  0  0  0  0  0  0  0  0  0  0
   11.3165   49.2272  134.3274 F   0  0  0  0  0  0  0  0  0  0  0  0
    9.9244   50.5585  132.7983 C   0  0  0  0  0  0  0  0  0  0  0  0
    9.0717   50.2956  133.9797 C   0  0  0  0  0  0  0  0  0  0  0  0
  1  2  1  0  0  0
  2  3  1  0  0  0
  3  4  1  0  0  0
  4  5  2  0  0  0
  5  6  1  0  0  0
  6  7  1  0  0  0
  7  8  2  0  0  0
  8  9  1  0  0  0
  9 10  2  0  0  0
 10 11  1  0  0  0
 10 12  1  0  0  0
 12 13  2  0  0  0
  5 14  1  0  0  0
 14 15  1  0  0  0
 15 34  1  0  0  0
 34 35  1  0  0  0
 35 36  1  0  0  0
 35 37  1  0  0  0
 37 38  1  0  0  0
 14 17  1  0  0  0
 17 18  2  0  0  0
 18 19  1  0  0  0
 18 20  1  0  0  0
 20 21  2  0  0  0
 21 22  1  0  0  0
 22 25  1  0  0  0
 25 26  1  0  0  0
 26 27  1  0  0  0
 27 28  1  0  0  0
 28 30  1  0  0  0
 30 31  1  0  0  0
 31 32  1  0  0  0
 32 33  1  0  0  0
 22 23  2  0  0  0
 23 24  1  0  0  0
 15  2  1  0  0  0
 38 35  1  0  0  0
 23 17  1  0  0  0
 13  4  1  0  0  0
 13  7  1  0  0  0
  6 16  1  0  0  0
 28 29  1  0  0  0
M  END
> <minimizedAffinity>
8.59589

> <CNNscore>
0.4066024721

> <CNNaffinity>
7.9082388878

> <CNN_VS>
3.2155094147

> <CNNaffinity_variance>
0.5060461164

$$$$
[H]c1nc(OC([H])([H])C([H])([H])N([H])C([H])([H])C([H])([H])C([H])([H])F)c(F)c([C@]2([H])c3c(c4c([H])c(F)c([H])c([H])c4n3[H])C([H])([H])[C@@]([H])(C([H])([H])[H])N2C([H])([H])C2(F)C([H])([H])C2([H])[H])c1F


 38 42  0  0  0  0  0  0  0  0999 V2000
   11.9634   43.8361  129.9890 C   0  0  0  0  0  0  0  0  0  0  0  0
   12.2407   44.5049  131.3238 C   0  0  0  0  0  0  0  0  0  0  0  0
   11.7865   43.6321  132.4794 C   0  0  0  0  0  0  0  0  0  0  0  0
   10.2964   43.6514  132.5823 C   0  0  0  0  0  0  0  0  0  0  0  0
    9.5381   44.6641  132.0406 C   0  0  0  0  0  0  0  0  0  0  0  0
    8.2614   44.3795  132.2992 N   0  0  0  0  0  0  0  0  0  0  0  0
    8.1351   43.2319  132.9841 C   0  0  0  0  0  0  0  0  0  0  0  0
    7.1188   42.4655  133.5095 C   0  0  0  0  0  0  0  0  0  0  0  0
    7.3332   41.2881  134.1889 C   0  0  0  0  0  0  0  0  0  0  0  0
    8.6354   40.8324  134.3640 C   0  0  0  0  0  0  0  0  0  0  0  0
    8.8512   39.6739  135.0328 F   0  0  0  0  0  0  0  0  0  0  0  0
    9.6758   41.5881  133.8433 C   0  0  0  0  0  0  0  0  0  0  0  0
    9.4358   42.7660  133.1655 C   0  0  0  0  0  0  0  0  0  0  0  0
   10.2110   45.7645  131.3484 C   0  0  0  0  0  0  0  0  0  0  0  0
   11.6211   45.7840  131.4117 N   0  0  0  0  0  0  0  0  0  0  0  0
    7.4365   44.9532  132.0201 H   0  0  0  0  0  0  0  0  0  0  0  0
    9.6445   47.0916  131.6424 C   0  0  0  0  0  0  0  0  0  0  0  0
    9.2198   47.3283  132.9514 C   0  0  0  0  0  0  0  0  0  0  0  0
    9.2961   46.3979  133.9084 F   0  0  0  0  0  0  0  0  0  0  0  0
    8.6950   48.5618  133.3056 C   0  0  0  0  0  0  0  0  0  0  0  0
    8.5900   49.5408  132.3933 N   0  0  0  0  0  0  0  0  0  0  0  0
    8.9853   49.3525  131.1308 C   0  0  0  0  0  0  0  0  0  0  0  0
    9.5181   48.1170  130.7488 C   0  0  0  0  0  0  0  0  0  0  0  0
    9.9118   47.9138  129.4797 F   0  0  0  0  0  0  0  0  0  0  0  0
    8.9136   50.2906  130.1381 O   0  0  0  0  0  0  0  0  0  0  0  0
    7.8486   51.1256  129.7954 C   0  0  0  0  0  0  0  0  0  0  0  0
    6.9952   50.5056  128.7312 C   0  0  0  0  0  0  0  0  0  0  0  0
    5.6445   50.2365  129.1996 N   0  0  0  0  0  0  0  0  0  0  0  0
    5.3877   51.0297  129.8457 H   0  0  0  0  0  0  0  0  0  0  0  0
    5.5206   48.9563  129.8241 C   0  0  0  0  0  0  0  0  0  0  0  0
    6.3571   47.8751  129.2160 C   0  0  0  0  0  0  0  0  0  0  0  0
    5.4222   46.7300  128.8299 C   0  0  0  0  0  0  0  0  0  0  0  0
    4.3276   46.7055  129.6826 F   0  0  0  0  0  0  0  0  0  0  0  0
   12.2658   46.6755  132.2992 C   0  0  0  0  0  0  0  0  0  0  0  0
   12.3034   46.1505  133.7440 C   0  0  0  0  0  0  0  0  0  0  0  0
   11.0631   45.8533  134.2409 F   0  0  0  0  0  0  0  0  0  0  0  0
   13.3686   45.0575  133.9248 C   0  0  0  0  0  0  0  0  0  0  0  0
   13.4935   46.3703  134.5979 C   0  0  0  0  0  0  0  0  0  0  0  0
  1  2  1  0  0  0
  2  3  1  0  0  0
  3  4  1  0  0  0
  4  5  2  0  0  0
  5  6  1  0  0  0
  6  7  1  0  0  0
  7  8  2  0  0  0
  8  9  1  0  0  0
  9 10  2  0  0  0
 10 11  1  0  0  0
 10 12  1  0  0  0
 12 13  2  0  0  0
  5 14  1  0  0  0
 14 15  1  0  0  0
 15 34  1  0  0  0
 34 35  1  0  0  0
 35 36  1  0  0  0
 35 37  1  0  0  0
 37 38  1  0  0  0
 14 17  1  0  0  0
 17 18  2  0  0  0
 18 19  1  0  0  0
 18 20  1  0  0  0
 20 21  2  0  0  0
 21 22  1  0  0  0
 22 25  1  0  0  0
 25 26  1  0  0  0
 26 27  1  0  0  0
 27 28  1  0  0  0
 28 30  1  0  0  0
 30 31  1  0  0  0
 31 32  1  0  0  0
 32 33  1  0  0  0
 22 23  2  0  0  0
 23 24  1  0  0  0
 15  2  1  0  0  0
 38 35  1  0  0  0
 23 17  1  0  0  0
 13  4  1  0  0  0
 13  7  1  0  0  0
  6 16  1  0  0  0
 28 29  1  0  0  0
M  END
> <minimizedAffinity>
8.67739

> <CNNscore>
0.3684343100

> <CNNaffinity>
8.2691869736

> <CNN_VS>
3.0466520786

> <CNNaffinity_variance>
1.3320821524

$$$$
[H]c1nc(OC([H])([H])C([H])([H])N([H])C([H])([H])C([H])([H])C([H])([H])F)c(F)c([C@]2([H])c3c(c4c([H])c(F)c([H])c([H])c4n3[H])C([H])([H])[C@@]([H])(C([H])([H])[H])N2C([H])([H])C2(F)C([H])([H])C2([H])[H])c1F


 38 42  0  0  0  0  0  0  0  0999 V2000
    8.1445   43.2341  130.4604 C   0  0  0  0  0  0  0  0  0  0  0  0
    9.4073   44.0423  130.2197 C   0  0  0  0  0  0  0  0  0  0  0  0
   10.3785   43.8999  131.3773 C   0  0  0  0  0  0  0  0  0  0  0  0
    9.8936   44.6828  132.5533 C   0  0  0  0  0  0  0  0  0  0  0  0
    9.0009   45.7222  132.4233 C   0  0  0  0  0  0  0  0  0  0  0  0
    8.7720   46.1982  133.6476 N   0  0  0  0  0  0  0  0  0  0  0  0
    9.4667   45.5287  134.5809 C   0  0  0  0  0  0  0  0  0  0  0  0
    9.6320   45.5625  135.9475 C   0  0  0  0  0  0  0  0  0  0  0  0
   10.4567   44.6987  136.6313 C   0  0  0  0  0  0  0  0  0  0  0  0
   11.1679   43.7356  135.9236 C   0  0  0  0  0  0  0  0  0  0  0  0
   11.9816   42.8833  136.5926 F   0  0  0  0  0  0  0  0  0  0  0  0
   11.0174   43.6825  134.5455 C   0  0  0  0  0  0  0  0  0  0  0  0
   10.1841   44.5599  133.8819 C   0  0  0  0  0  0  0  0  0  0  0  0
    8.5160   46.0808  131.0895 C   0  0  0  0  0  0  0  0  0  0  0  0
    9.1184   45.4189  129.9978 N   0  0  0  0  0  0  0  0  0  0  0  0
    8.1386   46.9907  133.8889 H   0  0  0  0  0  0  0  0  0  0  0  0
    8.4316   47.5320  130.8539 C   0  0  0  0  0  0  0  0  0  0  0  0
    9.5765   48.2882  131.1135 C   0  0  0  0  0  0  0  0  0  0  0  0
   10.7057   47.7422  131.5759 F   0  0  0  0  0  0  0  0  0  0  0  0
    9.5764   49.6574  130.8950 C   0  0  0  0  0  0  0  0  0  0  0  0
    8.4754   50.2696  130.4316 N   0  0  0  0  0  0  0  0  0  0  0  0
    7.3606   49.5803  130.1715 C   0  0  0  0  0  0  0  0  0  0  0  0
    7.3355   48.1980  130.3838 C   0  0  0  0  0  0  0  0  0  0  0  0
    6.2172   47.4957  130.1329 F   0  0  0  0  0  0  0  0  0  0  0  0
    6.1958   50.1208  129.7003 O   0  0  0  0  0  0  0  0  0  0  0  0
    5.2847   49.5834  128.7893 C   0  0  0  0  0  0  0  0  0  0  0  0
    3.9351   50.2178  128.9353 C   0  0  0  0  0  0  0  0  0  0  0  0
    3.2996   50.4561  127.6486 N   0  0  0  0  0  0  0  0  0  0  0  0
    4.0769   50.5288  126.9393 H   0  0  0  0  0  0  0  0  0  0  0  0
    2.4518   51.6073  127.6553 C   0  0  0  0  0  0  0  0  0  0  0  0
    1.7229   51.8604  126.3735 C   0  0  0  0  0  0  0  0  0  0  0  0
    1.9950   53.3074  125.9654 C   0  0  0  0  0  0  0  0  0  0  0  0
    2.5851   53.3414  124.7098 F   0  0  0  0  0  0  0  0  0  0  0  0
   10.0912   46.0934  129.2254 C   0  0  0  0  0  0  0  0  0  0  0  0
   10.6644   45.2188  128.0981 C   0  0  0  0  0  0  0  0  0  0  0  0
   10.4306   45.7288  126.8496 F   0  0  0  0  0  0  0  0  0  0  0  0
   12.1165   44.8033  128.3825 C   0  0  0  0  0  0  0  0  0  0  0  0
   11.0247   43.8039  128.3473 C   0  0  0  0  0  0  0  0  0  0  0  0
  1  2  1  0  0  0
  2  3  1  0  0  0
  3  4  1  0  0  0
  4  5  2  0  0  0
  5  6  1  0  0  0
  6  7  1  0  0  0
  7  8  2  0  0  0
  8  9  1  0  0  0
  9 10  2  0  0  0
 10 11  1  0  0  0
 10 12  1  0  0  0
 12 13  2  0  0  0
  5 14  1  0  0  0
 14 15  1  0  0  0
 15 34  1  0  0  0
 34 35  1  0  0  0
 35 36  1  0  0  0
 35 37  1  0  0  0
 37 38  1  0  0  0
 14 17  1  0  0  0
 17 18  2  0  0  0
 18 19  1  0  0  0
 18 20  1  0  0  0
 20 21  2  0  0  0
 21 22  1  0  0  0
 22 25  1  0  0  0
 25 26  1  0  0  0
 26 27  1  0  0  0
 27 28  1  0  0  0
 28 30  1  0  0  0
 30 31  1  0  0  0
 31 32  1  0  0  0
 32 33  1  0  0  0
 22 23  2  0  0  0
 23 24  1  0  0  0
 15  2  1  0  0  0
 38 35  1  0  0  0
 23 17  1  0  0  0
 13  4  1  0  0  0
 13  7  1  0  0  0
  6 16  1  0  0  0
 28 29  1  0  0  0
M  END
> <minimizedAffinity>
1.34546

> <CNNscore>
0.3368732631

> <CNNaffinity>
7.9113907814

> <CNN_VS>
2.6651360989

> <CNNaffinity_variance>
0.3820726871

$$$$
[H]c1nc(OC([H])([H])C([H])([H])N([H])C([H])([H])C([H])([H])C([H])([H])F)c(F)c([C@]2([H])c3c(c4c([H])c(F)c([H])c([H])c4n3[H])C([H])([H])[C@@]([H])(C([H])([H])[H])N2C([H])([H])C2(F)C([H])([H])C2([H])[H])c1F


 38 42  0  0  0  0  0  0  0  0999 V2000
   12.6036   43.6217  133.5768 C   0  0  0  0  0  0  0  0  0  0  0  0
   11.6607   44.8063  133.6929 C   0  0  0  0  0  0  0  0  0  0  0  0
   10.2784   44.3653  134.1383 C   0  0  0  0  0  0  0  0  0  0  0  0
    9.5680   43.6884  133.0121 C   0  0  0  0  0  0  0  0  0  0  0  0
    9.9248   43.8852  131.6976 C   0  0  0  0  0  0  0  0  0  0  0  0
    9.1076   43.1395  130.9534 N   0  0  0  0  0  0  0  0  0  0  0  0
    8.2283   42.4599  131.7064 C   0  0  0  0  0  0  0  0  0  0  0  0
    7.1912   41.5749  131.5131 C   0  0  0  0  0  0  0  0  0  0  0  0
    6.4535   41.0375  132.5431 C   0  0  0  0  0  0  0  0  0  0  0  0
    6.7555   41.3944  133.8529 C   0  0  0  0  0  0  0  0  0  0  0  0
    6.0313   40.8682  134.8702 F   0  0  0  0  0  0  0  0  0  0  0  0
    7.7964   42.2848  134.0723 C   0  0  0  0  0  0  0  0  0  0  0  0
    8.5220   42.8106  133.0227 C   0  0  0  0  0  0  0  0  0  0  0  0
   11.0300   44.7940  131.3889 C   0  0  0  0  0  0  0  0  0  0  0  0
   11.5667   45.5277  132.4689 N   0  0  0  0  0  0  0  0  0  0  0  0
    9.1198   43.0676  129.9131 H   0  0  0  0  0  0  0  0  0  0  0  0
   10.7843   45.6606  130.2239 C   0  0  0  0  0  0  0  0  0  0  0  0
   11.5184   45.3962  129.0658 C   0  0  0  0  0  0  0  0  0  0  0  0
   12.4253   44.4162  129.0009 F   0  0  0  0  0  0  0  0  0  0  0  0
   11.3246   46.1585  127.9239 C   0  0  0  0  0  0  0  0  0  0  0  0
   10.4291   47.1585  127.9206 N   0  0  0  0  0  0  0  0  0  0  0  0
    9.7079   47.4422  129.0092 C   0  0  0  0  0  0  0  0  0  0  0  0
    9.8851   46.6877  130.1735 C   0  0  0  0  0  0  0  0  0  0  0  0
    9.1707   46.9692  131.2767 F   0  0  0  0  0  0  0  0  0  0  0  0
    8.7776   48.4411  129.0955 O   0  0  0  0  0  0  0  0  0  0  0  0
    8.7915   49.5863  129.8938 C   0  0  0  0  0  0  0  0  0  0  0  0
    7.4029   50.0951  130.1347 C   0  0  0  0  0  0  0  0  0  0  0  0
    6.4983   49.7548  129.0475 N   0  0  0  0  0  0  0  0  0  0  0  0
    6.2127   50.6657  128.5989 H   0  0  0  0  0  0  0  0  0  0  0  0
    5.3775   48.9809  129.4824 C   0  0  0  0  0  0  0  0  0  0  0  0
    5.3502   47.5727  128.9774 C   0  0  0  0  0  0  0  0  0  0  0  0
    6.0281   46.6927  130.0264 C   0  0  0  0  0  0  0  0  0  0  0  0
    7.0467   45.9560  129.4386 F   0  0  0  0  0  0  0  0  0  0  0  0
   11.2170   46.8880  132.6285 C   0  0  0  0  0  0  0  0  0  0  0  0
   10.5159   47.1669  133.9683 C   0  0  0  0  0  0  0  0  0  0  0  0
   11.3824   47.2318  135.0258 F   0  0  0  0  0  0  0  0  0  0  0  0
    9.5184   48.3309  133.8571 C   0  0  0  0  0  0  0  0  0  0  0  0
    9.0588   46.9482  134.1194 C   0  0  0  0  0  0  0  0  0  0  0  0
  1  2  1  0  0  0
  2  3  1  0  0  0
  3  4  1  0  0  0
  4  5  2  0  0  0
  5  6  1  0  0  0
  6  7  1  0  0  0
  7  8  2  0  0  0
  8  9  1  0  0  0
  9 10  2  0  0  0
 10 11  1  0  0  0
 10 12  1  0  0  0
 12 13  2  0  0  0
  5 14  1  0  0  0
 14 15  1  0  0  0
 15 34  1  0  0  0
 34 35  1  0  0  0
 35 36  1  0  0  0
 35 37  1  0  0  0
 37 38  1  0  0  0
 14 17  1  0  0  0
 17 18  2  0  0  0
 18 19  1  0  0  0
 18 20  1  0  0  0
 20 21  2  0  0  0
 21 22  1  0  0  0
 22 25  1  0  0  0
 25 26  1  0  0  0
 26 27  1  0  0  0
 27 28  1  0  0  0
 28 30  1  0  0  0
 30 31  1  0  0  0
 31 32  1  0  0  0
 32 33  1  0  0  0
 22 23  2  0  0  0
 23 24  1  0  0  0
 15  2  1  0  0  0
 38 35  1  0  0  0
 23 17  1  0  0  0
 13  4  1  0  0  0
 13  7  1  0  0  0
  6 16  1  0  0  0
 28 29  1  0  0  0
M  END
> <minimizedAffinity>
3.05967

> <CNNscore>
0.3357911408

> <CNNaffinity>
7.9692010880

> <CNN_VS>
2.6759872437

> <CNNaffinity_variance>
0.1630624384

$$$$
[H]c1nc(OC([H])([H])C([H])([H])N([H])C([H])([H])C([H])([H])C([H])([H])F)c(F)c([C@]2([H])c3c(c4c([H])c(F)c([H])c([H])c4n3[H])C([H])([H])[C@@]([H])(C([H])([H])[H])N2C([H])([H])C2(F)C([H])([H])C2([H])[H])c1F


 38 42  0  0  0  0  0  0  0  0999 V2000
    6.1929   47.4983  129.8943 C   0  0  0  0  0  0  0  0  0  0  0  0
    7.6339   47.9533  129.7449 C   0  0  0  0  0  0  0  0  0  0  0  0
    8.4040   47.0380  128.8108 C   0  0  0  0  0  0  0  0  0  0  0  0
    8.7014   45.7422  129.4918 C   0  0  0  0  0  0  0  0  0  0  0  0
    8.7046   45.6193  130.8625 C   0  0  0  0  0  0  0  0  0  0  0  0
    8.9967   44.3487  131.1418 N   0  0  0  0  0  0  0  0  0  0  0  0
    9.1873   43.6243  130.0279 C   0  0  0  0  0  0  0  0  0  0  0  0
    9.4992   42.3241  129.6989 C   0  0  0  0  0  0  0  0  0  0  0  0
    9.6283   41.8821  128.4021 C   0  0  0  0  0  0  0  0  0  0  0  0
    9.4379   42.7794  127.3567 C   0  0  0  0  0  0  0  0  0  0  0  0
    9.5646   42.3487  126.0782 F   0  0  0  0  0  0  0  0  0  0  0  0
    9.1229   44.0950  127.6638 C   0  0  0  0  0  0  0  0  0  0  0  0
    8.9988   44.5147  128.9727 C   0  0  0  0  0  0  0  0  0  0  0  0
    8.4169   46.7970  131.6830 C   0  0  0  0  0  0  0  0  0  0  0  0
    8.2966   48.0282  131.0030 N   0  0  0  0  0  0  0  0  0  0  0  0
    9.0759   43.9328  132.0948 H   0  0  0  0  0  0  0  0  0  0  0  0
    9.2791   46.9242  132.8700 C   0  0  0  0  0  0  0  0  0  0  0  0
   10.4086   47.7372  132.7540 C   0  0  0  0  0  0  0  0  0  0  0  0
   10.7242   48.3667  131.6178 F   0  0  0  0  0  0  0  0  0  0  0  0
   11.2548   47.9198  133.8371 C   0  0  0  0  0  0  0  0  0  0  0  0
   10.9964   47.3167  135.0081 N   0  0  0  0  0  0  0  0  0  0  0  0
    9.9259   46.5312  135.1581 C   0  0  0  0  0  0  0  0  0  0  0  0
    9.0571   46.3311  134.0804 C   0  0  0  0  0  0  0  0  0  0  0  0
    7.9814   45.5369  134.2175 F   0  0  0  0  0  0  0  0  0  0  0  0
    9.5876   45.8777  136.3111 O   0  0  0  0  0  0  0  0  0  0  0  0
   10.1104   44.6936  136.8340 C   0  0  0  0  0  0  0  0  0  0  0  0
   10.5420   43.7633  135.7415 C   0  0  0  0  0  0  0  0  0  0  0  0
   11.9663   43.8671  135.4643 N   0  0  0  0  0  0  0  0  0  0  0  0
   12.3766   44.4711  136.2256 H   0  0  0  0  0  0  0  0  0  0  0  0
   12.2394   44.3716  134.1547 C   0  0  0  0  0  0  0  0  0  0  0  0
   12.2942   43.3337  133.0785 C   0  0  0  0  0  0  0  0  0  0  0  0
   12.2962   44.0613  131.7350 C   0  0  0  0  0  0  0  0  0  0  0  0
   12.2034   45.4308  131.9390 F   0  0  0  0  0  0  0  0  0  0  0  0
    9.3692   48.9483  131.0341 C   0  0  0  0  0  0  0  0  0  0  0  0
    8.9223   50.3674  131.4227 C   0  0  0  0  0  0  0  0  0  0  0  0
    7.7006   50.7067  130.9075 F   0  0  0  0  0  0  0  0  0  0  0  0
    9.1029   50.6291  132.9264 C   0  0  0  0  0  0  0  0  0  0  0  0
    9.9034   51.3603  131.9182 C   0  0  0  0  0  0  0  0  0  0  0  0
  1  2  1  0  0  0
  2  3  1  0  0  0
  3  4  1  0  0  0
  4  5  2  0  0  0
  5  6  1  0  0  0
  6  7  1  0  0  0
  7  8  2  0  0  0
  8  9  1  0  0  0
  9 10  2  0  0  0
 10 11  1  0  0  0
 10 12  1  0  0  0
 12 13  2  0  0  0
  5 14  1  0  0  0
 14 15  1  0  0  0
 15 34  1  0  0  0
 34 35  1  0  0  0
 35 36  1  0  0  0
 35 37  1  0  0  0
 37 38  1  0  0  0
 14 17  1  0  0  0
 17 18  2  0  0  0
 18 19  1  0  0  0
 18 20  1  0  0  0
 20 21  2  0  0  0
 21 22  1  0  0  0
 22 25  1  0  0  0
 25 26  1  0  0  0
 26 27  1  0  0  0
 27 28  1  0  0  0
 28 30  1  0  0  0
 30 31  1  0  0  0
 31 32  1  0  0  0
 32 33  1  0  0  0
 22 23  2  0  0  0
 23 24  1  0  0  0
 15  2  1  0  0  0
 38 35  1  0  0  0
 23 17  1  0  0  0
 13  4  1  0  0  0
 13  7  1  0  0  0
  6 16  1  0  0  0
 28 29  1  0  0  0
M  END
> <minimizedAffinity>
7.35482

> <CNNscore>
0.3253832161

> <CNNaffinity>
8.0943336487

> <CNN_VS>
2.6337602139

> <CNNaffinity_variance>
0.6548138857

$$$$
[H]c1nc(OC([H])([H])C([H])([H])N([H])C([H])([H])C([H])([H])C([H])([H])F)c(F)c([C@]2([H])c3c(c4c([H])c(F)c([H])c([H])c4n3[H])C([H])([H])[C@@]([H])(C([H])([H])[H])N2C([H])([H])C2(F)C([H])([H])C2([H])[H])c1F


 38 42  0  0  0  0  0  0  0  0999 V2000
   12.3409   45.5611  130.4955 C   0  0  0  0  0  0  0  0  0  0  0  0
   11.6189   46.3848  131.5472 C   0  0  0  0  0  0  0  0  0  0  0  0
   11.0253   45.4977  132.6261 C   0  0  0  0  0  0  0  0  0  0  0  0
    9.8187   44.7899  132.1022 C   0  0  0  0  0  0  0  0  0  0  0  0
    9.1141   45.2514  131.0138 C   0  0  0  0  0  0  0  0  0  0  0  0
    8.1115   44.3977  130.8048 N   0  0  0  0  0  0  0  0  0  0  0  0
    8.1152   43.3957  131.6981 C   0  0  0  0  0  0  0  0  0  0  0  0
    7.3660   42.2738  131.9739 C   0  0  0  0  0  0  0  0  0  0  0  0
    7.6464   41.4131  133.0105 C   0  0  0  0  0  0  0  0  0  0  0  0
    8.7379   41.6725  133.8323 C   0  0  0  0  0  0  0  0  0  0  0  0
    9.0173   40.8280  134.8545 F   0  0  0  0  0  0  0  0  0  0  0  0
    9.5075   42.7973  133.5737 C   0  0  0  0  0  0  0  0  0  0  0  0
    9.2063   43.6460  132.5280 C   0  0  0  0  0  0  0  0  0  0  0  0
    9.5533   46.4807  130.3512 C   0  0  0  0  0  0  0  0  0  0  0  0
   10.5991   47.1961  130.9733 N   0  0  0  0  0  0  0  0  0  0  0  0
    7.3940   44.4670  130.0512 H   0  0  0  0  0  0  0  0  0  0  0  0
    8.4514   47.3764  129.9611 C   0  0  0  0  0  0  0  0  0  0  0  0
    7.1659   46.8317  129.9327 C   0  0  0  0  0  0  0  0  0  0  0  0
    6.9249   45.5494  130.2239 F   0  0  0  0  0  0  0  0  0  0  0  0
    6.0776   47.6213  129.5943 C   0  0  0  0  0  0  0  0  0  0  0  0
    6.2491   48.9175  129.2907 N   0  0  0  0  0  0  0  0  0  0  0  0
    7.4635   49.4748  129.3065 C   0  0  0  0  0  0  0  0  0  0  0  0
    8.5772   48.6992  129.6445 C   0  0  0  0  0  0  0  0  0  0  0  0
    9.8045   49.2474  129.6562 F   0  0  0  0  0  0  0  0  0  0  0  0
    7.7301   50.7832  129.0100 O   0  0  0  0  0  0  0  0  0  0  0  0
    7.3110   51.5370  127.9123 C   0  0  0  0  0  0  0  0  0  0  0  0
    6.7632   52.8633  128.3437 C   0  0  0  0  0  0  0  0  0  0  0  0
    7.5287   53.9750  127.8011 N   0  0  0  0  0  0  0  0  0  0  0  0
    7.4104   54.7776  128.4751 H   0  0  0  0  0  0  0  0  0  0  0  0
    7.1406   54.3148  126.4676 C   0  0  0  0  0  0  0  0  0  0  0  0
    7.9215   53.6304  125.3904 C   0  0  0  0  0  0  0  0  0  0  0  0
    8.2007   54.6603  124.2970 C   0  0  0  0  0  0  0  0  0  0  0  0
    8.3459   54.0227  123.0730 F   0  0  0  0  0  0  0  0  0  0  0  0
   10.2993   48.3575  131.7213 C   0  0  0  0  0  0  0  0  0  0  0  0
    9.9759   48.0486  133.1924 C   0  0  0  0  0  0  0  0  0  0  0  0
   11.0854   48.0245  133.9937 F   0  0  0  0  0  0  0  0  0  0  0  0
    8.8047   48.8995  133.7084 C   0  0  0  0  0  0  0  0  0  0  0  0
    8.6837   47.4305  133.5691 C   0  0  0  0  0  0  0  0  0  0  0  0
  1  2  1  0  0  0
  2  3  1  0  0  0
  3  4  1  0  0  0
  4  5  2  0  0  0
  5  6  1  0  0  0
  6  7  1  0  0  0
  7  8  2  0  0  0
  8  9  1  0  0  0
  9 10  2  0  0  0
 10 11  1  0  0  0
 10 12  1  0  0  0
 12 13  2  0  0  0
  5 14  1  0  0  0
 14 15  1  0  0  0
 15 34  1  0  0  0
 34 35  1  0  0  0
 35 36  1  0  0  0
 35 37  1  0  0  0
 37 38  1  0  0  0
 14 17  1  0  0  0
 17 18  2  0  0  0
 18 19  1  0  0  0
 18 20  1  0  0  0
 20 21  2  0  0  0
 21 22  1  0  0  0
 22 25  1  0  0  0
 25 26  1  0  0  0
 26 27  1  0  0  0
 27 28  1  0  0  0
 28 30  1  0  0  0
 30 31  1  0  0  0
 31 32  1  0  0  0
 32 33  1  0  0  0
 22 23  2  0  0  0
 23 24  1  0  0  0
 15  2  1  0  0  0
 38 35  1  0  0  0
 23 17  1  0  0  0
 13  4  1  0  0  0
 13  7  1  0  0  0
  6 16  1  0  0  0
 28 29  1  0  0  0
M  END
> <minimizedAffinity>
2.20784

> <CNNscore>
0.3018282056

> <CNNaffinity>
7.6547179222

> <CNN_VS>
2.3104097843

> <CNNaffinity_variance>
0.2378997803

$$$$
[H]c1nc(OC([H])([H])C([H])([H])N([H])C([H])([H])C([H])([H])C([H])([H])F)c(F)c([C@]2([H])c3c(c4c([H])c(F)c([H])c([H])c4n3[H])C([H])([H])[C@@]([H])(C([H])([H])[H])N2C([H])([H])C2(F)C([H])([H])C2([H])[H])c1F


 38 42  0  0  0  0  0  0  0  0999 V2000
    6.6544   44.6629  132.6488 C   0  0  0  0  0  0  0  0  0  0  0  0
    8.1587   44.5995  132.8459 C   0  0  0  0  0  0  0  0  0  0  0  0
    8.7329   45.9753  133.1308 C   0  0  0  0  0  0  0  0  0  0  0  0
    8.7565   46.7908  131.8795 C   0  0  0  0  0  0  0  0  0  0  0  0
    8.7257   46.2153  130.6298 C   0  0  0  0  0  0  0  0  0  0  0  0
    8.7518   47.2079  129.7400 N   0  0  0  0  0  0  0  0  0  0  0  0
    8.7987   48.4102  130.3353 C   0  0  0  0  0  0  0  0  0  0  0  0
    8.8422   49.7335  129.9570 C   0  0  0  0  0  0  0  0  0  0  0  0
    8.8873   50.7756  130.8546 C   0  0  0  0  0  0  0  0  0  0  0  0
    8.8899   50.4985  132.2174 C   0  0  0  0  0  0  0  0  0  0  0  0
    8.9350   51.5216  133.1048 F   0  0  0  0  0  0  0  0  0  0  0  0
    8.8467   49.1724  132.6225 C   0  0  0  0  0  0  0  0  0  0  0  0
    8.8019   48.1441  131.7031 C   0  0  0  0  0  0  0  0  0  0  0  0
    8.6778   44.7564  130.5194 C   0  0  0  0  0  0  0  0  0  0  0  0
    8.8145   44.0259  131.7196 N   0  0  0  0  0  0  0  0  0  0  0  0
    8.7386   47.1022  128.7026 H   0  0  0  0  0  0  0  0  0  0  0  0
    9.5401   44.2080  129.4590 C   0  0  0  0  0  0  0  0  0  0  0  0
    8.9388   43.3708  128.5169 C   0  0  0  0  0  0  0  0  0  0  0  0
    7.6418   43.0509  128.5675 F   0  0  0  0  0  0  0  0  0  0  0  0
    9.6850   42.8345  127.4786 C   0  0  0  0  0  0  0  0  0  0  0  0
   10.9931   43.1151  127.3688 N   0  0  0  0  0  0  0  0  0  0  0  0
   11.6041   43.9118  128.2506 C   0  0  0  0  0  0  0  0  0  0  0  0
   10.8731   44.4649  129.3070 C   0  0  0  0  0  0  0  0  0  0  0  0
   11.4790   45.2614  130.2043 F   0  0  0  0  0  0  0  0  0  0  0  0
   12.9292   44.2488  128.2168 O   0  0  0  0  0  0  0  0  0  0  0  0
   14.0143   43.4971  127.7625 C   0  0  0  0  0  0  0  0  0  0  0  0
   15.2397   43.7654  128.5820 C   0  0  0  0  0  0  0  0  0  0  0  0
   15.2115   45.0848  129.1941 N   0  0  0  0  0  0  0  0  0  0  0  0
   16.2016   45.3009  129.4864 H   0  0  0  0  0  0  0  0  0  0  0  0
   14.2861   45.1706  130.2806 C   0  0  0  0  0  0  0  0  0  0  0  0
   14.0655   43.8904  131.0228 C   0  0  0  0  0  0  0  0  0  0  0  0
   12.8390   44.0789  131.9143 C   0  0  0  0  0  0  0  0  0  0  0  0
   12.9103   45.3034  132.5634 F   0  0  0  0  0  0  0  0  0  0  0  0
   10.0514   43.4135  132.0247 C   0  0  0  0  0  0  0  0  0  0  0  0
   10.0678   41.9121  131.6929 C   0  0  0  0  0  0  0  0  0  0  0  0
    8.8662   41.4509  131.2271 F   0  0  0  0  0  0  0  0  0  0  0  0
   11.2955   41.5286  130.8517 C   0  0  0  0  0  0  0  0  0  0  0  0
   11.1262   41.0292  132.2351 C   0  0  0  0  0  0  0  0  0  0  0  0
  1  2  1  0  0  0
  2  3  1  0  0  0
  3  4  1  0  0  0
  4  5  2  0  0  0
  5  6  1  0  0  0
  6  7  1  0  0  0
  7  8  2  0  0  0
  8  9  1  0  0  0
  9 10  2  0  0  0
 10 11  1  0  0  0
 10 12  1  0  0  0
 12 13  2  0  0  0
  5 14  1  0  0  0
 14 15  1  0  0  0
 15 34  1  0  0  0
 34 35  1  0  0  0
 35 36  1  0  0  0
 35 37  1  0  0  0
 37 38  1  0  0  0
 14 17  1  0  0  0
 17 18  2  0  0  0
 18 19  1  0  0  0
 18 20  1  0  0  0
 20 21  2  0  0  0
 21 22  1  0  0  0
 22 25  1  0  0  0
 25 26  1  0  0  0
 26 27  1  0  0  0
 27 28  1  0  0  0
 28 30  1  0  0  0
 30 31  1  0  0  0
 31 32  1  0  0  0
 32 33  1  0  0  0
 22 23  2  0  0  0
 23 24  1  0  0  0
 15  2  1  0  0  0
 38 35  1  0  0  0
 23 17  1  0  0  0
 13  4  1  0  0  0
 13  7  1  0  0  0
  6 16  1  0  0  0
 28 29  1  0  0  0
M  END
> <minimizedAffinity>
18.56456

> <CNNscore>
0.2707559764

> <CNNaffinity>
7.7078523636

> <CNN_VS>
2.0869472027

> <CNNaffinity_variance>
0.5902547836

$$$$
[H]c1nc(OC([H])([H])C([H])([H])N([H])C([H])([H])C([H])([H])C([H])([H])F)c(F)c([C@]2([H])c3c(c4c([H])c(F)c([H])c([H])c4n3[H])C([H])([H])[C@@]([H])(C([H])([H])[H])N2C([H])([H])C2(F)C([H])([H])C2([H])[H])c1F


 38 42  0  0  0  0  0  0  0  0999 V2000
    8.2149   43.2855  131.2201 C   0  0  0  0  0  0  0  0  0  0  0  0
    9.5685   43.9173  130.9469 C   0  0  0  0  0  0  0  0  0  0  0  0
   10.5408   43.6420  132.0792 C   0  0  0  0  0  0  0  0  0  0  0  0
   10.1956   44.4793  133.2671 C   0  0  0  0  0  0  0  0  0  0  0  0
    9.4477   45.6297  133.1596 C   0  0  0  0  0  0  0  0  0  0  0  0
    9.3161   46.1283  134.3891 N   0  0  0  0  0  0  0  0  0  0  0  0
    9.9380   45.3687  135.3046 C   0  0  0  0  0  0  0  0  0  0  0  0
   10.1409   45.3757  136.6666 C   0  0  0  0  0  0  0  0  0  0  0  0
   10.8591   44.4067  137.3293 C   0  0  0  0  0  0  0  0  0  0  0  0
   11.4160   43.3589  136.6039 C   0  0  0  0  0  0  0  0  0  0  0  0
   12.1245   42.4029  137.2522 F   0  0  0  0  0  0  0  0  0  0  0  0
   11.2248   43.3308  135.2302 C   0  0  0  0  0  0  0  0  0  0  0  0
   10.5006   44.3144  134.5879 C   0  0  0  0  0  0  0  0  0  0  0  0
    8.9817   46.0545  131.8385 C   0  0  0  0  0  0  0  0  0  0  0  0
    9.4617   45.3209  130.7320 N   0  0  0  0  0  0  0  0  0  0  0  0
    8.8014   46.9980  134.6464 H   0  0  0  0  0  0  0  0  0  0  0  0
    9.0873   47.5045  131.6046 C   0  0  0  0  0  0  0  0  0  0  0  0
   10.3618   48.0709  131.6743 C   0  0  0  0  0  0  0  0  0  0  0  0
   11.4511   47.3504  131.9594 F   0  0  0  0  0  0  0  0  0  0  0  0
   10.5397   49.4268  131.4449 C   0  0  0  0  0  0  0  0  0  0  0  0
    9.4880   50.2084  131.1536 N   0  0  0  0  0  0  0  0  0  0  0  0
    8.2531   49.7034  131.0782 C   0  0  0  0  0  0  0  0  0  0  0  0
    8.0478   48.3387  131.3055 C   0  0  0  0  0  0  0  0  0  0  0  0
    6.8089   47.8212  131.2398 F   0  0  0  0  0  0  0  0  0  0  0  0
    7.1270   50.4242  130.7899 O   0  0  0  0  0  0  0  0  0  0  0  0
    6.4760   50.5822  129.5651 C   0  0  0  0  0  0  0  0  0  0  0  0
    7.3718   50.2081  128.4237 C   0  0  0  0  0  0  0  0  0  0  0  0
    6.9299   48.9939  127.7555 N   0  0  0  0  0  0  0  0  0  0  0  0
    5.9177   49.1441  127.4994 H   0  0  0  0  0  0  0  0  0  0  0  0
    7.1280   47.8220  128.5502 C   0  0  0  0  0  0  0  0  0  0  0  0
    5.9729   46.8712  128.5695 C   0  0  0  0  0  0  0  0  0  0  0  0
    4.9117   47.4526  129.5023 C   0  0  0  0  0  0  0  0  0  0  0  0
    3.9270   46.5057  129.7465 F   0  0  0  0  0  0  0  0  0  0  0  0
   10.4965   45.8609  129.9347 C   0  0  0  0  0  0  0  0  0  0  0  0
   11.1674   44.8061  129.0394 C   0  0  0  0  0  0  0  0  0  0  0  0
   12.1833   44.1361  129.6660 F   0  0  0  0  0  0  0  0  0  0  0  0
   10.1314   43.9221  128.3271 C   0  0  0  0  0  0  0  0  0  0  0  0
   11.0028   44.8476  127.5680 C   0  0  0  0  0  0  0  0  0  0  0  0
  1  2  1  0  0  0
  2  3  1  0  0  0
  3  4  1  0  0  0
  4  5  2  0  0  0
  5  6  1  0  0  0
  6  7  1  0  0  0
  7  8  2  0  0  0
  8  9  1  0  0  0
  9 10  2  0  0  0
 10 11  1  0  0  0
 10 12  1  0  0  0
 12 13  2  0  0  0
  5 14  1  0  0  0
 14 15  1  0  0  0
 15 34  1  0  0  0
 34 35  1  0  0  0
 35 36  1  0  0  0
 35 37  1  0  0  0
 37 38  1  0  0  0
 14 17  1  0  0  0
 17 18  2  0  0  0
 18 19  1  0  0  0
 18 20  1  0  0  0
 20 21  2  0  0  0
 21 22  1  0  0  0
 22 25  1  0  0  0
 25 26  1  0  0  0
 26 27  1  0  0  0
 27 28  1  0  0  0
 28 30  1  0  0  0
 30 31  1  0  0  0
 31 32  1  0  0  0
 32 33  1  0  0  0
 22 23  2  0  0  0
 23 24  1  0  0  0
 15  2  1  0  0  0
 38 35  1  0  0  0
 23 17  1  0  0  0
 13  4  1  0  0  0
 13  7  1  0  0  0
  6 16  1  0  0  0
 28 29  1  0  0  0
M  END
> <minimizedAffinity>
1.94141

> <CNNscore>
0.2446981817

> <CNNaffinity>
8.0403289795

> <CNN_VS>
1.9674538374

> <CNNaffinity_variance>
0.3091991544

$$$$
[H]c1nc(OC([H])([H])C([H])([H])N([H])C([H])([H])C([H])([H])C([H])([H])F)c(F)c([C@]2([H])c3c(c4c([H])c(F)c([H])c([H])c4n3[H])C([H])([H])[C@@]([H])(C([H])([H])[H])N2C([H])([H])C2(F)C([H])([H])C2([H])[H])c1F


 38 42  0  0  0  0  0  0  0  0999 V2000
   12.1265   43.9319  130.4316 C   0  0  0  0  0  0  0  0  0  0  0  0
   11.6225   44.9679  131.4208 C   0  0  0  0  0  0  0  0  0  0  0  0
   11.0907   44.3099  132.6808 C   0  0  0  0  0  0  0  0  0  0  0  0
    9.7674   43.6730  132.4080 C   0  0  0  0  0  0  0  0  0  0  0  0
    8.9765   44.0533  131.3478 C   0  0  0  0  0  0  0  0  0  0  0  0
    7.8810   43.2941  131.3835 N   0  0  0  0  0  0  0  0  0  0  0  0
    7.9052   42.4317  132.4119 C   0  0  0  0  0  0  0  0  0  0  0  0
    7.0965   41.4481  132.9361 C   0  0  0  0  0  0  0  0  0  0  0  0
    7.4251   40.7142  134.0529 C   0  0  0  0  0  0  0  0  0  0  0  0
    8.6310   40.9639  134.6990 C   0  0  0  0  0  0  0  0  0  0  0  0
    8.9584   40.2442  135.7994 F   0  0  0  0  0  0  0  0  0  0  0  0
    9.4623   41.9506  134.1891 C   0  0  0  0  0  0  0  0  0  0  0  0
    9.1108   42.6736  133.0674 C   0  0  0  0  0  0  0  0  0  0  0  0
    9.4398   45.1228  130.4622 C   0  0  0  0  0  0  0  0  0  0  0  0
   10.6175   45.7986  130.8484 N   0  0  0  0  0  0  0  0  0  0  0  0
    7.0834   43.3363  130.7130 H   0  0  0  0  0  0  0  0  0  0  0  0
    8.3849   46.0711  130.0667 C   0  0  0  0  0  0  0  0  0  0  0  0
    7.1321   45.9173  130.6640 C   0  0  0  0  0  0  0  0  0  0  0  0
    6.8730   44.9456  131.5448 F   0  0  0  0  0  0  0  0  0  0  0  0
    6.0969   46.7865  130.3549 C   0  0  0  0  0  0  0  0  0  0  0  0
    6.2891   47.7845  129.4781 N   0  0  0  0  0  0  0  0  0  0  0  0
    7.4734   47.9639  128.8858 C   0  0  0  0  0  0  0  0  0  0  0  0
    8.5333   47.1004  129.1809 C   0  0  0  0  0  0  0  0  0  0  0  0
    9.7268   47.2666  128.5853 F   0  0  0  0  0  0  0  0  0  0  0  0
    7.7569   48.9501  127.9815 O   0  0  0  0  0  0  0  0  0  0  0  0
    7.1962   50.2234  127.8674 C   0  0  0  0  0  0  0  0  0  0  0  0
    6.3637   50.5579  129.0675 C   0  0  0  0  0  0  0  0  0  0  0  0
    7.0875   51.3805  130.0244 N   0  0  0  0  0  0  0  0  0  0  0  0
    7.2297   52.3194  129.5654 H   0  0  0  0  0  0  0  0  0  0  0  0
    8.3157   50.7841  130.4487 C   0  0  0  0  0  0  0  0  0  0  0  0
    8.2057   49.9053  131.6546 C   0  0  0  0  0  0  0  0  0  0  0  0
    9.4089   50.1971  132.5500 C   0  0  0  0  0  0  0  0  0  0  0  0
   10.5835   50.0536  131.8249 F   0  0  0  0  0  0  0  0  0  0  0  0
   10.5232   47.0785  131.4409 C   0  0  0  0  0  0  0  0  0  0  0  0
   10.1133   47.0179  132.9216 C   0  0  0  0  0  0  0  0  0  0  0  0
    8.9137   46.3902  133.1226 F   0  0  0  0  0  0  0  0  0  0  0  0
   11.2695   46.5377  133.8130 C   0  0  0  0  0  0  0  0  0  0  0  0
   10.7409   47.9167  133.9177 C   0  0  0  0  0  0  0  0  0  0  0  0
  1  2  1  0  0  0
  2  3  1  0  0  0
  3  4  1  0  0  0
  4  5  2  0  0  0
  5  6  1  0  0  0
  6  7  1  0  0  0
  7  8  2  0  0  0
  8  9  1  0  0  0
  9 10  2  0  0  0
 10 11  1  0  0  0
 10 12  1  0  0  0
 12 13  2  0  0  0
  5 14  1  0  0  0
 14 15  1  0  0  0
 15 34  1  0  0  0
 34 35  1  0  0  0
 35 36  1  0  0  0
 35 37  1  0  0  0
 37 38  1  0  0  0
 14 17  1  0  0  0
 17 18  2  0  0  0
 18 19  1  0  0  0
 18 20  1  0  0  0
 20 21  2  0  0  0
 21 22  1  0  0  0
 22 25  1  0  0  0
 25 26  1  0  0  0
 26 27  1  0  0  0
 27 28  1  0  0  0
 28 30  1  0  0  0
 30 31  1  0  0  0
 31 32  1  0  0  0
 32 33  1  0  0  0
 22 23  2  0  0  0
 23 24  1  0  0  0
 15  2  1  0  0  0
 38 35  1  0  0  0
 23 17  1  0  0  0
 13  4  1  0  0  0
 13  7  1  0  0  0
  6 16  1  0  0  0
 28 29  1  0  0  0
M  END
> <minimizedAffinity>
7.77499

> <CNNscore>
0.2268125564

> <CNNaffinity>
7.7542839050

> <CNN_VS>
1.7587689161

> <CNNaffinity_variance>
0.2434117347

$$$$
[H]c1c(OC([H])([H])C([H])([H])N([H])C([H])([H])C([H])([H])C([H])([H])F)nc([C@]2([H])c3c(c4c([H])c([H])c([H])c([H])c4n3[H])C([H])([H])[C@@]([H])(C([H])([H])[H])N2C([H])([H])C(F)(F)F)c([H])c1[H]


 35 38  0  0  0  0  0  0  0  0999 V2000
   10.0282   44.0725  135.2714 C   0  0  0  0  0  0  0  0  0  0  0  0
    9.3997   45.1277  134.4169 C   0  0  0  0  0  0  0  0  0  0  0  0
    7.8849   45.0020  134.5445 C   0  0  0  0  0  0  0  0  0  0  0  0
    7.5639   43.6385  134.0629 C   0  0  0  0  0  0  0  0  0  0  0  0
    8.1450   43.2988  132.8482 C   0  0  0  0  0  0  0  0  0  0  0  0
    7.7487   42.0285  132.5695 N   0  0  0  0  0  0  0  0  0  0  0  0
    6.9460   41.5614  133.5610 C   0  0  0  0  0  0  0  0  0  0  0  0
    6.3027   40.3629  133.7611 C   0  0  0  0  0  0  0  0  0  0  0  0
    5.5332   40.1378  134.8879 C   0  0  0  0  0  0  0  0  0  0  0  0
    5.4074   41.1400  135.8366 C   0  0  0  0  0  0  0  0  0  0  0  0
    6.0545   42.3330  135.6249 C   0  0  0  0  0  0  0  0  0  0  0  0
    6.8257   42.5698  134.5029 C   0  0  0  0  0  0  0  0  0  0  0  0
    9.0080   44.2710  132.1772 C   0  0  0  0  0  0  0  0  0  0  0  0
    9.7646   45.1357  133.0446 N   0  0  0  0  0  0  0  0  0  0  0  0
    8.0077   41.4712  131.7270 H   0  0  0  0  0  0  0  0  0  0  0  0
    8.2824   45.0316  131.1425 C   0  0  0  0  0  0  0  0  0  0  0  0
    7.2908   44.4211  130.3932 C   0  0  0  0  0  0  0  0  0  0  0  0
    6.6606   45.1591  129.4266 C   0  0  0  0  0  0  0  0  0  0  0  0
    6.9995   46.4910  129.1934 C   0  0  0  0  0  0  0  0  0  0  0  0
    7.9911   47.0537  129.9626 C   0  0  0  0  0  0  0  0  0  0  0  0
    8.5852   46.3179  130.8925 N   0  0  0  0  0  0  0  0  0  0  0  0
    8.3791   48.4050  129.7619 O   0  0  0  0  0  0  0  0  0  0  0  0
    7.7514   49.3913  130.5349 C   0  0  0  0  0  0  0  0  0  0  0  0
    8.1019   49.2895  131.9856 C   0  0  0  0  0  0  0  0  0  0  0  0
    7.4461   48.2571  132.7090 N   0  0  0  0  0  0  0  0  0  0  0  0
    6.8217   47.6904  132.1001 H   0  0  0  0  0  0  0  0  0  0  0  0
    8.2494   47.3794  133.4830 C   0  0  0  0  0  0  0  0  0  0  0  0
    9.4753   48.1870  133.9332 C   0  0  0  0  0  0  0  0  0  0  0  0
    9.1117   49.6457  133.6266 C   0  0  0  0  0  0  0  0  0  0  0  0
   10.2641   50.3697  133.6111 F   0  0  0  0  0  0  0  0  0  0  0  0
   11.1715   45.0594  132.7878 C   0  0  0  0  0  0  0  0  0  0  0  0
   12.0212   46.0960  133.4208 C   0  0  0  0  0  0  0  0  0  0  0  0
   13.2076   46.3579  132.7558 F   0  0  0  0  0  0  0  0  0  0  0  0
   11.3509   47.2705  133.6960 F   0  0  0  0  0  0  0  0  0  0  0  0
   12.4250   45.6046  134.6834 F   0  0  0  0  0  0  0  0  0  0  0  0
  1  2  1  0  0  0
  2  3  1  0  0  0
  3  4  1  0  0  0
  4  5  2  0  0  0
  5  6  1  0  0  0
  6  7  1  0  0  0
  7  8  2  0  0  0
  8  9  1  0  0  0
  9 10  2  0  0  0
 10 11  1  0  0  0
 11 12  2  0  0  0
  5 13  1  0  0  0
 13 14  1  0  0  0
 14 31  1  0  0  0
 31 32  1  0  0  0
 32 33  1  0  0  0
 32 34  1  0  0  0
 32 35  1  0  0  0
 13 16  1  0  0  0
 16 17  2  0  0  0
 17 18  1  0  0  0
 18 19  2  0  0  0
 19 20  1  0  0  0
 20 22  1  0  0  0
 22 23  1  0  0  0
 23 24  1  0  0  0
 24 25  1  0  0  0
 25 27  1  0  0  0
 27 28  1  0  0  0
 28 29  1  0  0  0
 29 30  1  0  0  0
 20 21  2  0  0  0
 14  2  1  0  0  0
 21 16  1  0  0  0
 12  4  1  0  0  0
 12  7  1  0  0  0
  6 15  1  0  0  0
 25 26  1  0  0  0
M  END
> <minimizedAffinity>
25.59836

> <CNNscore>
0.4625272751

> <CNNaffinity>
7.8205537796

> <CNN_VS>
3.6172194481

> <CNNaffinity_variance>
1.2416012287

$$$$
[H]c1c(OC([H])([H])C([H])([H])N([H])C([H])([H])C([H])([H])C([H])([H])F)nc([C@]2([H])c3c(c4c([H])c([H])c([H])c([H])c4n3[H])C([H])([H])[C@@]([H])(C([H])([H])[H])N2C([H])([H])C(F)(F)F)c([H])c1[H]


 35 38  0  0  0  0  0  0  0  0999 V2000
   12.4903   45.2893  133.9083 C   0  0  0  0  0  0  0  0  0  0  0  0
   12.3846   44.9730  132.4497 C   0  0  0  0  0  0  0  0  0  0  0  0
   12.1020   46.2719  131.7015 C   0  0  0  0  0  0  0  0  0  0  0  0
   10.8203   46.7695  132.2524 C   0  0  0  0  0  0  0  0  0  0  0  0
    9.8074   45.8216  132.3159 C   0  0  0  0  0  0  0  0  0  0  0  0
    8.7220   46.4473  132.8438 N   0  0  0  0  0  0  0  0  0  0  0  0
    9.0167   47.7457  133.1138 C   0  0  0  0  0  0  0  0  0  0  0  0
    8.2881   48.7815  133.6491 C   0  0  0  0  0  0  0  0  0  0  0  0
    8.8431   50.0354  133.8282 C   0  0  0  0  0  0  0  0  0  0  0  0
   10.1615   50.2540  133.4618 C   0  0  0  0  0  0  0  0  0  0  0  0
   10.8787   49.2114  132.9277 C   0  0  0  0  0  0  0  0  0  0  0  0
   10.3351   47.9543  132.7435 C   0  0  0  0  0  0  0  0  0  0  0  0
   10.0829   44.4565  131.8674 C   0  0  0  0  0  0  0  0  0  0  0  0
   11.4284   43.9906  132.0796 N   0  0  0  0  0  0  0  0  0  0  0  0
    7.7891   46.0182  133.0258 H   0  0  0  0  0  0  0  0  0  0  0  0
    9.6374   44.2311  130.4795 C   0  0  0  0  0  0  0  0  0  0  0  0
   10.1523   43.1776  129.7430 C   0  0  0  0  0  0  0  0  0  0  0  0
    9.7281   43.0212  128.4500 C   0  0  0  0  0  0  0  0  0  0  0  0
    8.8027   43.8933  127.8788 C   0  0  0  0  0  0  0  0  0  0  0  0
    8.3202   44.9251  128.6495 C   0  0  0  0  0  0  0  0  0  0  0  0
    8.7463   45.0540  129.8989 N   0  0  0  0  0  0  0  0  0  0  0  0
    7.3804   45.8455  128.1143 O   0  0  0  0  0  0  0  0  0  0  0  0
    7.1886   47.0579  128.7908 C   0  0  0  0  0  0  0  0  0  0  0  0
    5.7498   47.4645  128.8384 C   0  0  0  0  0  0  0  0  0  0  0  0
    5.5048   48.8433  129.0797 N   0  0  0  0  0  0  0  0  0  0  0  0
    5.0048   48.9992  129.9782 H   0  0  0  0  0  0  0  0  0  0  0  0
    6.6089   49.7327  129.0106 C   0  0  0  0  0  0  0  0  0  0  0  0
    7.0238   50.0322  130.4583 C   0  0  0  0  0  0  0  0  0  0  0  0
    8.5283   50.3220  130.3776 C   0  0  0  0  0  0  0  0  0  0  0  0
    9.1515   49.1856  129.9619 F   0  0  0  0  0  0  0  0  0  0  0  0
   11.4655   42.7837  132.8497 C   0  0  0  0  0  0  0  0  0  0  0  0
   10.4368   42.6362  133.9068 C   0  0  0  0  0  0  0  0  0  0  0  0
    9.4998   43.6553  133.9495 F   0  0  0  0  0  0  0  0  0  0  0  0
    9.8134   41.4050  133.9060 F   0  0  0  0  0  0  0  0  0  0  0  0
   11.0948   42.7086  135.1560 F   0  0  0  0  0  0  0  0  0  0  0  0
  1  2  1  0  0  0
  2  3  1  0  0  0
  3  4  1  0  0  0
  4  5  2  0  0  0
  5  6  1  0  0  0
  6  7  1  0  0  0
  7  8  2  0  0  0
  8  9  1  0  0  0
  9 10  2  0  0  0
 10 11  1  0  0  0
 11 12  2  0  0  0
  5 13  1  0  0  0
 13 14  1  0  0  0
 14 31  1  0  0  0
 31 32  1  0  0  0
 32 33  1  0  0  0
 32 34  1  0  0  0
 32 35  1  0  0  0
 13 16  1  0  0  0
 16 17  2  0  0  0
 17 18  1  0  0  0
 18 19  2  0  0  0
 19 20  1  0  0  0
 20 22  1  0  0  0
 22 23  1  0  0  0
 23 24  1  0  0  0
 24 25  1  0  0  0
 25 27  1  0  0  0
 27 28  1  0  0  0
 28 29  1  0  0  0
 29 30  1  0  0  0
 20 21  2  0  0  0
 14  2  1  0  0  0
 21 16  1  0  0  0
 12  4  1  0  0  0
 12  7  1  0  0  0
  6 15  1  0  0  0
 25 26  1  0  0  0
M  END
> <minimizedAffinity>
1.59216

> <CNNscore>
0.4048357308

> <CNNaffinity>
7.9392442703

> <CNN_VS>
3.2140898705

> <CNNaffinity_variance>
0.5393861532

$$$$
[H]c1c(OC([H])([H])C([H])([H])N([H])C([H])([H])C([H])([H])C([H])([H])F)nc([C@]2([H])c3c(c4c([H])c([H])c([H])c([H])c4n3[H])C([H])([H])[C@@]([H])(C([H])([H])[H])N2C([H])([H])C(F)(F)F)c([H])c1[H]


 35 38  0  0  0  0  0  0  0  0999 V2000
   12.2250   42.9982  130.8470 C   0  0  0  0  0  0  0  0  0  0  0  0
   12.3873   44.3417  131.4851 C   0  0  0  0  0  0  0  0  0  0  0  0
   11.8442   44.2601  132.9082 C   0  0  0  0  0  0  0  0  0  0  0  0
   10.4181   43.8876  132.7616 C   0  0  0  0  0  0  0  0  0  0  0  0
    9.7109   44.6458  131.8377 C   0  0  0  0  0  0  0  0  0  0  0  0
    8.4387   44.1663  131.8338 N   0  0  0  0  0  0  0  0  0  0  0  0
    8.3239   43.1394  132.7157 C   0  0  0  0  0  0  0  0  0  0  0  0
    7.2759   42.3263  133.0777 C   0  0  0  0  0  0  0  0  0  0  0  0
    7.4323   41.3264  134.0202 C   0  0  0  0  0  0  0  0  0  0  0  0
    8.6709   41.1381  134.6125 C   0  0  0  0  0  0  0  0  0  0  0  0
    9.7096   41.9570  134.2427 C   0  0  0  0  0  0  0  0  0  0  0  0
    9.5656   42.9597  133.3026 C   0  0  0  0  0  0  0  0  0  0  0  0
   10.4089   45.6986  131.0997 C   0  0  0  0  0  0  0  0  0  0  0  0
   11.7956   45.4421  130.8102 N   0  0  0  0  0  0  0  0  0  0  0  0
    7.6483   44.5159  131.2502 H   0  0  0  0  0  0  0  0  0  0  0  0
   10.2137   47.0255  131.7137 C   0  0  0  0  0  0  0  0  0  0  0  0
   10.5434   47.2358  133.0420 C   0  0  0  0  0  0  0  0  0  0  0  0
   10.3221   48.4773  133.5768 C   0  0  0  0  0  0  0  0  0  0  0  0
    9.7796   49.5104  132.8142 C   0  0  0  0  0  0  0  0  0  0  0  0
    9.4676   49.2533  131.4996 C   0  0  0  0  0  0  0  0  0  0  0  0
    9.6923   48.0431  131.0057 N   0  0  0  0  0  0  0  0  0  0  0  0
    8.9069   50.2688  130.6804 O   0  0  0  0  0  0  0  0  0  0  0  0
    7.5353   50.2046  130.3993 C   0  0  0  0  0  0  0  0  0  0  0  0
    7.2604   49.8959  128.9617 C   0  0  0  0  0  0  0  0  0  0  0  0
    7.1774   48.5164  128.6308 N   0  0  0  0  0  0  0  0  0  0  0  0
    7.6391   47.9159  129.3434 H   0  0  0  0  0  0  0  0  0  0  0  0
    5.8943   47.9815  128.3442 C   0  0  0  0  0  0  0  0  0  0  0  0
    5.5164   47.0842  129.5316 C   0  0  0  0  0  0  0  0  0  0  0  0
    6.8278   46.3929  129.9269 C   0  0  0  0  0  0  0  0  0  0  0  0
    7.0084   46.5715  131.2641 F   0  0  0  0  0  0  0  0  0  0  0  0
   12.0765   45.5193  129.4080 C   0  0  0  0  0  0  0  0  0  0  0  0
   10.9571   45.2113  128.4864 C   0  0  0  0  0  0  0  0  0  0  0  0
    9.9474   44.4406  129.0387 F   0  0  0  0  0  0  0  0  0  0  0  0
   10.4306   46.3237  127.8620 F   0  0  0  0  0  0  0  0  0  0  0  0
   11.4740   44.4171  127.4372 F   0  0  0  0  0  0  0  0  0  0  0  0
  1  2  1  0  0  0
  2  3  1  0  0  0
  3  4  1  0  0  0
  4  5  2  0  0  0
  5  6  1  0  0  0
  6  7  1  0  0  0
  7  8  2  0  0  0
  8  9  1  0  0  0
  9 10  2  0  0  0
 10 11  1  0  0  0
 11 12  2  0  0  0
  5 13  1  0  0  0
 13 14  1  0  0  0
 14 31  1  0  0  0
 31 32  1  0  0  0
 32 33  1  0  0  0
 32 34  1  0  0  0
 32 35  1  0  0  0
 13 16  1  0  0  0
 16 17  2  0  0  0
 17 18  1  0  0  0
 18 19  2  0  0  0
 19 20  1  0  0  0
 20 22  1  0  0  0
 22 23  1  0  0  0
 23 24  1  0  0  0
 24 25  1  0  0  0
 25 27  1  0  0  0
 27 28  1  0  0  0
 28 29  1  0  0  0
 29 30  1  0  0  0
 20 21  2  0  0  0
 14  2  1  0  0  0
 21 16  1  0  0  0
 12  4  1  0  0  0
 12  7  1  0  0  0
  6 15  1  0  0  0
 25 26  1  0  0  0
M  END
> <minimizedAffinity>
-0.07599

> <CNNscore>
0.3811413646

> <CNNaffinity>
7.8220224380

> <CNN_VS>
2.9812963009

> <CNNaffinity_variance>
0.1314559281

$$$$
[H]c1c(OC([H])([H])C([H])([H])N([H])C([H])([H])C([H])([H])C([H])([H])F)nc([C@]2([H])c3c(c4c([H])c([H])c([H])c([H])c4n3[H])C([H])([H])[C@@]([H])(C([H])([H])[H])N2C([H])([H])C(F)(F)F)c([H])c1[H]


 35 38  0  0  0  0  0  0  0  0999 V2000
   11.8366   43.7659  132.4484 C   0  0  0  0  0  0  0  0  0  0  0  0
   11.7634   44.7678  131.3395 C   0  0  0  0  0  0  0  0  0  0  0  0
   11.7186   46.1605  131.9601 C   0  0  0  0  0  0  0  0  0  0  0  0
   10.4978   46.1756  132.7988 C   0  0  0  0  0  0  0  0  0  0  0  0
    9.3528   45.7072  132.1678 C   0  0  0  0  0  0  0  0  0  0  0  0
    8.3461   45.7895  133.0780 N   0  0  0  0  0  0  0  0  0  0  0  0
    8.8165   46.2881  134.2509 C   0  0  0  0  0  0  0  0  0  0  0  0
    8.2230   46.5556  135.4619 C   0  0  0  0  0  0  0  0  0  0  0  0
    8.9487   47.0670  136.5223 C   0  0  0  0  0  0  0  0  0  0  0  0
   10.3027   47.3149  136.3629 C   0  0  0  0  0  0  0  0  0  0  0  0
   10.8838   47.0439  135.1482 C   0  0  0  0  0  0  0  0  0  0  0  0
   10.1692   46.5332  134.0812 C   0  0  0  0  0  0  0  0  0  0  0  0
    9.4450   45.2383  130.7851 C   0  0  0  0  0  0  0  0  0  0  0  0
   10.6924   44.6202  130.4187 N   0  0  0  0  0  0  0  0  0  0  0  0
    7.3512   45.5168  132.9254 H   0  0  0  0  0  0  0  0  0  0  0  0
    9.0461   46.2809  129.8209 C   0  0  0  0  0  0  0  0  0  0  0  0
    9.7967   46.4995  128.6780 C   0  0  0  0  0  0  0  0  0  0  0  0
    9.4027   47.4946  127.8234 C   0  0  0  0  0  0  0  0  0  0  0  0
    8.2773   48.2742  128.0860 C   0  0  0  0  0  0  0  0  0  0  0  0
    7.5640   48.0201  129.2341 C   0  0  0  0  0  0  0  0  0  0  0  0
    7.9661   47.0504  130.0447 N   0  0  0  0  0  0  0  0  0  0  0  0
    6.4132   48.7890  129.5522 O   0  0  0  0  0  0  0  0  0  0  0  0
    6.5988   50.0005  130.2320 C   0  0  0  0  0  0  0  0  0  0  0  0
    6.2430   51.1869  129.3932 C   0  0  0  0  0  0  0  0  0  0  0  0
    7.3073   51.7540  128.6416 N   0  0  0  0  0  0  0  0  0  0  0  0
    8.0563   51.0607  128.4418 H   0  0  0  0  0  0  0  0  0  0  0  0
    6.9789   52.4318  127.4385 C   0  0  0  0  0  0  0  0  0  0  0  0
    7.1433   53.9323  127.7198 C   0  0  0  0  0  0  0  0  0  0  0  0
    7.6936   54.5135  126.4109 C   0  0  0  0  0  0  0  0  0  0  0  0
    7.4789   53.6002  125.4248 F   0  0  0  0  0  0  0  0  0  0  0  0
   10.5075   43.2956  129.9065 C   0  0  0  0  0  0  0  0  0  0  0  0
    9.1133   42.8802  129.6220 C   0  0  0  0  0  0  0  0  0  0  0  0
    8.5221   43.5304  128.5514 F   0  0  0  0  0  0  0  0  0  0  0  0
    8.9543   41.5142  129.5065 F   0  0  0  0  0  0  0  0  0  0  0  0
    8.3234   43.2443  130.7365 F   0  0  0  0  0  0  0  0  0  0  0  0
  1  2  1  0  0  0
  2  3  1  0  0  0
  3  4  1  0  0  0
  4  5  2  0  0  0
  5  6  1  0  0  0
  6  7  1  0  0  0
  7  8  2  0  0  0
  8  9  1  0  0  0
  9 10  2  0  0  0
 10 11  1  0  0  0
 11 12  2  0  0  0
  5 13  1  0  0  0
 13 14  1  0  0  0
 14 31  1  0  0  0
 31 32  1  0  0  0
 32 33  1  0  0  0
 32 34  1  0  0  0
 32 35  1  0  0  0
 13 16  1  0  0  0
 16 17  2  0  0  0
 17 18  1  0  0  0
 18 19  2  0  0  0
 19 20  1  0  0  0
 20 22  1  0  0  0
 22 23  1  0  0  0
 23 24  1  0  0  0
 24 25  1  0  0  0
 25 27  1  0  0  0
 27 28  1  0  0  0
 28 29  1  0  0  0
 29 30  1  0  0  0
 20 21  2  0  0  0
 14  2  1  0  0  0
 21 16  1  0  0  0
 12  4  1  0  0  0
 12  7  1  0  0  0
  6 15  1  0  0  0
 25 26  1  0  0  0
M  END
> <minimizedAffinity>
3.27841

> <CNNscore>
0.3767887652

> <CNNaffinity>
7.5708951950

> <CNN_VS>
2.8526282310

> <CNNaffinity_variance>
0.5692440271

$$$$
[H]c1c(OC([H])([H])C([H])([H])N([H])C([H])([H])C([H])([H])C([H])([H])F)nc([C@]2([H])c3c(c4c([H])c([H])c([H])c([H])c4n3[H])C([H])([H])[C@@]([H])(C([H])([H])[H])N2C([H])([H])C(F)(F)F)c([H])c1[H]


 35 38  0  0  0  0  0  0  0  0999 V2000
    8.4626   43.4766  130.8352 C   0  0  0  0  0  0  0  0  0  0  0  0
    8.0346   44.8721  130.5063 C   0  0  0  0  0  0  0  0  0  0  0  0
    8.9631   45.4104  129.4225 C   0  0  0  0  0  0  0  0  0  0  0  0
   10.3195   45.3749  130.0166 C   0  0  0  0  0  0  0  0  0  0  0  0
   10.4127   45.9281  131.2870 C   0  0  0  0  0  0  0  0  0  0  0  0
   11.7113   45.8053  131.6701 N   0  0  0  0  0  0  0  0  0  0  0  0
   12.4314   45.1968  130.6920 C   0  0  0  0  0  0  0  0  0  0  0  0
   13.7545   44.8385  130.5858 C   0  0  0  0  0  0  0  0  0  0  0  0
   14.2415   44.2078  129.4555 C   0  0  0  0  0  0  0  0  0  0  0  0
   13.3789   43.9298  128.4072 C   0  0  0  0  0  0  0  0  0  0  0  0
   12.0596   44.2932  128.5252 C   0  0  0  0  0  0  0  0  0  0  0  0
   11.5614   44.9241  129.6492 C   0  0  0  0  0  0  0  0  0  0  0  0
    9.2068   46.4645  131.9184 C   0  0  0  0  0  0  0  0  0  0  0  0
    7.9781   45.7914  131.5871 N   0  0  0  0  0  0  0  0  0  0  0  0
   12.1212   46.1221  132.5752 H   0  0  0  0  0  0  0  0  0  0  0  0
    9.0957   47.9249  131.7445 C   0  0  0  0  0  0  0  0  0  0  0  0
    9.9892   48.7736  132.3760 C   0  0  0  0  0  0  0  0  0  0  0  0
    9.8329   50.1237  132.2058 C   0  0  0  0  0  0  0  0  0  0  0  0
    8.8050   50.6424  131.4199 C   0  0  0  0  0  0  0  0  0  0  0  0
    7.9420   49.7600  130.8132 C   0  0  0  0  0  0  0  0  0  0  0  0
    8.1155   48.4575  130.9933 N   0  0  0  0  0  0  0  0  0  0  0  0
    6.8741   50.2359  130.0070 O   0  0  0  0  0  0  0  0  0  0  0  0
    7.1879   50.7817  128.7548 C   0  0  0  0  0  0  0  0  0  0  0  0
    7.1342   52.2766  128.7531 C   0  0  0  0  0  0  0  0  0  0  0  0
    6.8860   52.8846  127.4929 N   0  0  0  0  0  0  0  0  0  0  0  0
    5.8754   52.8751  127.2475 H   0  0  0  0  0  0  0  0  0  0  0  0
    7.3964   54.1915  127.2777 C   0  0  0  0  0  0  0  0  0  0  0  0
    7.1761   54.5107  125.7920 C   0  0  0  0  0  0  0  0  0  0  0  0
    8.5424   54.2686  125.1374 C   0  0  0  0  0  0  0  0  0  0  0  0
    8.3381   54.0592  123.8081 F   0  0  0  0  0  0  0  0  0  0  0  0
    7.2904   45.3209  132.7519 C   0  0  0  0  0  0  0  0  0  0  0  0
    8.0459   45.3462  134.0270 C   0  0  0  0  0  0  0  0  0  0  0  0
    7.3974   44.7509  135.0964 F   0  0  0  0  0  0  0  0  0  0  0  0
    9.3362   44.8693  133.9168 F   0  0  0  0  0  0  0  0  0  0  0  0
    8.1910   46.6992  134.4106 F   0  0  0  0  0  0  0  0  0  0  0  0
  1  2  1  0  0  0
  2  3  1  0  0  0
  3  4  1  0  0  0
  4  5  2  0  0  0
  5  6  1  0  0  0
  6  7  1  0  0  0
  7  8  2  0  0  0
  8  9  1  0  0  0
  9 10  2  0  0  0
 10 11  1  0  0  0
 11 12  2  0  0  0
  5 13  1  0  0  0
 13 14  1  0  0  0
 14 31  1  0  0  0
 31 32  1  0  0  0
 32 33  1  0  0  0
 32 34  1  0  0  0
 32 35  1  0  0  0
 13 16  1  0  0  0
 16 17  2  0  0  0
 17 18  1  0  0  0
 18 19  2  0  0  0
 19 20  1  0  0  0
 20 22  1  0  0  0
 22 23  1  0  0  0
 23 24  1  0  0  0
 24 25  1  0  0  0
 25 27  1  0  0  0
 27 28  1  0  0  0
 28 29  1  0  0  0
 29 30  1  0  0  0
 20 21  2  0  0  0
 14  2  1  0  0  0
 21 16  1  0  0  0
 12  4  1  0  0  0
 12  7  1  0  0  0
  6 15  1  0  0  0
 25 26  1  0  0  0
M  END
> <minimizedAffinity>
-1.96519

> <CNNscore>
0.3730063438

> <CNNaffinity>
7.3009452820

> <CNN_VS>
2.7232987881

> <CNNaffinity_variance>
0.4377090037

$$$$
[H]c1c(OC([H])([H])C([H])([H])N([H])C([H])([H])C([H])([H])C([H])([H])F)nc([C@]2([H])c3c(c4c([H])c([H])c([H])c([H])c4n3[H])C([H])([H])[C@@]([H])(C([H])([H])[H])N2C([H])([H])C(F)(F)F)c([H])c1[H]


 35 38  0  0  0  0  0  0  0  0999 V2000
    8.5236   41.6425  130.6866 C   0  0  0  0  0  0  0  0  0  0  0  0
    7.8705   42.9140  131.1288 C   0  0  0  0  0  0  0  0  0  0  0  0
    8.2118   44.0008  130.1144 C   0  0  0  0  0  0  0  0  0  0  0  0
    9.6893   44.1036  130.1339 C   0  0  0  0  0  0  0  0  0  0  0  0
   10.2492   44.1975  131.4013 C   0  0  0  0  0  0  0  0  0  0  0  0
   11.5951   44.2785  131.2267 N   0  0  0  0  0  0  0  0  0  0  0  0
   11.8977   44.2371  129.9029 C   0  0  0  0  0  0  0  0  0  0  0  0
   13.0846   44.2765  129.2102 C   0  0  0  0  0  0  0  0  0  0  0  0
   13.1151   44.2089  127.8292 C   0  0  0  0  0  0  0  0  0  0  0  0
   11.9254   44.0982  127.1275 C   0  0  0  0  0  0  0  0  0  0  0  0
   10.7463   44.0604  127.8310 C   0  0  0  0  0  0  0  0  0  0  0  0
   10.7029   44.1276  129.2106 C   0  0  0  0  0  0  0  0  0  0  0  0
    9.3697   44.1705  132.5701 C   0  0  0  0  0  0  0  0  0  0  0  0
    8.1824   43.3672  132.4379 N   0  0  0  0  0  0  0  0  0  0  0  0
   12.3120   44.3605  131.9795 H   0  0  0  0  0  0  0  0  0  0  0  0
    9.0618   45.5270  133.0607 C   0  0  0  0  0  0  0  0  0  0  0  0
    8.3375   45.7000  134.2281 C   0  0  0  0  0  0  0  0  0  0  0  0
    8.0538   46.9775  134.6325 C   0  0  0  0  0  0  0  0  0  0  0  0
    8.4774   48.0831  133.8968 C   0  0  0  0  0  0  0  0  0  0  0  0
    9.1934   47.8611  132.7437 C   0  0  0  0  0  0  0  0  0  0  0  0
    9.4555   46.6145  132.3745 N   0  0  0  0  0  0  0  0  0  0  0  0
    9.6434   48.9521  131.9538 O   0  0  0  0  0  0  0  0  0  0  0  0
    9.1709   50.2329  132.2711 C   0  0  0  0  0  0  0  0  0  0  0  0
    9.8746   50.8257  133.4506 C   0  0  0  0  0  0  0  0  0  0  0  0
   11.0677   50.1674  133.8535 N   0  0  0  0  0  0  0  0  0  0  0  0
   11.7630   50.8300  134.2525 H   0  0  0  0  0  0  0  0  0  0  0  0
   10.9460   49.0532  134.7244 C   0  0  0  0  0  0  0  0  0  0  0  0
   12.2857   48.3048  134.6712 C   0  0  0  0  0  0  0  0  0  0  0  0
   13.2656   49.2111  135.4279 C   0  0  0  0  0  0  0  0  0  0  0  0
   14.0037   48.4266  136.2599 F   0  0  0  0  0  0  0  0  0  0  0  0
    8.0864   42.3743  133.4655 C   0  0  0  0  0  0  0  0  0  0  0  0
    9.3629   41.8373  133.9941 C   0  0  0  0  0  0  0  0  0  0  0  0
    9.2326   41.0261  135.1093 F   0  0  0  0  0  0  0  0  0  0  0  0
   10.1447   41.2228  133.0372 F   0  0  0  0  0  0  0  0  0  0  0  0
   10.1342   42.9338  134.4431 F   0  0  0  0  0  0  0  0  0  0  0  0
  1  2  1  0  0  0
  2  3  1  0  0  0
  3  4  1  0  0  0
  4  5  2  0  0  0
  5  6  1  0  0  0
  6  7  1  0  0  0
  7  8  2  0  0  0
  8  9  1  0  0  0
  9 10  2  0  0  0
 10 11  1  0  0  0
 11 12  2  0  0  0
  5 13  1  0  0  0
 13 14  1  0  0  0
 14 31  1  0  0  0
 31 32  1  0  0  0
 32 33  1  0  0  0
 32 34  1  0  0  0
 32 35  1  0  0  0
 13 16  1  0  0  0
 16 17  2  0  0  0
 17 18  1  0  0  0
 18 19  2  0  0  0
 19 20  1  0  0  0
 20 22  1  0  0  0
 22 23  1  0  0  0
 23 24  1  0  0  0
 24 25  1  0  0  0
 25 27  1  0  0  0
 27 28  1  0  0  0
 28 29  1  0  0  0
 29 30  1  0  0  0
 20 21  2  0  0  0
 14  2  1  0  0  0
 21 16  1  0  0  0
 12  4  1  0  0  0
 12  7  1  0  0  0
  6 15  1  0  0  0
 25 26  1  0  0  0
M  END
> <minimizedAffinity>
13.72935

> <CNNscore>
0.3680768609

> <CNNaffinity>
7.6931557655

> <CNN_VS>
2.8316726685

> <CNNaffinity_variance>
1.5260407925

$$$$
[H]c1c(OC([H])([H])C([H])([H])N([H])C([H])([H])C([H])([H])C([H])([H])F)nc([C@]2([H])c3c(c4c([H])c([H])c([H])c([H])c4n3[H])C([H])([H])[C@@]([H])(C([H])([H])[H])N2C([H])([H])C(F)(F)F)c([H])c1[H]


 35 38  0  0  0  0  0  0  0  0999 V2000
    9.0598   42.2705  130.2637 C   0  0  0  0  0  0  0  0  0  0  0  0
    8.4651   43.5540  130.7512 C   0  0  0  0  0  0  0  0  0  0  0  0
    9.1573   44.7037  130.0262 C   0  0  0  0  0  0  0  0  0  0  0  0
   10.5893   44.5873  130.3864 C   0  0  0  0  0  0  0  0  0  0  0  0
   10.8367   44.4312  131.7439 C   0  0  0  0  0  0  0  0  0  0  0  0
   12.1857   44.3380  131.8850 N   0  0  0  0  0  0  0  0  0  0  0  0
   12.7896   44.4279  130.6713 C   0  0  0  0  0  0  0  0  0  0  0  0
   14.1046   44.3852  130.2722 C   0  0  0  0  0  0  0  0  0  0  0  0
   14.4567   44.4963  128.9395 C   0  0  0  0  0  0  0  0  0  0  0  0
   13.4645   44.6531  127.9849 C   0  0  0  0  0  0  0  0  0  0  0  0
   12.1547   44.6946  128.3963 C   0  0  0  0  0  0  0  0  0  0  0  0
   11.7905   44.5852  129.7249 C   0  0  0  0  0  0  0  0  0  0  0  0
    9.7059   44.3785  132.6706 C   0  0  0  0  0  0  0  0  0  0  0  0
    8.5031   43.7808  132.1525 N   0  0  0  0  0  0  0  0  0  0  0  0
   12.7065   44.2152  132.7801 H   0  0  0  0  0  0  0  0  0  0  0  0
    9.4419   45.6888  133.2943 C   0  0  0  0  0  0  0  0  0  0  0  0
    8.5485   45.7941  134.3470 C   0  0  0  0  0  0  0  0  0  0  0  0
    8.3158   47.0346  134.8790 C   0  0  0  0  0  0  0  0  0  0  0  0
    8.9553   48.1694  134.3826 C   0  0  0  0  0  0  0  0  0  0  0  0
    9.8337   48.0149  133.3357 C   0  0  0  0  0  0  0  0  0  0  0  0
   10.0421   46.8029  132.8391 N   0  0  0  0  0  0  0  0  0  0  0  0
   10.5071   49.1391  132.7884 O   0  0  0  0  0  0  0  0  0  0  0  0
    9.7321   50.1474  132.1992 C   0  0  0  0  0  0  0  0  0  0  0  0
    9.2691   51.1661  133.1920 C   0  0  0  0  0  0  0  0  0  0  0  0
   10.1820   52.2197  133.4678 N   0  0  0  0  0  0  0  0  0  0  0  0
    9.6959   53.0864  133.7748 H   0  0  0  0  0  0  0  0  0  0  0  0
   11.2491   51.9518  134.3646 C   0  0  0  0  0  0  0  0  0  0  0  0
   12.1941   53.1602  134.2975 C   0  0  0  0  0  0  0  0  0  0  0  0
   11.8441   53.9945  135.5366 C   0  0  0  0  0  0  0  0  0  0  0  0
   12.9661   54.6613  135.9224 F   0  0  0  0  0  0  0  0  0  0  0  0
    8.0548   42.6857  132.9593 C   0  0  0  0  0  0  0  0  0  0  0  0
    9.0825   41.9933  133.7728 C   0  0  0  0  0  0  0  0  0  0  0  0
   10.0476   41.3236  133.0391 F   0  0  0  0  0  0  0  0  0  0  0  0
    9.6714   42.7994  134.7256 F   0  0  0  0  0  0  0  0  0  0  0  0
    8.4309   40.9777  134.5096 F   0  0  0  0  0  0  0  0  0  0  0  0
  1  2  1  0  0  0
  2  3  1  0  0  0
  3  4  1  0  0  0
  4  5  2  0  0  0
  5  6  1  0  0  0
  6  7  1  0  0  0
  7  8  2  0  0  0
  8  9  1  0  0  0
  9 10  2  0  0  0
 10 11  1  0  0  0
 11 12  2  0  0  0
  5 13  1  0  0  0
 13 14  1  0  0  0
 14 31  1  0  0  0
 31 32  1  0  0  0
 32 33  1  0  0  0
 32 34  1  0  0  0
 32 35  1  0  0  0
 13 16  1  0  0  0
 16 17  2  0  0  0
 17 18  1  0  0  0
 18 19  2  0  0  0
 19 20  1  0  0  0
 20 22  1  0  0  0
 22 23  1  0  0  0
 23 24  1  0  0  0
 24 25  1  0  0  0
 25 27  1  0  0  0
 27 28  1  0  0  0
 28 29  1  0  0  0
 29 30  1  0  0  0
 20 21  2  0  0  0
 14  2  1  0  0  0
 21 16  1  0  0  0
 12  4  1  0  0  0
 12  7  1  0  0  0
  6 15  1  0  0  0
 25 26  1  0  0  0
M  END
> <minimizedAffinity>
14.56806

> <CNNscore>
0.3488299549

> <CNNaffinity>
7.4913239479

> <CNN_VS>
2.6131982803

> <CNNaffinity_variance>
1.1421334743

$$$$
[H]c1c(OC([H])([H])C([H])([H])N([H])C([H])([H])C([H])([H])C([H])([H])F)nc([C@]2([H])c3c(c4c([H])c([H])c([H])c([H])c4n3[H])C([H])([H])[C@@]([H])(C([H])([H])[H])N2C([H])([H])C(F)(F)F)c([H])c1[H]


 35 38  0  0  0  0  0  0  0  0999 V2000
   10.9256   41.7334  132.5610 C   0  0  0  0  0  0  0  0  0  0  0  0
    9.8900   42.6365  133.1531 C   0  0  0  0  0  0  0  0  0  0  0  0
    8.9164   43.0317  132.0474 C   0  0  0  0  0  0  0  0  0  0  0  0
    9.7399   43.7278  131.0319 C   0  0  0  0  0  0  0  0  0  0  0  0
   10.5820   44.7089  131.5388 C   0  0  0  0  0  0  0  0  0  0  0  0
   11.2541   45.2303  130.4782 N   0  0  0  0  0  0  0  0  0  0  0  0
   10.8673   44.6136  129.3311 C   0  0  0  0  0  0  0  0  0  0  0  0
   11.2391   44.7604  128.0157 C   0  0  0  0  0  0  0  0  0  0  0  0
   10.6814   43.9814  127.0183 C   0  0  0  0  0  0  0  0  0  0  0  0
    9.7283   43.0318  127.3503 C   0  0  0  0  0  0  0  0  0  0  0  0
    9.3651   42.8952  128.6678 C   0  0  0  0  0  0  0  0  0  0  0  0
    9.9147   43.6679  129.6730 C   0  0  0  0  0  0  0  0  0  0  0  0
   10.5998   44.9539  132.9810 C   0  0  0  0  0  0  0  0  0  0  0  0
   10.3640   43.8020  133.8116 N   0  0  0  0  0  0  0  0  0  0  0  0
   11.9666   45.9911  130.5115 H   0  0  0  0  0  0  0  0  0  0  0  0
    9.7357   46.0880  133.3589 C   0  0  0  0  0  0  0  0  0  0  0  0
    9.7184   46.5482  134.6649 C   0  0  0  0  0  0  0  0  0  0  0  0
    8.8824   47.5877  134.9756 C   0  0  0  0  0  0  0  0  0  0  0  0
    8.0652   48.1757  134.0113 C   0  0  0  0  0  0  0  0  0  0  0  0
    8.1168   47.6839  132.7280 C   0  0  0  0  0  0  0  0  0  0  0  0
    8.9354   46.6772  132.4529 N   0  0  0  0  0  0  0  0  0  0  0  0
    7.3006   48.2427  131.7090 O   0  0  0  0  0  0  0  0  0  0  0  0
    7.0148   47.4522  130.5876 C   0  0  0  0  0  0  0  0  0  0  0  0
    8.0425   47.5957  129.5101 C   0  0  0  0  0  0  0  0  0  0  0  0
    8.1098   48.8707  128.8861 N   0  0  0  0  0  0  0  0  0  0  0  0
    7.6901   48.8618  127.9346 H   0  0  0  0  0  0  0  0  0  0  0  0
    7.5972   49.9844  129.6014 C   0  0  0  0  0  0  0  0  0  0  0  0
    8.6804   50.3968  130.6086 C   0  0  0  0  0  0  0  0  0  0  0  0
    9.9234   49.6023  130.1870 C   0  0  0  0  0  0  0  0  0  0  0  0
   10.5471   49.1706  131.3171 F   0  0  0  0  0  0  0  0  0  0  0  0
   11.4277   43.5841  134.7454 C   0  0  0  0  0  0  0  0  0  0  0  0
   12.7801   44.0262  134.3295 C   0  0  0  0  0  0  0  0  0  0  0  0
   13.1990   43.5346  133.1042 F   0  0  0  0  0  0  0  0  0  0  0  0
   12.9596   45.3932  134.3896 F   0  0  0  0  0  0  0  0  0  0  0  0
   13.7064   43.4978  135.2577 F   0  0  0  0  0  0  0  0  0  0  0  0
  1  2  1  0  0  0
  2  3  1  0  0  0
  3  4  1  0  0  0
  4  5  2  0  0  0
  5  6  1  0  0  0
  6  7  1  0  0  0
  7  8  2  0  0  0
  8  9  1  0  0  0
  9 10  2  0  0  0
 10 11  1  0  0  0
 11 12  2  0  0  0
  5 13  1  0  0  0
 13 14  1  0  0  0
 14 31  1  0  0  0
 31 32  1  0  0  0
 32 33  1  0  0  0
 32 34  1  0  0  0
 32 35  1  0  0  0
 13 16  1  0  0  0
 16 17  2  0  0  0
 17 18  1  0  0  0
 18 19  2  0  0  0
 19 20  1  0  0  0
 20 22  1  0  0  0
 22 23  1  0  0  0
 23 24  1  0  0  0
 24 25  1  0  0  0
 25 27  1  0  0  0
 27 28  1  0  0  0
 28 29  1  0  0  0
 29 30  1  0  0  0
 20 21  2  0  0  0
 14  2  1  0  0  0
 21 16  1  0  0  0
 12  4  1  0  0  0
 12  7  1  0  0  0
  6 15  1  0  0  0
 25 26  1  0  0  0
M  END
> <minimizedAffinity>
-0.34300

> <CNNscore>
0.3406966329

> <CNNaffinity>
7.8510413170

> <CNN_VS>
2.6748232841

> <CNNaffinity_variance>
0.3337705135

$$$$
[H]c1c(OC([H])([H])C([H])([H])N([H])C([H])([H])C([H])([H])C([H])([H])F)nc([C@]2([H])c3c(c4c([H])c([H])c([H])c([H])c4n3[H])C([H])([H])[C@@]([H])(C([H])([H])[H])N2C([H])([H])C(F)(F)F)c([H])c1[H]


 35 38  0  0  0  0  0  0  0  0999 V2000
   10.8275   44.8043  130.6530 C   0  0  0  0  0  0  0  0  0  0  0  0
    9.7783   44.4057  131.6425 C   0  0  0  0  0  0  0  0  0  0  0  0
    8.4210   44.8335  131.0935 C   0  0  0  0  0  0  0  0  0  0  0  0
    8.5064   46.3045  130.9425 C   0  0  0  0  0  0  0  0  0  0  0  0
    8.9998   46.9757  132.0537 C   0  0  0  0  0  0  0  0  0  0  0  0
    9.0113   48.2975  131.7361 N   0  0  0  0  0  0  0  0  0  0  0  0
    8.5471   48.4783  130.4721 C   0  0  0  0  0  0  0  0  0  0  0  0
    8.3678   49.5941  129.6891 C   0  0  0  0  0  0  0  0  0  0  0  0
    7.8728   49.4983  128.4013 C   0  0  0  0  0  0  0  0  0  0  0  0
    7.5510   48.2522  127.8875 C   0  0  0  0  0  0  0  0  0  0  0  0
    7.7342   47.1453  128.6798 C   0  0  0  0  0  0  0  0  0  0  0  0
    8.2276   47.2283  129.9681 C   0  0  0  0  0  0  0  0  0  0  0  0
    9.3965   46.2038  133.2314 C   0  0  0  0  0  0  0  0  0  0  0  0
    9.9340   44.8948  132.9664 N   0  0  0  0  0  0  0  0  0  0  0  0
    9.3250   49.0784  132.3519 H   0  0  0  0  0  0  0  0  0  0  0  0
    8.3297   46.1623  134.2492 C   0  0  0  0  0  0  0  0  0  0  0  0
    8.4004   46.9741  135.3688 C   0  0  0  0  0  0  0  0  0  0  0  0
    7.3997   46.8842  136.2997 C   0  0  0  0  0  0  0  0  0  0  0  0
    6.3326   46.0024  136.1361 C   0  0  0  0  0  0  0  0  0  0  0  0
    6.3063   45.2160  135.0081 C   0  0  0  0  0  0  0  0  0  0  0  0
    7.2869   45.3227  134.1215 N   0  0  0  0  0  0  0  0  0  0  0  0
    5.2451   44.2965  134.7956 O   0  0  0  0  0  0  0  0  0  0  0  0
    4.2995   44.1356  135.8176 C   0  0  0  0  0  0  0  0  0  0  0  0
    3.0567   44.9325  135.5770 C   0  0  0  0  0  0  0  0  0  0  0  0
    2.0402   44.2812  134.8274 N   0  0  0  0  0  0  0  0  0  0  0  0
    2.0057   44.6166  133.8436 H   0  0  0  0  0  0  0  0  0  0  0  0
    2.0258   42.8619  134.8273 C   0  0  0  0  0  0  0  0  0  0  0  0
    0.8686   42.4336  135.7412 C   0  0  0  0  0  0  0  0  0  0  0  0
    1.0498   43.2715  137.0136 C   0  0  0  0  0  0  0  0  0  0  0  0
    0.9630   42.4333  138.0824 F   0  0  0  0  0  0  0  0  0  0  0  0
   11.2399   44.7245  133.5292 C   0  0  0  0  0  0  0  0  0  0  0  0
   12.3256   45.5554  132.9564 C   0  0  0  0  0  0  0  0  0  0  0  0
   12.6948   45.2163  131.6652 F   0  0  0  0  0  0  0  0  0  0  0  0
   12.0953   46.9126  133.0534 F   0  0  0  0  0  0  0  0  0  0  0  0
   13.4887   45.3289  133.7274 F   0  0  0  0  0  0  0  0  0  0  0  0
  1  2  1  0  0  0
  2  3  1  0  0  0
  3  4  1  0  0  0
  4  5  2  0  0  0
  5  6  1  0  0  0
  6  7  1  0  0  0
  7  8  2  0  0  0
  8  9  1  0  0  0
  9 10  2  0  0  0
 10 11  1  0  0  0
 11 12  2  0  0  0
  5 13  1  0  0  0
 13 14  1  0  0  0
 14 31  1  0  0  0
 31 32  1  0  0  0
 32 33  1  0  0  0
 32 34  1  0  0  0
 32 35  1  0  0  0
 13 16  1  0  0  0
 16 17  2  0  0  0
 17 18  1  0  0  0
 18 19  2  0  0  0
 19 20  1  0  0  0
 20 22  1  0  0  0
 22 23  1  0  0  0
 23 24  1  0  0  0
 24 25  1  0  0  0
 25 27  1  0  0  0
 27 28  1  0  0  0
 28 29  1  0  0  0
 29 30  1  0  0  0
 20 21  2  0  0  0
 14  2  1  0  0  0
 21 16  1  0  0  0
 12  4  1  0  0  0
 12  7  1  0  0  0
  6 15  1  0  0  0
 25 26  1  0  0  0
M  END
> <minimizedAffinity>
32.51739

> <CNNscore>
0.3333718479

> <CNNaffinity>
7.5547981262

> <CNN_VS>
2.5185570717

> <CNNaffinity_variance>
0.9457114935

$$$$
[H]Oc1c([H])c([H])c2c(c1[H])S[C@]([H])(C([H])([H])C1([H])C([H])([H])C([H])([H])C([H])([H])C([H])([H])C1([H])[H])[C@]([H])(c1c([H])c([H])c(OC([H])([H])C([H])([H])N3C([H])([H])C([H])([H])C([H])([H])C([H])([H])C3([H])[H])c([H])c1[H])O2


 34 38  0  0  0  0  0  0  0  0999 V2000
   10.8737   38.8666  130.4217 O   0  0  0  0  0  0  0  0  0  0  0  0
   10.5235   40.1964  130.6522 C   0  0  0  0  0  0  0  0  0  0  0  0
    9.3420   40.7279  130.1620 C   0  0  0  0  0  0  0  0  0  0  0  0
    8.9920   42.0328  130.3846 C   0  0  0  0  0  0  0  0  0  0  0  0
    9.8394   42.8353  131.1156 C   0  0  0  0  0  0  0  0  0  0  0  0
    9.4703   44.1501  131.3307 O   0  0  0  0  0  0  0  0  0  0  0  0
   10.4308   45.1405  131.5859 C   0  0  0  0  0  0  0  0  0  0  0  0
   11.1686   44.8809  132.8743 C   0  0  0  0  0  0  0  0  0  0  0  0
   12.1317   43.3406  132.5632 S   0  0  0  0  0  0  0  0  0  0  0  0
   11.0268   42.3170  131.6135 C   0  0  0  0  0  0  0  0  0  0  0  0
   11.3656   41.0109  131.3842 C   0  0  0  0  0  0  0  0  0  0  0  0
   11.7383   38.5098  130.7907 H   0  0  0  0  0  0  0  0  0  0  0  0
    9.9011   46.5028  131.4581 C   0  0  0  0  0  0  0  0  0  0  0  0
    8.5786   46.8333  131.5982 C   0  0  0  0  0  0  0  0  0  0  0  0
    8.1337   48.1520  131.4662 C   0  0  0  0  0  0  0  0  0  0  0  0
    9.0348   49.1590  131.1879 C   0  0  0  0  0  0  0  0  0  0  0  0
   10.3656   48.8296  131.0465 C   0  0  0  0  0  0  0  0  0  0  0  0
   10.7861   47.5173  131.1811 C   0  0  0  0  0  0  0  0  0  0  0  0
    8.5755   50.4623  131.0603 O   0  0  0  0  0  0  0  0  0  0  0  0
    7.3051   50.7948  130.5877 C   0  0  0  0  0  0  0  0  0  0  0  0
    7.2992   50.8447  129.0635 C   0  0  0  0  0  0  0  0  0  0  0  0
    6.2508   49.9689  128.5586 N   0  0  0  0  0  0  0  0  0  0  0  0
    6.8115   48.9406  127.7312 C   0  0  0  0  0  0  0  0  0  0  0  0
    7.2412   47.7261  128.5271 C   0  0  0  0  0  0  0  0  0  0  0  0
    6.0829   47.0894  129.2507 C   0  0  0  0  0  0  0  0  0  0  0  0
    4.9337   48.0741  129.4186 C   0  0  0  0  0  0  0  0  0  0  0  0
    5.5214   49.4428  129.6916 C   0  0  0  0  0  0  0  0  0  0  0  0
   10.2442   44.5693  134.0161 C   0  0  0  0  0  0  0  0  0  0  0  0
    9.7859   45.8437  134.6438 C   0  0  0  0  0  0  0  0  0  0  0  0
    8.3663   46.1886  134.2434 C   0  0  0  0  0  0  0  0  0  0  0  0
    7.8349   47.1617  135.2755 C   0  0  0  0  0  0  0  0  0  0  0  0
    8.8855   48.1735  135.6755 C   0  0  0  0  0  0  0  0  0  0  0  0
    9.9561   48.3172  134.6151 C   0  0  0  0  0  0  0  0  0  0  0  0
   10.6623   47.0150  134.3269 C   0  0  0  0  0  0  0  0  0  0  0  0
  1  2  1  0  0  0
  2  3  2  0  0  0
  3  4  1  0  0  0
  4  5  2  0  0  0
  5  6  1  0  0  0
  6  7  1  0  0  0
  7  8  1  0  0  0
  8 28  1  0  0  0
 28 29  1  0  0  0
 29 30  1  0  0  0
 30 31  1  0  0  0
 31 32  1  0  0  0
 32 33  1  0  0  0
 33 34  1  0  0  0
  8  9  1  0  0  0
  9 10  1  0  0  0
 10 11  2  0  0  0
  7 13  1  0  0  0
 13 14  2  0  0  0
 14 15  1  0  0  0
 15 16  2  0  0  0
 16 19  1  0  0  0
 19 20  1  0  0  0
 20 21  1  0  0  0
 21 22  1  0  0  0
 22 23  1  0  0  0
 23 24  1  0  0  0
 24 25  1  0  0  0
 25 26  1  0  0  0
 26 27  1  0  0  0
 16 17  1  0  0  0
 17 18  2  0  0  0
 11  2  1  0  0  0
 18 13  1  0  0  0
 10  5  1  0  0  0
 27 22  1  0  0  0
 34 29  1  0  0  0
  1 12  1  0  0  0
M  END
> <minimizedAffinity>
8.89863

> <CNNscore>
0.4321708977

> <CNNaffinity>
7.7963933945

> <CNN_VS>
3.3693742752

> <CNNaffinity_variance>
0.4239858687

$$$$
[H]Oc1c([H])c([H])c2c(c1[H])S[C@]([H])(C([H])([H])C1([H])C([H])([H])C([H])([H])C([H])([H])C([H])([H])C1([H])[H])[C@]([H])(c1c([H])c([H])c(OC([H])([H])C([H])([H])N3C([H])([H])C([H])([H])C([H])([H])C([H])([H])C3([H])[H])c([H])c1[H])O2


 34 38  0  0  0  0  0  0  0  0999 V2000
    9.9949   39.8683  130.6169 O   0  0  0  0  0  0  0  0  0  0  0  0
    9.7412   41.2340  130.7374 C   0  0  0  0  0  0  0  0  0  0  0  0
    8.4499   41.7215  130.8548 C   0  0  0  0  0  0  0  0  0  0  0  0
    8.1936   43.0613  130.9734 C   0  0  0  0  0  0  0  0  0  0  0  0
    9.2500   43.9448  130.9759 C   0  0  0  0  0  0  0  0  0  0  0  0
    8.9730   45.2938  131.0965 O   0  0  0  0  0  0  0  0  0  0  0  0
    9.8628   46.2632  130.6096 C   0  0  0  0  0  0  0  0  0  0  0  0
   11.1835   46.2201  131.3347 C   0  0  0  0  0  0  0  0  0  0  0  0
   11.9264   44.6005  130.8639 S   0  0  0  0  0  0  0  0  0  0  0  0
   10.5495   43.4714  130.8592 C   0  0  0  0  0  0  0  0  0  0  0  0
   10.7928   42.1297  130.7411 C   0  0  0  0  0  0  0  0  0  0  0  0
   10.9433   39.5450  130.5334 H   0  0  0  0  0  0  0  0  0  0  0  0
    9.2660   47.6007  130.5226 C   0  0  0  0  0  0  0  0  0  0  0  0
    9.8425   48.6631  129.8768 C   0  0  0  0  0  0  0  0  0  0  0  0
    9.2234   49.9154  129.8266 C   0  0  0  0  0  0  0  0  0  0  0  0
    8.0008   50.1050  130.4374 C   0  0  0  0  0  0  0  0  0  0  0  0
    7.4185   49.0384  131.0877 C   0  0  0  0  0  0  0  0  0  0  0  0
    8.0481   47.8059  131.1259 C   0  0  0  0  0  0  0  0  0  0  0  0
    7.4008   51.3549  130.3776 O   0  0  0  0  0  0  0  0  0  0  0  0
    6.0221   51.5583  130.4503 C   0  0  0  0  0  0  0  0  0  0  0  0
    5.2936   50.2269  130.5991 C   0  0  0  0  0  0  0  0  0  0  0  0
    4.9784   49.7017  129.2778 N   0  0  0  0  0  0  0  0  0  0  0  0
    6.0324   50.0038  128.3535 C   0  0  0  0  0  0  0  0  0  0  0  0
    7.1215   48.9516  128.3521 C   0  0  0  0  0  0  0  0  0  0  0  0
    6.5949   47.5979  127.9512 C   0  0  0  0  0  0  0  0  0  0  0  0
    5.0872   47.5161  128.1482 C   0  0  0  0  0  0  0  0  0  0  0  0
    4.7337   48.2819  129.4060 C   0  0  0  0  0  0  0  0  0  0  0  0
   11.0216   46.1847  132.8272 C   0  0  0  0  0  0  0  0  0  0  0  0
   11.4954   44.8674  133.3453 C   0  0  0  0  0  0  0  0  0  0  0  0
   11.2984   44.7487  134.8425 C   0  0  0  0  0  0  0  0  0  0  0  0
   11.3227   43.2723  135.1808 C   0  0  0  0  0  0  0  0  0  0  0  0
   12.3865   42.5410  134.3926 C   0  0  0  0  0  0  0  0  0  0  0  0
   13.4714   43.4806  133.9115 C   0  0  0  0  0  0  0  0  0  0  0  0
   12.9322   44.5851  133.0356 C   0  0  0  0  0  0  0  0  0  0  0  0
  1  2  1  0  0  0
  2  3  2  0  0  0
  3  4  1  0  0  0
  4  5  2  0  0  0
  5  6  1  0  0  0
  6  7  1  0  0  0
  7  8  1  0  0  0
  8 28  1  0  0  0
 28 29  1  0  0  0
 29 30  1  0  0  0
 30 31  1  0  0  0
 31 32  1  0  0  0
 32 33  1  0  0  0
 33 34  1  0  0  0
  8  9  1  0  0  0
  9 10  1  0  0  0
 10 11  2  0  0  0
  7 13  1  0  0  0
 13 14  2  0  0  0
 14 15  1  0  0  0
 15 16  2  0  0  0
 16 19  1  0  0  0
 19 20  1  0  0  0
 20 21  1  0  0  0
 21 22  1  0  0  0
 22 23  1  0  0  0
 23 24  1  0  0  0
 24 25  1  0  0  0
 25 26  1  0  0  0
 26 27  1  0  0  0
 16 17  1  0  0  0
 17 18  2  0  0  0
 11  2  1  0  0  0
 18 13  1  0  0  0
 10  5  1  0  0  0
 27 22  1  0  0  0
 34 29  1  0  0  0
  1 12  1  0  0  0
M  END
> <minimizedAffinity>
13.84387

> <CNNscore>
0.4278801978

> <CNNaffinity>
7.7542519569

> <CNN_VS>
3.3178908825

> <CNNaffinity_variance>
1.2440924644

$$$$
[H]Oc1c([H])c([H])c2c(c1[H])S[C@]([H])(C([H])([H])C1([H])C([H])([H])C([H])([H])C([H])([H])C([H])([H])C1([H])[H])[C@]([H])(c1c([H])c([H])c(OC([H])([H])C([H])([H])N3C([H])([H])C([H])([H])C([H])([H])C([H])([H])C3([H])[H])c([H])c1[H])O2


 34 38  0  0  0  0  0  0  0  0999 V2000
    1.4834   47.4587  129.6730 O   0  0  0  0  0  0  0  0  0  0  0  0
    2.8240   47.1475  129.8968 C   0  0  0  0  0  0  0  0  0  0  0  0
    3.1964   46.1554  130.7890 C   0  0  0  0  0  0  0  0  0  0  0  0
    4.5109   45.8447  131.0136 C   0  0  0  0  0  0  0  0  0  0  0  0
    5.4860   46.5388  130.3326 C   0  0  0  0  0  0  0  0  0  0  0  0
    6.8079   46.2121  130.5715 O   0  0  0  0  0  0  0  0  0  0  0  0
    7.8355   47.1426  130.3550 C   0  0  0  0  0  0  0  0  0  0  0  0
    7.9390   47.5289  128.9018 C   0  0  0  0  0  0  0  0  0  0  0  0
    6.3772   48.4399  128.5444 S   0  0  0  0  0  0  0  0  0  0  0  0
    5.1285   47.5355  129.4351 C   0  0  0  0  0  0  0  0  0  0  0  0
    3.8110   47.8369  129.2194 C   0  0  0  0  0  0  0  0  0  0  0  0
    1.2447   48.1841  129.0190 H   0  0  0  0  0  0  0  0  0  0  0  0
    9.1092   46.7463  130.9660 C   0  0  0  0  0  0  0  0  0  0  0  0
    9.9851   47.6174  131.5594 C   0  0  0  0  0  0  0  0  0  0  0  0
   11.1850   47.1790  132.1268 C   0  0  0  0  0  0  0  0  0  0  0  0
   11.5124   45.8390  132.0977 C   0  0  0  0  0  0  0  0  0  0  0  0
   10.6334   44.9605  131.5016 C   0  0  0  0  0  0  0  0  0  0  0  0
    9.4498   45.4148  130.9453 C   0  0  0  0  0  0  0  0  0  0  0  0
   12.7078   45.4216  132.6657 O   0  0  0  0  0  0  0  0  0  0  0  0
   12.7943   44.7484  133.8851 C   0  0  0  0  0  0  0  0  0  0  0  0
   11.8549   45.3766  134.9091 C   0  0  0  0  0  0  0  0  0  0  0  0
   10.7613   44.4555  135.1860 N   0  0  0  0  0  0  0  0  0  0  0  0
    9.6466   45.1565  135.7537 C   0  0  0  0  0  0  0  0  0  0  0  0
    8.7152   45.7158  134.6988 C   0  0  0  0  0  0  0  0  0  0  0  0
    8.1255   44.6298  133.8366 C   0  0  0  0  0  0  0  0  0  0  0  0
    8.9705   43.3644  133.8949 C   0  0  0  0  0  0  0  0  0  0  0  0
   10.4275   43.7725  133.9553 C   0  0  0  0  0  0  0  0  0  0  0  0
    7.9440   46.3381  127.9870 C   0  0  0  0  0  0  0  0  0  0  0  0
    9.3277   45.7848  127.9023 C   0  0  0  0  0  0  0  0  0  0  0  0
    9.4461   44.4553  128.6185 C   0  0  0  0  0  0  0  0  0  0  0  0
   10.6748   43.7599  128.0696 C   0  0  0  0  0  0  0  0  0  0  0  0
   11.8160   44.7312  127.8652 C   0  0  0  0  0  0  0  0  0  0  0  0
   11.6596   45.9671  128.7251 C   0  0  0  0  0  0  0  0  0  0  0  0
   10.3743   46.7068  128.4450 C   0  0  0  0  0  0  0  0  0  0  0  0
  1  2  1  0  0  0
  2  3  2  0  0  0
  3  4  1  0  0  0
  4  5  2  0  0  0
  5  6  1  0  0  0
  6  7  1  0  0  0
  7  8  1  0  0  0
  8 28  1  0  0  0
 28 29  1  0  0  0
 29 30  1  0  0  0
 30 31  1  0  0  0
 31 32  1  0  0  0
 32 33  1  0  0  0
 33 34  1  0  0  0
  8  9  1  0  0  0
  9 10  1  0  0  0
 10 11  2  0  0  0
  7 13  1  0  0  0
 13 14  2  0  0  0
 14 15  1  0  0  0
 15 16  2  0  0  0
 16 19  1  0  0  0
 19 20  1  0  0  0
 20 21  1  0  0  0
 21 22  1  0  0  0
 22 23  1  0  0  0
 23 24  1  0  0  0
 24 25  1  0  0  0
 25 26  1  0  0  0
 26 27  1  0  0  0
 16 17  1  0  0  0
 17 18  2  0  0  0
 11  2  1  0  0  0
 18 13  1  0  0  0
 10  5  1  0  0  0
 27 22  1  0  0  0
 34 29  1  0  0  0
  1 12  1  0  0  0
M  END
> <minimizedAffinity>
18.38336

> <CNNscore>
0.4073597491

> <CNNaffinity>
7.6737403870

> <CNN_VS>
3.1259729862

> <CNNaffinity_variance>
0.9922534227

$$$$
[H]Oc1c([H])c([H])c2c(c1[H])S[C@]([H])(C([H])([H])C1([H])C([H])([H])C([H])([H])C([H])([H])C([H])([H])C1([H])[H])[C@]([H])(c1c([H])c([H])c(OC([H])([H])C([H])([H])N3C([H])([H])C([H])([H])C([H])([H])C([H])([H])C3([H])[H])c([H])c1[H])O2


 34 38  0  0  0  0  0  0  0  0999 V2000
   10.9182   40.9171  131.4532 O   0  0  0  0  0  0  0  0  0  0  0  0
   10.3781   42.1815  131.2212 C   0  0  0  0  0  0  0  0  0  0  0  0
    9.3801   42.3795  130.2812 C   0  0  0  0  0  0  0  0  0  0  0  0
    8.8453   43.6183  130.0482 C   0  0  0  0  0  0  0  0  0  0  0  0
    9.3143   44.6936  130.7695 C   0  0  0  0  0  0  0  0  0  0  0  0
    8.7631   45.9369  130.5213 O   0  0  0  0  0  0  0  0  0  0  0  0
    9.4777   47.1139  130.7910 C   0  0  0  0  0  0  0  0  0  0  0  0
    9.7660   47.2647  132.2628 C   0  0  0  0  0  0  0  0  0  0  0  0
   10.9289   45.8905  132.6579 S   0  0  0  0  0  0  0  0  0  0  0  0
   10.3139   44.5109  131.7150 C   0  0  0  0  0  0  0  0  0  0  0  0
   10.8406   43.2676  131.9386 C   0  0  0  0  0  0  0  0  0  0  0  0
   11.6418   40.8052  132.1424 H   0  0  0  0  0  0  0  0  0  0  0  0
    8.8855   48.3027  130.1676 C   0  0  0  0  0  0  0  0  0  0  0  0
    9.1374   48.7073  128.8827 C   0  0  0  0  0  0  0  0  0  0  0  0
    8.5408   49.8504  128.3429 C   0  0  0  0  0  0  0  0  0  0  0  0
    7.6739   50.6027  129.1087 C   0  0  0  0  0  0  0  0  0  0  0  0
    7.4186   50.1982  130.4013 C   0  0  0  0  0  0  0  0  0  0  0  0
    8.0197   49.0627  130.9173 C   0  0  0  0  0  0  0  0  0  0  0  0
    7.0908   51.7345  128.5565 O   0  0  0  0  0  0  0  0  0  0  0  0
    7.8170   52.8089  128.0411 C   0  0  0  0  0  0  0  0  0  0  0  0
    7.8804   52.7291  126.5195 C   0  0  0  0  0  0  0  0  0  0  0  0
    7.4728   54.0079  125.9543 N   0  0  0  0  0  0  0  0  0  0  0  0
    8.5266   54.5617  125.1548 C   0  0  0  0  0  0  0  0  0  0  0  0
    8.4812   54.0784  123.7204 C   0  0  0  0  0  0  0  0  0  0  0  0
    7.1956   54.4665  123.0368 C   0  0  0  0  0  0  0  0  0  0  0  0
    6.1039   54.7696  124.0541 C   0  0  0  0  0  0  0  0  0  0  0  0
    6.2516   53.7996  125.2076 C   0  0  0  0  0  0  0  0  0  0  0  0
    8.5506   47.0383  133.1151 C   0  0  0  0  0  0  0  0  0  0  0  0
    8.9737   46.7946  134.5257 C   0  0  0  0  0  0  0  0  0  0  0  0
    8.9034   45.3254  134.8876 C   0  0  0  0  0  0  0  0  0  0  0  0
    9.7928   45.1200  136.0964 C   0  0  0  0  0  0  0  0  0  0  0  0
    9.6555   46.2566  137.0847 C   0  0  0  0  0  0  0  0  0  0  0  0
    8.3419   46.9895  136.9155 C   0  0  0  0  0  0  0  0  0  0  0  0
    8.1762   47.5657  135.5305 C   0  0  0  0  0  0  0  0  0  0  0  0
  1  2  1  0  0  0
  2  3  2  0  0  0
  3  4  1  0  0  0
  4  5  2  0  0  0
  5  6  1  0  0  0
  6  7  1  0  0  0
  7  8  1  0  0  0
  8 28  1  0  0  0
 28 29  1  0  0  0
 29 30  1  0  0  0
 30 31  1  0  0  0
 31 32  1  0  0  0
 32 33  1  0  0  0
 33 34  1  0  0  0
  8  9  1  0  0  0
  9 10  1  0  0  0
 10 11  2  0  0  0
  7 13  1  0  0  0
 13 14  2  0  0  0
 14 15  1  0  0  0
 15 16  2  0  0  0
 16 19  1  0  0  0
 19 20  1  0  0  0
 20 21  1  0  0  0
 21 22  1  0  0  0
 22 23  1  0  0  0
 23 24  1  0  0  0
 24 25  1  0  0  0
 25 26  1  0  0  0
 26 27  1  0  0  0
 16 17  1  0  0  0
 17 18  2  0  0  0
 11  2  1  0  0  0
 18 13  1  0  0  0
 10  5  1  0  0  0
 27 22  1  0  0  0
 34 29  1  0  0  0
  1 12  1  0  0  0
M  END
> <minimizedAffinity>
11.42075

> <CNNscore>
0.4044088125

> <CNNaffinity>
7.3281021118

> <CNN_VS>
2.9635491371

> <CNNaffinity_variance>
0.8884410858

$$$$
[H]Oc1c([H])c([H])c2c(c1[H])S[C@]([H])(C([H])([H])C1([H])C([H])([H])C([H])([H])C([H])([H])C([H])([H])C1([H])[H])[C@]([H])(c1c([H])c([H])c(OC([H])([H])C([H])([H])N3C([H])([H])C([H])([H])C([H])([H])C([H])([H])C3([H])[H])c([H])c1[H])O2


 34 38  0  0  0  0  0  0  0  0999 V2000
   11.6806   40.6709  132.0038 O   0  0  0  0  0  0  0  0  0  0  0  0
   11.2397   41.9928  132.0527 C   0  0  0  0  0  0  0  0  0  0  0  0
    9.9893   42.3554  131.5796 C   0  0  0  0  0  0  0  0  0  0  0  0
    9.5501   43.6516  131.6245 C   0  0  0  0  0  0  0  0  0  0  0  0
   10.3759   44.6176  132.1547 C   0  0  0  0  0  0  0  0  0  0  0  0
    9.9164   45.9210  132.1921 O   0  0  0  0  0  0  0  0  0  0  0  0
   10.8082   47.0039  132.2158 C   0  0  0  0  0  0  0  0  0  0  0  0
   11.6478   47.0057  133.4676 C   0  0  0  0  0  0  0  0  0  0  0  0
   12.7101   45.5064  133.3242 S   0  0  0  0  0  0  0  0  0  0  0  0
   11.6316   44.2696  132.6328 C   0  0  0  0  0  0  0  0  0  0  0  0
   12.0594   42.9704  132.5823 C   0  0  0  0  0  0  0  0  0  0  0  0
   12.5936   40.4388  132.3552 H   0  0  0  0  0  0  0  0  0  0  0  0
   10.1627   48.2880  131.9207 C   0  0  0  0  0  0  0  0  0  0  0  0
   10.1564   49.3626  132.7712 C   0  0  0  0  0  0  0  0  0  0  0  0
    9.5243   50.5626  132.4328 C   0  0  0  0  0  0  0  0  0  0  0  0
    8.8855   50.6862  131.2162 C   0  0  0  0  0  0  0  0  0  0  0  0
    8.8901   49.6071  130.3587 C   0  0  0  0  0  0  0  0  0  0  0  0
    9.5220   48.4271  130.7126 C   0  0  0  0  0  0  0  0  0  0  0  0
    8.2632   51.8849  130.8970 O   0  0  0  0  0  0  0  0  0  0  0  0
    7.0213   51.9708  130.2661 C   0  0  0  0  0  0  0  0  0  0  0  0
    6.8602   50.8451  129.2500 C   0  0  0  0  0  0  0  0  0  0  0  0
    5.8992   49.8750  129.7566 N   0  0  0  0  0  0  0  0  0  0  0  0
    4.6313   50.0386  129.1068 C   0  0  0  0  0  0  0  0  0  0  0  0
    4.5329   49.2464  127.8200 C   0  0  0  0  0  0  0  0  0  0  0  0
    4.6882   47.7665  128.0576 C   0  0  0  0  0  0  0  0  0  0  0  0
    5.3917   47.4948  129.3804 C   0  0  0  0  0  0  0  0  0  0  0  0
    6.4574   48.5531  129.5741 C   0  0  0  0  0  0  0  0  0  0  0  0
   10.8289   46.8172  134.7121 C   0  0  0  0  0  0  0  0  0  0  0  0
   11.0055   45.4226  135.2142 C   0  0  0  0  0  0  0  0  0  0  0  0
   12.1665   44.7242  134.5368 C   0  0  0  0  0  0  0  0  0  0  0  0
   12.5728   43.5676  135.4266 C   0  0  0  0  0  0  0  0  0  0  0  0
   11.3659   42.8642  136.0063 C   0  0  0  0  0  0  0  0  0  0  0  0
   10.1246   43.1051  135.1741 C   0  0  0  0  0  0  0  0  0  0  0  0
    9.7853   44.5707  135.0540 C   0  0  0  0  0  0  0  0  0  0  0  0
  1  2  1  0  0  0
  2  3  2  0  0  0
  3  4  1  0  0  0
  4  5  2  0  0  0
  5  6  1  0  0  0
  6  7  1  0  0  0
  7  8  1  0  0  0
  8 28  1  0  0  0
 28 29  1  0  0  0
 29 30  1  0  0  0
 30 31  1  0  0  0
 31 32  1  0  0  0
 32 33  1  0  0  0
 33 34  1  0  0  0
  8  9  1  0  0  0
  9 10  1  0  0  0
 10 11  2  0  0  0
  7 13  1  0  0  0
 13 14  2  0  0  0
 14 15  1  0  0  0
 15 16  2  0  0  0
 16 19  1  0  0  0
 19 20  1  0  0  0
 20 21  1  0  0  0
 21 22  1  0  0  0
 22 23  1  0  0  0
 23 24  1  0  0  0
 24 25  1  0  0  0
 25 26  1  0  0  0
 26 27  1  0  0  0
 16 17  1  0  0  0
 17 18  2  0  0  0
 11  2  1  0  0  0
 18 13  1  0  0  0
 10  5  1  0  0  0
 27 22  1  0  0  0
 34 29  1  0  0  0
  1 12  1  0  0  0
M  END
> <minimizedAffinity>
13.17044

> <CNNscore>
0.3758483827

> <CNNaffinity>
7.6505417824

> <CNN_VS>
2.8754436970

> <CNNaffinity_variance>
1.1821196079

$$$$
[H]Oc1c([H])c([H])c2c(c1[H])S[C@]([H])(C([H])([H])C1([H])C([H])([H])C([H])([H])C([H])([H])C([H])([H])C1([H])[H])[C@]([H])(c1c([H])c([H])c(OC([H])([H])C([H])([H])N3C([H])([H])C([H])([H])C([H])([H])C([H])([H])C3([H])[H])c([H])c1[H])O2


 34 38  0  0  0  0  0  0  0  0999 V2000
   10.2413   40.8203  129.2454 O   0  0  0  0  0  0  0  0  0  0  0  0
   10.1578   42.1420  129.6815 C   0  0  0  0  0  0  0  0  0  0  0  0
   11.2896   42.8609  130.0297 C   0  0  0  0  0  0  0  0  0  0  0  0
   11.2148   44.1591  130.4587 C   0  0  0  0  0  0  0  0  0  0  0  0
    9.9802   44.7629  130.5452 C   0  0  0  0  0  0  0  0  0  0  0  0
    9.9233   46.0739  130.9803 O   0  0  0  0  0  0  0  0  0  0  0  0
    8.7635   46.5900  131.5778 C   0  0  0  0  0  0  0  0  0  0  0  0
    7.6012   46.6013  130.6182 C   0  0  0  0  0  0  0  0  0  0  0  0
    7.2336   44.8229  130.3029 S   0  0  0  0  0  0  0  0  0  0  0  0
    8.8371   44.0555  130.1997 C   0  0  0  0  0  0  0  0  0  0  0  0
    8.9248   42.7582  129.7723 C   0  0  0  0  0  0  0  0  0  0  0  0
    9.4017   40.3246  128.9998 H   0  0  0  0  0  0  0  0  0  0  0  0
    8.9894   47.8656  132.2665 C   0  0  0  0  0  0  0  0  0  0  0  0
    7.9972   48.6267  132.8273 C   0  0  0  0  0  0  0  0  0  0  0  0
    8.2752   49.8351  133.4728 C   0  0  0  0  0  0  0  0  0  0  0  0
    9.5756   50.2886  133.5568 C   0  0  0  0  0  0  0  0  0  0  0  0
   10.5756   49.5253  132.9937 C   0  0  0  0  0  0  0  0  0  0  0  0
   10.2794   48.3312  132.3587 C   0  0  0  0  0  0  0  0  0  0  0  0
    9.8332   51.4904  134.2012 O   0  0  0  0  0  0  0  0  0  0  0  0
   10.4847   52.5688  133.6012 C   0  0  0  0  0  0  0  0  0  0  0  0
   10.6826   53.6987  134.6061 C   0  0  0  0  0  0  0  0  0  0  0  0
   11.9261   53.4827  135.3327 N   0  0  0  0  0  0  0  0  0  0  0  0
   12.9101   52.8865  134.4767 C   0  0  0  0  0  0  0  0  0  0  0  0
   13.7091   53.9167  133.7063 C   0  0  0  0  0  0  0  0  0  0  0  0
   14.4651   54.8428  134.6236 C   0  0  0  0  0  0  0  0  0  0  0  0
   13.8574   54.8476  136.0198 C   0  0  0  0  0  0  0  0  0  0  0  0
   12.3525   54.7522  135.8795 C   0  0  0  0  0  0  0  0  0  0  0  0
    7.9587   47.1941  129.2856 C   0  0  0  0  0  0  0  0  0  0  0  0
    7.2621   48.5043  129.1238 C   0  0  0  0  0  0  0  0  0  0  0  0
    7.9309   49.5995  129.9287 C   0  0  0  0  0  0  0  0  0  0  0  0
    7.4973   50.9219  129.3306 C   0  0  0  0  0  0  0  0  0  0  0  0
    6.0331   50.9049  128.9518 C   0  0  0  0  0  0  0  0  0  0  0  0
    5.2680   49.8506  129.7229 C   0  0  0  0  0  0  0  0  0  0  0  0
    5.8139   48.4615  129.4992 C   0  0  0  0  0  0  0  0  0  0  0  0
  1  2  1  0  0  0
  2  3  2  0  0  0
  3  4  1  0  0  0
  4  5  2  0  0  0
  5  6  1  0  0  0
  6  7  1  0  0  0
  7  8  1  0  0  0
  8 28  1  0  0  0
 28 29  1  0  0  0
 29 30  1  0  0  0
 30 31  1  0  0  0
 31 32  1  0  0  0
 32 33  1  0  0  0
 33 34  1  0  0  0
  8  9  1  0  0  0
  9 10  1  0  0  0
 10 11  2  0  0  0
  7 13  1  0  0  0
 13 14  2  0  0  0
 14 15  1  0  0  0
 15 16  2  0  0  0
 16 19  1  0  0  0
 19 20  1  0  0  0
 20 21  1  0  0  0
 21 22  1  0  0  0
 22 23  1  0  0  0
 23 24  1  0  0  0
 24 25  1  0  0  0
 25 26  1  0  0  0
 26 27  1  0  0  0
 16 17  1  0  0  0
 17 18  2  0  0  0
 11  2  1  0  0  0
 18 13  1  0  0  0
 10  5  1  0  0  0
 27 22  1  0  0  0
 34 29  1  0  0  0
  1 12  1  0  0  0
M  END
> <minimizedAffinity>
26.56728

> <CNNscore>
0.3619903624

> <CNNaffinity>
7.2128195763

> <CNN_VS>
2.6109712124

> <CNNaffinity_variance>
0.9522358179

$$$$
[H]Oc1c([H])c([H])c2c(c1[H])S[C@]([H])(C([H])([H])C1([H])C([H])([H])C([H])([H])C([H])([H])C([H])([H])C1([H])[H])[C@]([H])(c1c([H])c([H])c(OC([H])([H])C([H])([H])N3C([H])([H])C([H])([H])C([H])([H])C([H])([H])C3([H])[H])c([H])c1[H])O2


 34 38  0  0  0  0  0  0  0  0999 V2000
    9.7695   38.8687  129.3594 O   0  0  0  0  0  0  0  0  0  0  0  0
    9.4359   40.2150  129.5016 C   0  0  0  0  0  0  0  0  0  0  0  0
    8.4211   40.6221  130.3521 C   0  0  0  0  0  0  0  0  0  0  0  0
    8.0884   41.9425  130.4965 C   0  0  0  0  0  0  0  0  0  0  0  0
    8.7831   42.8881  129.7757 C   0  0  0  0  0  0  0  0  0  0  0  0
    8.4339   44.2164  129.9337 O   0  0  0  0  0  0  0  0  0  0  0  0
    8.6901   45.1584  128.9260 C   0  0  0  0  0  0  0  0  0  0  0  0
   10.1682   45.3228  128.6810 C   0  0  0  0  0  0  0  0  0  0  0  0
   10.7124   43.7062  127.9828 S   0  0  0  0  0  0  0  0  0  0  0  0
    9.8026   42.4956  128.9195 C   0  0  0  0  0  0  0  0  0  0  0  0
   10.1258   41.1725  128.7836 C   0  0  0  0  0  0  0  0  0  0  0  0
   10.5111   38.6044  128.7340 H   0  0  0  0  0  0  0  0  0  0  0  0
    7.9669   46.4202  129.1200 C   0  0  0  0  0  0  0  0  0  0  0  0
    6.7417   46.5228  129.7252 C   0  0  0  0  0  0  0  0  0  0  0  0
    6.1018   47.7556  129.8826 C   0  0  0  0  0  0  0  0  0  0  0  0
    6.7041   48.9087  129.4230 C   0  0  0  0  0  0  0  0  0  0  0  0
    7.9364   48.8086  128.8139 C   0  0  0  0  0  0  0  0  0  0  0  0
    8.5537   47.5779  128.6677 C   0  0  0  0  0  0  0  0  0  0  0  0
    6.0544   50.1238  129.5878 O   0  0  0  0  0  0  0  0  0  0  0  0
    6.5870   51.1982  130.3016 C   0  0  0  0  0  0  0  0  0  0  0  0
    8.0876   51.0142  130.5019 C   0  0  0  0  0  0  0  0  0  0  0  0
    8.3589   50.7859  131.9144 N   0  0  0  0  0  0  0  0  0  0  0  0
    7.7689   49.5521  132.3456 C   0  0  0  0  0  0  0  0  0  0  0  0
    8.6833   48.3649  132.1276 C   0  0  0  0  0  0  0  0  0  0  0  0
    9.9717   48.4987  132.8975 C   0  0  0  0  0  0  0  0  0  0  0  0
   10.2435   49.9517  133.2625 C   0  0  0  0  0  0  0  0  0  0  0  0
    9.7921   50.8207  132.1073 C   0  0  0  0  0  0  0  0  0  0  0  0
   10.9465   45.5095  129.9516 C   0  0  0  0  0  0  0  0  0  0  0  0
   10.3803   44.6262  131.0133 C   0  0  0  0  0  0  0  0  0  0  0  0
    9.8882   45.4230  132.2039 C   0  0  0  0  0  0  0  0  0  0  0  0
    8.9146   44.5422  132.9594 C   0  0  0  0  0  0  0  0  0  0  0  0
    9.3977   43.1104  133.0232 C   0  0  0  0  0  0  0  0  0  0  0  0
   10.8957   43.0162  132.8272 C   0  0  0  0  0  0  0  0  0  0  0  0
   11.3425   43.5906  131.5051 C   0  0  0  0  0  0  0  0  0  0  0  0
  1  2  1  0  0  0
  2  3  2  0  0  0
  3  4  1  0  0  0
  4  5  2  0  0  0
  5  6  1  0  0  0
  6  7  1  0  0  0
  7  8  1  0  0  0
  8 28  1  0  0  0
 28 29  1  0  0  0
 29 30  1  0  0  0
 30 31  1  0  0  0
 31 32  1  0  0  0
 32 33  1  0  0  0
 33 34  1  0  0  0
  8  9  1  0  0  0
  9 10  1  0  0  0
 10 11  2  0  0  0
  7 13  1  0  0  0
 13 14  2  0  0  0
 14 15  1  0  0  0
 15 16  2  0  0  0
 16 19  1  0  0  0
 19 20  1  0  0  0
 20 21  1  0  0  0
 21 22  1  0  0  0
 22 23  1  0  0  0
 23 24  1  0  0  0
 24 25  1  0  0  0
 25 26  1  0  0  0
 26 27  1  0  0  0
 16 17  1  0  0  0
 17 18  2  0  0  0
 11  2  1  0  0  0
 18 13  1  0  0  0
 10  5  1  0  0  0
 27 22  1  0  0  0
 34 29  1  0  0  0
  1 12  1  0  0  0
M  END
> <minimizedAffinity>
11.10886

> <CNNscore>
0.3609444201

> <CNNaffinity>
7.6147184372

> <CNN_VS>
2.7484900951

> <CNNaffinity_variance>
0.1583484411

$$$$
[H]Oc1c([H])c([H])c2c(c1[H])S[C@]([H])(C([H])([H])C1([H])C([H])([H])C([H])([H])C([H])([H])C([H])([H])C1([H])[H])[C@]([H])(c1c([H])c([H])c(OC([H])([H])C([H])([H])N3C([H])([H])C([H])([H])C([H])([H])C([H])([H])C3([H])[H])c([H])c1[H])O2


 34 38  0  0  0  0  0  0  0  0999 V2000
    6.6699   52.8634  127.9038 O   0  0  0  0  0  0  0  0  0  0  0  0
    7.0178   51.6425  128.4806 C   0  0  0  0  0  0  0  0  0  0  0  0
    7.0165   50.4691  127.7443 C   0  0  0  0  0  0  0  0  0  0  0  0
    7.3569   49.2668  128.3043 C   0  0  0  0  0  0  0  0  0  0  0  0
    7.7095   49.2268  129.6349 C   0  0  0  0  0  0  0  0  0  0  0  0
    8.0502   48.0046  130.1839 O   0  0  0  0  0  0  0  0  0  0  0  0
    7.9200   47.7663  131.5604 C   0  0  0  0  0  0  0  0  0  0  0  0
    8.8286   48.6576  132.3677 C   0  0  0  0  0  0  0  0  0  0  0  0
    8.1720   50.3598  132.1064 S   0  0  0  0  0  0  0  0  0  0  0  0
    7.7156   50.3943  130.3856 C   0  0  0  0  0  0  0  0  0  0  0  0
    7.3732   51.5900  129.8144 C   0  0  0  0  0  0  0  0  0  0  0  0
    6.6804   53.6981  128.4644 H   0  0  0  0  0  0  0  0  0  0  0  0
    8.0053   46.3437  131.9090 C   0  0  0  0  0  0  0  0  0  0  0  0
    7.8880   45.3191  131.0065 C   0  0  0  0  0  0  0  0  0  0  0  0
    7.9798   43.9807  131.3995 C   0  0  0  0  0  0  0  0  0  0  0  0
    8.1935   43.6646  132.7255 C   0  0  0  0  0  0  0  0  0  0  0  0
    8.3118   44.6930  133.6355 C   0  0  0  0  0  0  0  0  0  0  0  0
    8.2180   46.0122  133.2259 C   0  0  0  0  0  0  0  0  0  0  0  0
    8.2819   42.3306  133.0977 O   0  0  0  0  0  0  0  0  0  0  0  0
    9.4885   41.6487  133.2610 C   0  0  0  0  0  0  0  0  0  0  0  0
   10.6632   42.6185  133.1889 C   0  0  0  0  0  0  0  0  0  0  0  0
   11.5074   42.2664  132.0556 N   0  0  0  0  0  0  0  0  0  0  0  0
   10.7225   42.1562  130.8605 C   0  0  0  0  0  0  0  0  0  0  0  0
   10.5657   43.4819  130.1456 C   0  0  0  0  0  0  0  0  0  0  0  0
   11.8939   44.0502  129.7173 C   0  0  0  0  0  0  0  0  0  0  0  0
   13.0343   43.4477  130.5265 C   0  0  0  0  0  0  0  0  0  0  0  0
   12.5542   43.2592  131.9504 C   0  0  0  0  0  0  0  0  0  0  0  0
   10.2366   48.6709  131.8458 C   0  0  0  0  0  0  0  0  0  0  0  0
   11.0886   47.7897  132.6977 C   0  0  0  0  0  0  0  0  0  0  0  0
   11.2884   46.4252  132.0710 C   0  0  0  0  0  0  0  0  0  0  0  0
   12.5174   45.8146  132.7124 C   0  0  0  0  0  0  0  0  0  0  0  0
   12.5634   46.0937  134.1982 C   0  0  0  0  0  0  0  0  0  0  0  0
   11.1892   46.4046  134.7518 C   0  0  0  0  0  0  0  0  0  0  0  0
   10.5532   47.5982  134.0822 C   0  0  0  0  0  0  0  0  0  0  0  0
  1  2  1  0  0  0
  2  3  2  0  0  0
  3  4  1  0  0  0
  4  5  2  0  0  0
  5  6  1  0  0  0
  6  7  1  0  0  0
  7  8  1  0  0  0
  8 28  1  0  0  0
 28 29  1  0  0  0
 29 30  1  0  0  0
 30 31  1  0  0  0
 31 32  1  0  0  0
 32 33  1  0  0  0
 33 34  1  0  0  0
  8  9  1  0  0  0
  9 10  1  0  0  0
 10 11  2  0  0  0
  7 13  1  0  0  0
 13 14  2  0  0  0
 14 15  1  0  0  0
 15 16  2  0  0  0
 16 19  1  0  0  0
 19 20  1  0  0  0
 20 21  1  0  0  0
 21 22  1  0  0  0
 22 23  1  0  0  0
 23 24  1  0  0  0
 24 25  1  0  0  0
 25 26  1  0  0  0
 26 27  1  0  0  0
 16 17  1  0  0  0
 17 18  2  0  0  0
 11  2  1  0  0  0
 18 13  1  0  0  0
 10  5  1  0  0  0
 27 22  1  0  0  0
 34 29  1  0  0  0
  1 12  1  0  0  0
M  END
> <minimizedAffinity>
2.78097

> <CNNscore>
0.3568183482

> <CNNaffinity>
7.6844902039

> <CNN_VS>
2.7419672012

> <CNNaffinity_variance>
0.3853373230

$$$$
[H]Oc1c([H])c([H])c2c(c1[H])S[C@]([H])(C([H])([H])C1([H])C([H])([H])C([H])([H])C([H])([H])C([H])([H])C1([H])[H])[C@]([H])(c1c([H])c([H])c(OC([H])([H])C([H])([H])N3C([H])([H])C([H])([H])C([H])([H])C([H])([H])C3([H])[H])c([H])c1[H])O2


 34 38  0  0  0  0  0  0  0  0999 V2000
    9.1210   40.1434  134.8624 O   0  0  0  0  0  0  0  0  0  0  0  0
    9.2393   41.3984  134.2664 C   0  0  0  0  0  0  0  0  0  0  0  0
    9.5424   42.5263  135.0112 C   0  0  0  0  0  0  0  0  0  0  0  0
    9.6600   43.7617  134.4325 C   0  0  0  0  0  0  0  0  0  0  0  0
    9.4714   43.8824  133.0737 C   0  0  0  0  0  0  0  0  0  0  0  0
    9.5938   45.1370  132.5061 O   0  0  0  0  0  0  0  0  0  0  0  0
    8.9456   45.4551  131.3031 C   0  0  0  0  0  0  0  0  0  0  0  0
    9.4565   44.6189  130.1579 C   0  0  0  0  0  0  0  0  0  0  0  0
    8.9234   42.9000  130.5556 S   0  0  0  0  0  0  0  0  0  0  0  0
    9.1672   42.7612  132.3140 C   0  0  0  0  0  0  0  0  0  0  0  0
    9.0522   41.5317  132.9042 C   0  0  0  0  0  0  0  0  0  0  0  0
    8.9000   39.3433  134.2950 H   0  0  0  0  0  0  0  0  0  0  0  0
    8.9134   46.8963  131.0302 C   0  0  0  0  0  0  0  0  0  0  0  0
    9.6541   47.5147  130.0570 C   0  0  0  0  0  0  0  0  0  0  0  0
    9.5795   48.8941  129.8432 C   0  0  0  0  0  0  0  0  0  0  0  0
    8.7445   49.6684  130.6222 C   0  0  0  0  0  0  0  0  0  0  0  0
    7.9983   49.0493  131.6017 C   0  0  0  0  0  0  0  0  0  0  0  0
    8.0864   47.6815  131.7976 C   0  0  0  0  0  0  0  0  0  0  0  0
    8.6831   51.0362  130.3960 O   0  0  0  0  0  0  0  0  0  0  0  0
    7.5672   51.6861  129.8669 C   0  0  0  0  0  0  0  0  0  0  0  0
    6.2827   51.0439  130.3802 C   0  0  0  0  0  0  0  0  0  0  0  0
    5.6073   50.3737  129.2776 N   0  0  0  0  0  0  0  0  0  0  0  0
    6.5448   50.0345  128.2469 C   0  0  0  0  0  0  0  0  0  0  0  0
    7.1957   48.6866  128.4759 C   0  0  0  0  0  0  0  0  0  0  0  0
    6.1838   47.5702  128.4986 C   0  0  0  0  0  0  0  0  0  0  0  0
    4.7884   48.1015  128.7968 C   0  0  0  0  0  0  0  0  0  0  0  0
    4.9160   49.2199  129.8098 C   0  0  0  0  0  0  0  0  0  0  0  0
   10.9563   44.5841  130.0928 C   0  0  0  0  0  0  0  0  0  0  0  0
   11.5081   44.4263  131.4707 C   0  0  0  0  0  0  0  0  0  0  0  0
   12.5668   45.4661  131.7746 C   0  0  0  0  0  0  0  0  0  0  0  0
   12.6898   45.5513  133.2820 C   0  0  0  0  0  0  0  0  0  0  0  0
   12.6201   44.1825  133.9216 C   0  0  0  0  0  0  0  0  0  0  0  0
   12.9883   43.0881  132.9427 C   0  0  0  0  0  0  0  0  0  0  0  0
   12.0902   43.0719  131.7299 C   0  0  0  0  0  0  0  0  0  0  0  0
  1  2  1  0  0  0
  2  3  2  0  0  0
  3  4  1  0  0  0
  4  5  2  0  0  0
  5  6  1  0  0  0
  6  7  1  0  0  0
  7  8  1  0  0  0
  8 28  1  0  0  0
 28 29  1  0  0  0
 29 30  1  0  0  0
 30 31  1  0  0  0
 31 32  1  0  0  0
 32 33  1  0  0  0
 33 34  1  0  0  0
  8  9  1  0  0  0
  9 10  1  0  0  0
 10 11  2  0  0  0
  7 13  1  0  0  0
 13 14  2  0  0  0
 14 15  1  0  0  0
 15 16  2  0  0  0
 16 19  1  0  0  0
 19 20  1  0  0  0
 20 21  1  0  0  0
 21 22  1  0  0  0
 22 23  1  0  0  0
 23 24  1  0  0  0
 24 25  1  0  0  0
 25 26  1  0  0  0
 26 27  1  0  0  0
 16 17  1  0  0  0
 17 18  2  0  0  0
 11  2  1  0  0  0
 18 13  1  0  0  0
 10  5  1  0  0  0
 27 22  1  0  0  0
 34 29  1  0  0  0
  1 12  1  0  0  0
M  END
> <minimizedAffinity>
9.47933

> <CNNscore>
0.3422097266

> <CNNaffinity>
7.8739395142

> <CNN_VS>
2.6945385933

> <CNNaffinity_variance>
0.5524370074

$$$$
[H]Oc1c([H])c([H])c2c(c1[H])C([H])([H])C([H])([H])C([H])([H])C(c1c([H])c([H])c(OC([H])([H])C([H])([H])F)c([H])c1[H])=C2c1c([H])c([H])c(O[C@]2([H])C([H])([H])N(C([H])([H])C([H])([H])C([H])([H])F)C([H])([H])C2([H])[H])c([H])c1[H]


 39 43  0  0  0  0  0  0  0  0999 V2000
   10.9106   39.4659  130.6605 O   0  0  0  0  0  0  0  0  0  0  0  0
   10.7119   40.7872  131.1033 C   0  0  0  0  0  0  0  0  0  0  0  0
   10.3246   41.7027  130.1463 C   0  0  0  0  0  0  0  0  0  0  0  0
   10.1128   43.0213  130.5149 C   0  0  0  0  0  0  0  0  0  0  0  0
   10.3062   43.3534  131.8539 C   0  0  0  0  0  0  0  0  0  0  0  0
   10.6915   42.4351  132.8030 C   0  0  0  0  0  0  0  0  0  0  0  0
   10.8883   42.7184  134.2425 C   0  0  0  0  0  0  0  0  0  0  0  0
   11.6797   43.8840  134.6183 C   0  0  0  0  0  0  0  0  0  0  0  0
   11.8793   45.0434  133.7790 C   0  0  0  0  0  0  0  0  0  0  0  0
   10.7439   45.5303  132.9254 C   0  0  0  0  0  0  0  0  0  0  0  0
   10.0401   44.8160  132.0717 C   0  0  0  0  0  0  0  0  0  0  0  0
   10.8985   41.1301  132.4226 C   0  0  0  0  0  0  0  0  0  0  0  0
   11.1907   38.7865  131.3313 H   0  0  0  0  0  0  0  0  0  0  0  0
   10.3610   46.9170  133.1333 C   0  0  0  0  0  0  0  0  0  0  0  0
    9.1353   47.2594  133.6839 C   0  0  0  0  0  0  0  0  0  0  0  0
    8.7517   48.5895  133.8104 C   0  0  0  0  0  0  0  0  0  0  0  0
    9.5992   49.5868  133.3831 C   0  0  0  0  0  0  0  0  0  0  0  0
   10.8368   49.2313  132.8278 C   0  0  0  0  0  0  0  0  0  0  0  0
   11.1792   47.9241  132.7191 C   0  0  0  0  0  0  0  0  0  0  0  0
    9.3449   50.9168  133.4460 O   0  0  0  0  0  0  0  0  0  0  0  0
   10.0269   52.0239  133.8503 C   0  0  0  0  0  0  0  0  0  0  0  0
    9.1827   53.1399  134.3606 C   0  0  0  0  0  0  0  0  0  0  0  0
    8.7254   52.8966  135.6496 F   0  0  0  0  0  0  0  0  0  0  0  0
    9.0082   45.3586  131.2038 C   0  0  0  0  0  0  0  0  0  0  0  0
    7.6977   45.4970  131.5691 C   0  0  0  0  0  0  0  0  0  0  0  0
    6.7515   46.0158  130.7094 C   0  0  0  0  0  0  0  0  0  0  0  0
    7.1142   46.4211  129.4200 C   0  0  0  0  0  0  0  0  0  0  0  0
    8.4267   46.2938  129.0259 C   0  0  0  0  0  0  0  0  0  0  0  0
    9.3425   45.7757  129.9006 C   0  0  0  0  0  0  0  0  0  0  0  0
    6.0924   46.9220  128.6470 O   0  0  0  0  0  0  0  0  0  0  0  0
    5.7767   48.2664  128.5100 C   0  0  0  0  0  0  0  0  0  0  0  0
    5.0743   48.7911  129.7796 C   0  0  0  0  0  0  0  0  0  0  0  0
    5.2754   50.2877  129.5795 C   0  0  0  0  0  0  0  0  0  0  0  0
    6.5721   50.4230  129.0299 N   0  0  0  0  0  0  0  0  0  0  0  0
    7.0351   49.1527  128.5729 C   0  0  0  0  0  0  0  0  0  0  0  0
    7.5020   51.2556  129.6855 C   0  0  0  0  0  0  0  0  0  0  0  0
    8.3233   50.6118  130.7676 C   0  0  0  0  0  0  0  0  0  0  0  0
    9.0152   49.4070  130.1687 C   0  0  0  0  0  0  0  0  0  0  0  0
   10.3499   49.7520  129.9697 F   0  0  0  0  0  0  0  0  0  0  0  0
  1  2  1  0  0  0
  2  3  2  0  0  0
  3  4  1  0  0  0
  4  5  2  0  0  0
  5  6  1  0  0  0
  6  7  1  0  0  0
  7  8  1  0  0  0
  8  9  1  0  0  0
  9 10  1  0  0  0
 10 14  1  0  0  0
 14 15  2  0  0  0
 15 16  1  0  0  0
 16 17  2  0  0  0
 17 20  1  0  0  0
 20 21  1  0  0  0
 21 22  1  0  0  0
 22 23  1  0  0  0
 17 18  1  0  0  0
 18 19  2  0  0  0
 10 11  2  0  0  0
 11 24  1  0  0  0
 24 25  2  0  0  0
 25 26  1  0  0  0
 26 27  2  0  0  0
 27 30  1  0  0  0
 30 31  1  0  0  0
 31 32  1  0  0  0
 32 33  1  0  0  0
 33 34  1  0  0  0
 34 36  1  0  0  0
 36 37  1  0  0  0
 37 38  1  0  0  0
 38 39  1  0  0  0
 34 35  1  0  0  0
 27 28  1  0  0  0
 28 29  2  0  0  0
  6 12  2  0  0  0
 12  2  1  0  0  0
 11  5  1  0  0  0
 29 24  1  0  0  0
 19 14  1  0  0  0
 35 31  1  0  0  0
  1 13  1  0  0  0
M  END
> <minimizedAffinity>
9.68381

> <CNNscore>
0.4470662177

> <CNNaffinity>
7.9795660973

> <CNN_VS>
3.5673944950

> <CNNaffinity_variance>
0.4679556489

$$$$
[H]Oc1c([H])c([H])c2c(c1[H])C([H])([H])C([H])([H])C([H])([H])C(c1c([H])c([H])c(OC([H])([H])C([H])([H])F)c([H])c1[H])=C2c1c([H])c([H])c(O[C@]2([H])C([H])([H])N(C([H])([H])C([H])([H])C([H])([H])F)C([H])([H])C2([H])[H])c([H])c1[H]


 39 43  0  0  0  0  0  0  0  0999 V2000
   10.9243   39.5566  130.9394 O   0  0  0  0  0  0  0  0  0  0  0  0
   10.7937   40.9269  131.2335 C   0  0  0  0  0  0  0  0  0  0  0  0
   10.3185   41.7295  130.2166 C   0  0  0  0  0  0  0  0  0  0  0  0
   10.1669   43.0885  130.4392 C   0  0  0  0  0  0  0  0  0  0  0  0
   10.5086   43.5756  131.6987 C   0  0  0  0  0  0  0  0  0  0  0  0
   10.9810   42.7694  132.7084 C   0  0  0  0  0  0  0  0  0  0  0  0
   11.3362   43.2202  134.0728 C   0  0  0  0  0  0  0  0  0  0  0  0
   12.1803   44.4005  134.2156 C   0  0  0  0  0  0  0  0  0  0  0  0
   12.3048   45.4432  133.2227 C   0  0  0  0  0  0  0  0  0  0  0  0
   11.0909   45.8539  132.4399 C   0  0  0  0  0  0  0  0  0  0  0  0
   10.2887   45.0606  131.7604 C   0  0  0  0  0  0  0  0  0  0  0  0
   11.1267   41.4225  132.4730 C   0  0  0  0  0  0  0  0  0  0  0  0
   11.2655   38.9564  131.6560 H   0  0  0  0  0  0  0  0  0  0  0  0
   10.7528   47.2655  132.5135 C   0  0  0  0  0  0  0  0  0  0  0  0
   10.4004   47.8686  133.7115 C   0  0  0  0  0  0  0  0  0  0  0  0
   10.0092   49.2017  133.7562 C   0  0  0  0  0  0  0  0  0  0  0  0
    9.9690   49.9395  132.5946 C   0  0  0  0  0  0  0  0  0  0  0  0
   10.3271   49.3216  131.3878 C   0  0  0  0  0  0  0  0  0  0  0  0
   10.7036   48.0193  131.3801 C   0  0  0  0  0  0  0  0  0  0  0  0
    9.6033   51.2414  132.5009 O   0  0  0  0  0  0  0  0  0  0  0  0
    8.9349   52.1277  133.2897 C   0  0  0  0  0  0  0  0  0  0  0  0
    9.7566   52.7879  134.3421 C   0  0  0  0  0  0  0  0  0  0  0  0
    8.9743   53.2726  135.3828 F   0  0  0  0  0  0  0  0  0  0  0  0
    9.1770   45.5219  130.9456 C   0  0  0  0  0  0  0  0  0  0  0  0
    9.2969   45.9133  129.6408 C   0  0  0  0  0  0  0  0  0  0  0  0
    8.2123   46.3468  128.9065 C   0  0  0  0  0  0  0  0  0  0  0  0
    6.9399   46.3976  129.4871 C   0  0  0  0  0  0  0  0  0  0  0  0
    6.7901   46.0087  130.7988 C   0  0  0  0  0  0  0  0  0  0  0  0
    7.8843   45.5835  131.5018 C   0  0  0  0  0  0  0  0  0  0  0  0
    5.9314   46.8459  128.6660 O   0  0  0  0  0  0  0  0  0  0  0  0
    5.5831   48.1760  128.4781 C   0  0  0  0  0  0  0  0  0  0  0  0
    4.9403   48.7543  129.7560 C   0  0  0  0  0  0  0  0  0  0  0  0
    5.1015   50.2416  129.4690 C   0  0  0  0  0  0  0  0  0  0  0  0
    6.3638   50.3694  128.8430 N   0  0  0  0  0  0  0  0  0  0  0  0
    6.8258   49.0848  128.4267 C   0  0  0  0  0  0  0  0  0  0  0  0
    7.3116   51.2501  129.4033 C   0  0  0  0  0  0  0  0  0  0  0  0
    7.1625   52.7025  129.0455 C   0  0  0  0  0  0  0  0  0  0  0  0
    7.1516   52.8086  127.5362 C   0  0  0  0  0  0  0  0  0  0  0  0
    7.5704   54.0959  127.2083 F   0  0  0  0  0  0  0  0  0  0  0  0
  1  2  1  0  0  0
  2  3  2  0  0  0
  3  4  1  0  0  0
  4  5  2  0  0  0
  5  6  1  0  0  0
  6  7  1  0  0  0
  7  8  1  0  0  0
  8  9  1  0  0  0
  9 10  1  0  0  0
 10 14  1  0  0  0
 14 15  2  0  0  0
 15 16  1  0  0  0
 16 17  2  0  0  0
 17 20  1  0  0  0
 20 21  1  0  0  0
 21 22  1  0  0  0
 22 23  1  0  0  0
 17 18  1  0  0  0
 18 19  2  0  0  0
 10 11  2  0  0  0
 11 24  1  0  0  0
 24 25  2  0  0  0
 25 26  1  0  0  0
 26 27  2  0  0  0
 27 30  1  0  0  0
 30 31  1  0  0  0
 31 32  1  0  0  0
 32 33  1  0  0  0
 33 34  1  0  0  0
 34 36  1  0  0  0
 36 37  1  0  0  0
 37 38  1  0  0  0
 38 39  1  0  0  0
 34 35  1  0  0  0
 27 28  1  0  0  0
 28 29  2  0  0  0
  6 12  2  0  0  0
 12  2  1  0  0  0
 11  5  1  0  0  0
 29 24  1  0  0  0
 19 14  1  0  0  0
 35 31  1  0  0  0
  1 13  1  0  0  0
M  END
> <minimizedAffinity>
10.26287

> <CNNscore>
0.4069892168

> <CNNaffinity>
7.8755784035

> <CNN_VS>
3.2052755356

> <CNNaffinity_variance>
0.7878191471

$$$$
[H]Oc1c([H])c([H])c2c(c1[H])C([H])([H])C([H])([H])C([H])([H])C(c1c([H])c([H])c(OC([H])([H])C([H])([H])F)c([H])c1[H])=C2c1c([H])c([H])c(O[C@]2([H])C([H])([H])N(C([H])([H])C([H])([H])C([H])([H])F)C([H])([H])C2([H])[H])c([H])c1[H]


 39 43  0  0  0  0  0  0  0  0999 V2000
   15.2029   43.3583  128.5088 O   0  0  0  0  0  0  0  0  0  0  0  0
   14.2391   43.8740  129.3956 C   0  0  0  0  0  0  0  0  0  0  0  0
   13.8021   45.1589  129.1463 C   0  0  0  0  0  0  0  0  0  0  0  0
   12.8544   45.7275  129.9817 C   0  0  0  0  0  0  0  0  0  0  0  0
   12.3886   44.9562  131.0441 C   0  0  0  0  0  0  0  0  0  0  0  0
   12.8280   43.6753  131.2862 C   0  0  0  0  0  0  0  0  0  0  0  0
   12.3548   42.7968  132.3796 C   0  0  0  0  0  0  0  0  0  0  0  0
   12.2823   43.3460  133.7284 C   0  0  0  0  0  0  0  0  0  0  0  0
   12.1535   44.7525  134.0341 C   0  0  0  0  0  0  0  0  0  0  0  0
   11.2955   45.6149  133.1536 C   0  0  0  0  0  0  0  0  0  0  0  0
   11.3774   45.7276  131.8441 C   0  0  0  0  0  0  0  0  0  0  0  0
   13.7692   43.1240  130.4489 C   0  0  0  0  0  0  0  0  0  0  0  0
   15.5348   42.4337  128.6672 H   0  0  0  0  0  0  0  0  0  0  0  0
   10.2321   46.3340  133.8352 C   0  0  0  0  0  0  0  0  0  0  0  0
   10.3118   47.6976  134.0741 C   0  0  0  0  0  0  0  0  0  0  0  0
    9.3217   48.3599  134.7906 C   0  0  0  0  0  0  0  0  0  0  0  0
    8.2425   47.6546  135.2735 C   0  0  0  0  0  0  0  0  0  0  0  0
    8.1701   46.2760  135.0271 C   0  0  0  0  0  0  0  0  0  0  0  0
    9.1535   45.6616  134.3248 C   0  0  0  0  0  0  0  0  0  0  0  0
    7.2155   48.1776  135.9870 O   0  0  0  0  0  0  0  0  0  0  0  0
    7.0613   48.7104  137.2307 C   0  0  0  0  0  0  0  0  0  0  0  0
    8.3160   49.1812  137.8809 C   0  0  0  0  0  0  0  0  0  0  0  0
    8.1279   50.3737  138.5682 F   0  0  0  0  0  0  0  0  0  0  0  0
   10.5795   46.6461  131.0489 C   0  0  0  0  0  0  0  0  0  0  0  0
   10.6235   48.0066  131.1798 C   0  0  0  0  0  0  0  0  0  0  0  0
    9.8447   48.8398  130.4035 C   0  0  0  0  0  0  0  0  0  0  0  0
    8.9754   48.3058  129.4455 C   0  0  0  0  0  0  0  0  0  0  0  0
    8.9114   46.9396  129.2919 C   0  0  0  0  0  0  0  0  0  0  0  0
    9.6958   46.1387  130.0764 C   0  0  0  0  0  0  0  0  0  0  0  0
    8.2460   49.2260  128.7289 O   0  0  0  0  0  0  0  0  0  0  0  0
    6.8666   49.2121  128.5776 C   0  0  0  0  0  0  0  0  0  0  0  0
    6.4395   48.1004  127.5965 C   0  0  0  0  0  0  0  0  0  0  0  0
    4.9671   47.9858  127.9700 C   0  0  0  0  0  0  0  0  0  0  0  0
    4.9216   48.1466  129.3749 N   0  0  0  0  0  0  0  0  0  0  0  0
    6.1641   48.6741  129.8385 C   0  0  0  0  0  0  0  0  0  0  0  0
    4.3130   47.1401  130.1524 C   0  0  0  0  0  0  0  0  0  0  0  0
    3.3317   46.2518  129.4397 C   0  0  0  0  0  0  0  0  0  0  0  0
    2.0145   46.3296  130.1799 C   0  0  0  0  0  0  0  0  0  0  0  0
    1.3548   45.1192  129.9801 F   0  0  0  0  0  0  0  0  0  0  0  0
  1  2  1  0  0  0
  2  3  2  0  0  0
  3  4  1  0  0  0
  4  5  2  0  0  0
  5  6  1  0  0  0
  6  7  1  0  0  0
  7  8  1  0  0  0
  8  9  1  0  0  0
  9 10  1  0  0  0
 10 14  1  0  0  0
 14 15  2  0  0  0
 15 16  1  0  0  0
 16 17  2  0  0  0
 17 20  1  0  0  0
 20 21  1  0  0  0
 21 22  1  0  0  0
 22 23  1  0  0  0
 17 18  1  0  0  0
 18 19  2  0  0  0
 10 11  2  0  0  0
 11 24  1  0  0  0
 24 25  2  0  0  0
 25 26  1  0  0  0
 26 27  2  0  0  0
 27 30  1  0  0  0
 30 31  1  0  0  0
 31 32  1  0  0  0
 32 33  1  0  0  0
 33 34  1  0  0  0
 34 36  1  0  0  0
 36 37  1  0  0  0
 37 38  1  0  0  0
 38 39  1  0  0  0
 34 35  1  0  0  0
 27 28  1  0  0  0
 28 29  2  0  0  0
  6 12  2  0  0  0
 12  2  1  0  0  0
 11  5  1  0  0  0
 29 24  1  0  0  0
 19 14  1  0  0  0
 35 31  1  0  0  0
  1 13  1  0  0  0
M  END
> <minimizedAffinity>
20.56217

> <CNNscore>
0.3791407049

> <CNNaffinity>
7.7655434608

> <CNN_VS>
2.9442336559

> <CNNaffinity_variance>
1.2888438702

$$$$
[H]Oc1c([H])c([H])c2c(c1[H])C([H])([H])C([H])([H])C([H])([H])C(c1c([H])c([H])c(OC([H])([H])C([H])([H])F)c([H])c1[H])=C2c1c([H])c([H])c(O[C@]2([H])C([H])([H])N(C([H])([H])C([H])([H])C([H])([H])F)C([H])([H])C2([H])[H])c([H])c1[H]


 39 43  0  0  0  0  0  0  0  0999 V2000
    9.2485   42.6318  126.8192 O   0  0  0  0  0  0  0  0  0  0  0  0
    9.6205   43.2603  128.0225 C   0  0  0  0  0  0  0  0  0  0  0  0
    9.8216   44.6241  127.9650 C   0  0  0  0  0  0  0  0  0  0  0  0
   10.1904   45.3048  129.1139 C   0  0  0  0  0  0  0  0  0  0  0  0
   10.3396   44.5606  130.2820 C   0  0  0  0  0  0  0  0  0  0  0  0
   10.1365   43.2009  130.3324 C   0  0  0  0  0  0  0  0  0  0  0  0
   10.2533   42.3590  131.5443 C   0  0  0  0  0  0  0  0  0  0  0  0
   11.4341   42.5144  132.3856 C   0  0  0  0  0  0  0  0  0  0  0  0
   12.2480   43.7072  132.4423 C   0  0  0  0  0  0  0  0  0  0  0  0
   11.5815   45.0501  132.3549 C   0  0  0  0  0  0  0  0  0  0  0  0
   10.7458   45.4532  131.4203 C   0  0  0  0  0  0  0  0  0  0  0  0
    9.7712   42.5385  129.1841 C   0  0  0  0  0  0  0  0  0  0  0  0
    9.0980   41.6483  126.8341 H   0  0  0  0  0  0  0  0  0  0  0  0
   11.8516   45.9506  133.4634 C   0  0  0  0  0  0  0  0  0  0  0  0
   10.8298   46.5978  134.1416 C   0  0  0  0  0  0  0  0  0  0  0  0
   11.1053   47.5119  135.1519 C   0  0  0  0  0  0  0  0  0  0  0  0
   12.4125   47.7826  135.4882 C   0  0  0  0  0  0  0  0  0  0  0  0
   13.4394   47.1233  134.7973 C   0  0  0  0  0  0  0  0  0  0  0  0
   13.1352   46.2378  133.8169 C   0  0  0  0  0  0  0  0  0  0  0  0
   12.8150   48.6516  136.4475 O   0  0  0  0  0  0  0  0  0  0  0  0
   13.9944   49.2259  136.8130 C   0  0  0  0  0  0  0  0  0  0  0  0
   14.8692   48.3866  137.6785 C   0  0  0  0  0  0  0  0  0  0  0  0
   15.6447   47.5068  136.9339 F   0  0  0  0  0  0  0  0  0  0  0  0
   10.1977   46.7967  131.3348 C   0  0  0  0  0  0  0  0  0  0  0  0
    9.0119   47.1754  131.9008 C   0  0  0  0  0  0  0  0  0  0  0  0
    8.5296   48.4633  131.7911 C   0  0  0  0  0  0  0  0  0  0  0  0
    9.2535   49.4320  131.0867 C   0  0  0  0  0  0  0  0  0  0  0  0
   10.4509   49.0786  130.5074 C   0  0  0  0  0  0  0  0  0  0  0  0
   10.9035   47.7935  130.6331 C   0  0  0  0  0  0  0  0  0  0  0  0
    8.6803   50.6817  131.0391 O   0  0  0  0  0  0  0  0  0  0  0  0
    7.4679   50.9843  130.4356 C   0  0  0  0  0  0  0  0  0  0  0  0
    7.5535   50.7728  128.9096 C   0  0  0  0  0  0  0  0  0  0  0  0
    6.0680   50.6962  128.5813 C   0  0  0  0  0  0  0  0  0  0  0  0
    5.4817   49.9849  129.6546 N   0  0  0  0  0  0  0  0  0  0  0  0
    6.3996   49.9186  130.7454 C   0  0  0  0  0  0  0  0  0  0  0  0
    4.7281   48.8280  129.3689 C   0  0  0  0  0  0  0  0  0  0  0  0
    5.4595   47.7129  128.6748 C   0  0  0  0  0  0  0  0  0  0  0  0
    6.0632   46.8225  129.7388 C   0  0  0  0  0  0  0  0  0  0  0  0
    7.3426   46.4754  129.3115 F   0  0  0  0  0  0  0  0  0  0  0  0
  1  2  1  0  0  0
  2  3  2  0  0  0
  3  4  1  0  0  0
  4  5  2  0  0  0
  5  6  1  0  0  0
  6  7  1  0  0  0
  7  8  1  0  0  0
  8  9  1  0  0  0
  9 10  1  0  0  0
 10 14  1  0  0  0
 14 15  2  0  0  0
 15 16  1  0  0  0
 16 17  2  0  0  0
 17 20  1  0  0  0
 20 21  1  0  0  0
 21 22  1  0  0  0
 22 23  1  0  0  0
 17 18  1  0  0  0
 18 19  2  0  0  0
 10 11  2  0  0  0
 11 24  1  0  0  0
 24 25  2  0  0  0
 25 26  1  0  0  0
 26 27  2  0  0  0
 27 30  1  0  0  0
 30 31  1  0  0  0
 31 32  1  0  0  0
 32 33  1  0  0  0
 33 34  1  0  0  0
 34 36  1  0  0  0
 36 37  1  0  0  0
 37 38  1  0  0  0
 38 39  1  0  0  0
 34 35  1  0  0  0
 27 28  1  0  0  0
 28 29  2  0  0  0
  6 12  2  0  0  0
 12  2  1  0  0  0
 11  5  1  0  0  0
 29 24  1  0  0  0
 19 14  1  0  0  0
 35 31  1  0  0  0
  1 13  1  0  0  0
M  END
> <minimizedAffinity>
7.67094

> <CNNscore>
0.3726001680

> <CNNaffinity>
8.2188253403

> <CNN_VS>
3.0623357296

> <CNNaffinity_variance>
0.7877508402

$$$$
[H]Oc1c([H])c([H])c2c(c1[H])C([H])([H])C([H])([H])C([H])([H])C(c1c([H])c([H])c(OC([H])([H])C([H])([H])F)c([H])c1[H])=C2c1c([H])c([H])c(O[C@]2([H])C([H])([H])N(C([H])([H])C([H])([H])C([H])([H])F)C([H])([H])C2([H])[H])c([H])c1[H]


 39 43  0  0  0  0  0  0  0  0999 V2000
   14.1437   49.4131  137.5933 O   0  0  0  0  0  0  0  0  0  0  0  0
   13.5043   48.6736  136.5805 C   0  0  0  0  0  0  0  0  0  0  0  0
   12.2643   49.1275  136.1801 C   0  0  0  0  0  0  0  0  0  0  0  0
   11.5797   48.4450  135.1877 C   0  0  0  0  0  0  0  0  0  0  0  0
   12.1930   47.3199  134.6411 C   0  0  0  0  0  0  0  0  0  0  0  0
   13.4301   46.8736  135.0445 C   0  0  0  0  0  0  0  0  0  0  0  0
   14.1451   45.7035  134.4868 C   0  0  0  0  0  0  0  0  0  0  0  0
   13.4132   44.4519  134.3333 C   0  0  0  0  0  0  0  0  0  0  0  0
   11.9771   44.3534  134.2054 C   0  0  0  0  0  0  0  0  0  0  0  0
   11.2409   45.4009  133.4206 C   0  0  0  0  0  0  0  0  0  0  0  0
   11.3121   46.7048  133.5908 C   0  0  0  0  0  0  0  0  0  0  0  0
   14.0978   47.5607  136.0308 C   0  0  0  0  0  0  0  0  0  0  0  0
   15.0391   49.1060  137.9002 H   0  0  0  0  0  0  0  0  0  0  0  0
   10.4281   44.8990  132.3251 C   0  0  0  0  0  0  0  0  0  0  0  0
    9.4346   43.9534  132.5291 C   0  0  0  0  0  0  0  0  0  0  0  0
    8.7136   43.4284  131.4629 C   0  0  0  0  0  0  0  0  0  0  0  0
    8.9871   43.8507  130.1815 C   0  0  0  0  0  0  0  0  0  0  0  0
    9.9933   44.8073  129.9845 C   0  0  0  0  0  0  0  0  0  0  0  0
   10.6774   45.2984  131.0470 C   0  0  0  0  0  0  0  0  0  0  0  0
    8.3625   43.4169  129.0593 O   0  0  0  0  0  0  0  0  0  0  0  0
    8.6574   43.3769  127.7304 C   0  0  0  0  0  0  0  0  0  0  0  0
   10.0761   43.0628  127.4030 C   0  0  0  0  0  0  0  0  0  0  0  0
   10.8927   44.1816  127.5093 F   0  0  0  0  0  0  0  0  0  0  0  0
   10.5089   47.6718  132.8610 C   0  0  0  0  0  0  0  0  0  0  0  0
    9.2289   48.0130  133.2004 C   0  0  0  0  0  0  0  0  0  0  0  0
    8.5032   48.9356  132.4754 C   0  0  0  0  0  0  0  0  0  0  0  0
    9.0675   49.5571  131.3557 C   0  0  0  0  0  0  0  0  0  0  0  0
   10.3546   49.2331  130.9917 C   0  0  0  0  0  0  0  0  0  0  0  0
   11.0495   48.3144  131.7301 C   0  0  0  0  0  0  0  0  0  0  0  0
    8.2560   50.4586  130.7066 O   0  0  0  0  0  0  0  0  0  0  0  0
    7.5002   50.1859  129.5752 C   0  0  0  0  0  0  0  0  0  0  0  0
    8.1548   49.0638  128.7427 C   0  0  0  0  0  0  0  0  0  0  0  0
    6.9595   48.6478  127.8951 C   0  0  0  0  0  0  0  0  0  0  0  0
    5.8410   48.7253  128.7580 N   0  0  0  0  0  0  0  0  0  0  0  0
    6.1896   49.4590  129.9315 C   0  0  0  0  0  0  0  0  0  0  0  0
    5.0326   47.5821  128.9232 C   0  0  0  0  0  0  0  0  0  0  0  0
    5.2828   46.7640  130.1593 C   0  0  0  0  0  0  0  0  0  0  0  0
    6.6685   46.1671  130.0467 C   0  0  0  0  0  0  0  0  0  0  0  0
    7.3539   46.4871  131.2163 F   0  0  0  0  0  0  0  0  0  0  0  0
  1  2  1  0  0  0
  2  3  2  0  0  0
  3  4  1  0  0  0
  4  5  2  0  0  0
  5  6  1  0  0  0
  6  7  1  0  0  0
  7  8  1  0  0  0
  8  9  1  0  0  0
  9 10  1  0  0  0
 10 14  1  0  0  0
 14 15  2  0  0  0
 15 16  1  0  0  0
 16 17  2  0  0  0
 17 20  1  0  0  0
 20 21  1  0  0  0
 21 22  1  0  0  0
 22 23  1  0  0  0
 17 18  1  0  0  0
 18 19  2  0  0  0
 10 11  2  0  0  0
 11 24  1  0  0  0
 24 25  2  0  0  0
 25 26  1  0  0  0
 26 27  2  0  0  0
 27 30  1  0  0  0
 30 31  1  0  0  0
 31 32  1  0  0  0
 32 33  1  0  0  0
 33 34  1  0  0  0
 34 36  1  0  0  0
 36 37  1  0  0  0
 37 38  1  0  0  0
 38 39  1  0  0  0
 34 35  1  0  0  0
 27 28  1  0  0  0
 28 29  2  0  0  0
  6 12  2  0  0  0
 12  2  1  0  0  0
 11  5  1  0  0  0
 29 24  1  0  0  0
 19 14  1  0  0  0
 35 31  1  0  0  0
  1 13  1  0  0  0
M  END
> <minimizedAffinity>
11.54704

> <CNNscore>
0.3708037138

> <CNNaffinity>
7.8891611099

> <CNN_VS>
2.9253301620

> <CNNaffinity_variance>
0.3074200749

$$$$
[H]Oc1c([H])c([H])c2c(c1[H])C([H])([H])C([H])([H])C([H])([H])C(c1c([H])c([H])c(OC([H])([H])C([H])([H])F)c([H])c1[H])=C2c1c([H])c([H])c(O[C@]2([H])C([H])([H])N(C([H])([H])C([H])([H])C([H])([H])F)C([H])([H])C2([H])[H])c([H])c1[H]


 39 43  0  0  0  0  0  0  0  0999 V2000
    4.0821   47.8912  127.1229 O   0  0  0  0  0  0  0  0  0  0  0  0
    5.0993   47.9597  128.0934 C   0  0  0  0  0  0  0  0  0  0  0  0
    5.0519   47.0158  129.0987 C   0  0  0  0  0  0  0  0  0  0  0  0
    6.0229   47.0274  130.0869 C   0  0  0  0  0  0  0  0  0  0  0  0
    7.0088   48.0083  130.0078 C   0  0  0  0  0  0  0  0  0  0  0  0
    7.0505   48.9459  129.0020 C   0  0  0  0  0  0  0  0  0  0  0  0
    8.0832   49.9951  128.8477 C   0  0  0  0  0  0  0  0  0  0  0  0
    8.4397   50.7944  130.0139 C   0  0  0  0  0  0  0  0  0  0  0  0
    8.2632   50.3685  131.3835 C   0  0  0  0  0  0  0  0  0  0  0  0
    8.5056   48.9293  131.7370 C   0  0  0  0  0  0  0  0  0  0  0  0
    7.9685   47.8764  131.1562 C   0  0  0  0  0  0  0  0  0  0  0  0
    6.0800   48.9225  128.0282 C   0  0  0  0  0  0  0  0  0  0  0  0
    4.0935   48.5613  126.3874 H   0  0  0  0  0  0  0  0  0  0  0  0
    9.4881   48.7041  132.7841 C   0  0  0  0  0  0  0  0  0  0  0  0
    9.4145   47.6062  133.6281 C   0  0  0  0  0  0  0  0  0  0  0  0
   10.3181   47.4410  134.6713 C   0  0  0  0  0  0  0  0  0  0  0  0
   11.3040   48.3802  134.8742 C   0  0  0  0  0  0  0  0  0  0  0  0
   11.3711   49.4871  134.0159 C   0  0  0  0  0  0  0  0  0  0  0  0
   10.4734   49.6174  133.0083 C   0  0  0  0  0  0  0  0  0  0  0  0
   12.2410   48.3395  135.8530 O   0  0  0  0  0  0  0  0  0  0  0  0
   13.2661   49.1391  136.2581 C   0  0  0  0  0  0  0  0  0  0  0  0
   14.4586   48.4232  136.7912 C   0  0  0  0  0  0  0  0  0  0  0  0
   14.6365   48.6524  138.1497 F   0  0  0  0  0  0  0  0  0  0  0  0
    8.1692   46.5058  131.5967 C   0  0  0  0  0  0  0  0  0  0  0  0
    8.8919   45.5775  130.8997 C   0  0  0  0  0  0  0  0  0  0  0  0
    9.0534   44.2857  131.3564 C   0  0  0  0  0  0  0  0  0  0  0  0
    8.4728   43.8851  132.5651 C   0  0  0  0  0  0  0  0  0  0  0  0
    7.7405   44.7993  133.2878 C   0  0  0  0  0  0  0  0  0  0  0  0
    7.5977   46.0732  132.8093 C   0  0  0  0  0  0  0  0  0  0  0  0
    8.6960   42.5761  132.9245 O   0  0  0  0  0  0  0  0  0  0  0  0
    9.9434   41.9799  133.0439 C   0  0  0  0  0  0  0  0  0  0  0  0
   10.4437   41.4881  131.6697 C   0  0  0  0  0  0  0  0  0  0  0  0
   11.9280   41.3414  131.9788 C   0  0  0  0  0  0  0  0  0  0  0  0
   12.2461   42.4309  132.8234 N   0  0  0  0  0  0  0  0  0  0  0  0
   11.0448   43.0213  133.3188 C   0  0  0  0  0  0  0  0  0  0  0  0
   13.2883   43.3010  132.4431 C   0  0  0  0  0  0  0  0  0  0  0  0
   12.9759   44.2682  131.3354 C   0  0  0  0  0  0  0  0  0  0  0  0
   12.5387   45.5711  131.9682 C   0  0  0  0  0  0  0  0  0  0  0  0
   12.7080   45.4407  133.3445 F   0  0  0  0  0  0  0  0  0  0  0  0
  1  2  1  0  0  0
  2  3  2  0  0  0
  3  4  1  0  0  0
  4  5  2  0  0  0
  5  6  1  0  0  0
  6  7  1  0  0  0
  7  8  1  0  0  0
  8  9  1  0  0  0
  9 10  1  0  0  0
 10 14  1  0  0  0
 14 15  2  0  0  0
 15 16  1  0  0  0
 16 17  2  0  0  0
 17 20  1  0  0  0
 20 21  1  0  0  0
 21 22  1  0  0  0
 22 23  1  0  0  0
 17 18  1  0  0  0
 18 19  2  0  0  0
 10 11  2  0  0  0
 11 24  1  0  0  0
 24 25  2  0  0  0
 25 26  1  0  0  0
 26 27  2  0  0  0
 27 30  1  0  0  0
 30 31  1  0  0  0
 31 32  1  0  0  0
 32 33  1  0  0  0
 33 34  1  0  0  0
 34 36  1  0  0  0
 36 37  1  0  0  0
 37 38  1  0  0  0
 38 39  1  0  0  0
 34 35  1  0  0  0
 27 28  1  0  0  0
 28 29  2  0  0  0
  6 12  2  0  0  0
 12  2  1  0  0  0
 11  5  1  0  0  0
 29 24  1  0  0  0
 19 14  1  0  0  0
 35 31  1  0  0  0
  1 13  1  0  0  0
M  END
> <minimizedAffinity>
13.57187

> <CNNscore>
0.3489580154

> <CNNaffinity>
7.7416739464

> <CNN_VS>
2.7015192509

> <CNNaffinity_variance>
1.2303801775

$$$$
[H]Oc1c([H])c([H])c2c(c1[H])C([H])([H])C([H])([H])C([H])([H])C(c1c([H])c([H])c(OC([H])([H])C([H])([H])F)c([H])c1[H])=C2c1c([H])c([H])c(O[C@]2([H])C([H])([H])N(C([H])([H])C([H])([H])C([H])([H])F)C([H])([H])C2([H])[H])c([H])c1[H]


 39 43  0  0  0  0  0  0  0  0999 V2000
    3.4045   50.3696  128.0157 O   0  0  0  0  0  0  0  0  0  0  0  0
    4.5634   49.9580  128.7005 C   0  0  0  0  0  0  0  0  0  0  0  0
    4.5923   48.6445  129.1220 C   0  0  0  0  0  0  0  0  0  0  0  0
    5.7035   48.1746  129.8030 C   0  0  0  0  0  0  0  0  0  0  0  0
    6.7465   49.0705  130.0271 C   0  0  0  0  0  0  0  0  0  0  0  0
    6.7113   50.3787  129.6030 C   0  0  0  0  0  0  0  0  0  0  0  0
    7.7945   51.3708  129.7866 C   0  0  0  0  0  0  0  0  0  0  0  0
    8.3977   51.5027  131.1075 C   0  0  0  0  0  0  0  0  0  0  0  0
    8.4019   50.4649  132.1132 C   0  0  0  0  0  0  0  0  0  0  0  0
    8.5704   49.0353  131.6856 C   0  0  0  0  0  0  0  0  0  0  0  0
    7.8593   48.3972  130.7793 C   0  0  0  0  0  0  0  0  0  0  0  0
    5.6018   50.8314  128.9287 C   0  0  0  0  0  0  0  0  0  0  0  0
    3.3587   51.3127  127.7016 H   0  0  0  0  0  0  0  0  0  0  0  0
    9.6816   48.3297  132.3020 C   0  0  0  0  0  0  0  0  0  0  0  0
    9.7764   48.1800  133.6773 C   0  0  0  0  0  0  0  0  0  0  0  0
   10.8804   47.5668  134.2582 C   0  0  0  0  0  0  0  0  0  0  0  0
   11.8991   47.0990  133.4590 C   0  0  0  0  0  0  0  0  0  0  0  0
   11.7948   47.2545  132.0693 C   0  0  0  0  0  0  0  0  0  0  0  0
   10.7042   47.8577  131.5359 C   0  0  0  0  0  0  0  0  0  0  0  0
   13.0269   46.4882  133.8978 O   0  0  0  0  0  0  0  0  0  0  0  0
   13.6889   46.3943  135.0841 C   0  0  0  0  0  0  0  0  0  0  0  0
   14.5655   47.5517  135.4166 C   0  0  0  0  0  0  0  0  0  0  0  0
   13.9185   48.4763  136.2268 F   0  0  0  0  0  0  0  0  0  0  0  0
    8.0064   46.9853  130.4668 C   0  0  0  0  0  0  0  0  0  0  0  0
    8.6895   46.5103  129.3816 C   0  0  0  0  0  0  0  0  0  0  0  0
    8.8007   45.1595  129.1236 C   0  0  0  0  0  0  0  0  0  0  0  0
    8.2081   44.2248  129.9801 C   0  0  0  0  0  0  0  0  0  0  0  0
    7.5149   44.6750  131.0806 C   0  0  0  0  0  0  0  0  0  0  0  0
    7.4216   46.0206  131.3103 C   0  0  0  0  0  0  0  0  0  0  0  0
    8.3800   42.9061  129.6281 O   0  0  0  0  0  0  0  0  0  0  0  0
    9.1404   41.9821  130.3307 C   0  0  0  0  0  0  0  0  0  0  0  0
   10.6437   42.3037  130.1988 C   0  0  0  0  0  0  0  0  0  0  0  0
   11.1780   41.5025  131.3791 C   0  0  0  0  0  0  0  0  0  0  0  0
   10.2132   41.6518  132.4030 N   0  0  0  0  0  0  0  0  0  0  0  0
    9.0064   42.1789  131.8527 C   0  0  0  0  0  0  0  0  0  0  0  0
   10.6267   42.1486  133.6560 C   0  0  0  0  0  0  0  0  0  0  0  0
   10.2616   43.5751  133.9589 C   0  0  0  0  0  0  0  0  0  0  0  0
   11.1173   44.0356  135.1186 C   0  0  0  0  0  0  0  0  0  0  0  0
   12.3241   43.3442  135.0432 F   0  0  0  0  0  0  0  0  0  0  0  0
  1  2  1  0  0  0
  2  3  2  0  0  0
  3  4  1  0  0  0
  4  5  2  0  0  0
  5  6  1  0  0  0
  6  7  1  0  0  0
  7  8  1  0  0  0
  8  9  1  0  0  0
  9 10  1  0  0  0
 10 14  1  0  0  0
 14 15  2  0  0  0
 15 16  1  0  0  0
 16 17  2  0  0  0
 17 20  1  0  0  0
 20 21  1  0  0  0
 21 22  1  0  0  0
 22 23  1  0  0  0
 17 18  1  0  0  0
 18 19  2  0  0  0
 10 11  2  0  0  0
 11 24  1  0  0  0
 24 25  2  0  0  0
 25 26  1  0  0  0
 26 27  2  0  0  0
 27 30  1  0  0  0
 30 31  1  0  0  0
 31 32  1  0  0  0
 32 33  1  0  0  0
 33 34  1  0  0  0
 34 36  1  0  0  0
 36 37  1  0  0  0
 37 38  1  0  0  0
 38 39  1  0  0  0
 34 35  1  0  0  0
 27 28  1  0  0  0
 28 29  2  0  0  0
  6 12  2  0  0  0
 12  2  1  0  0  0
 11  5  1  0  0  0
 29 24  1  0  0  0
 19 14  1  0  0  0
 35 31  1  0  0  0
  1 13  1  0  0  0
M  END
> <minimizedAffinity>
13.38392

> <CNNscore>
0.3397026360

> <CNNaffinity>
7.8972702026

> <CNN_VS>
2.6827235222

> <CNNaffinity_variance>
1.5815798044

$$$$
[H]Oc1c([H])c([H])c2c(c1[H])C([H])([H])C([H])([H])C([H])([H])C(c1c([H])c([H])c(OC([H])([H])C([H])([H])F)c([H])c1[H])=C2c1c([H])c([H])c(O[C@]2([H])C([H])([H])N(C([H])([H])C([H])([H])C([H])([H])F)C([H])([H])C2([H])[H])c([H])c1[H]


 39 43  0  0  0  0  0  0  0  0999 V2000
   11.6770   43.6942  136.0596 O   0  0  0  0  0  0  0  0  0  0  0  0
   11.0221   44.6395  135.2479 C   0  0  0  0  0  0  0  0  0  0  0  0
   11.5427   44.8276  133.9840 C   0  0  0  0  0  0  0  0  0  0  0  0
   10.9462   45.7445  133.1338 C   0  0  0  0  0  0  0  0  0  0  0  0
    9.8356   46.4364  133.6118 C   0  0  0  0  0  0  0  0  0  0  0  0
    9.3213   46.2432  134.8730 C   0  0  0  0  0  0  0  0  0  0  0  0
    8.1317   46.9260  135.4297 C   0  0  0  0  0  0  0  0  0  0  0  0
    8.0328   48.3737  135.2870 C   0  0  0  0  0  0  0  0  0  0  0  0
    8.7018   49.1433  134.2630 C   0  0  0  0  0  0  0  0  0  0  0  0
    8.8292   48.5658  132.8827 C   0  0  0  0  0  0  0  0  0  0  0  0
    9.3243   47.3871  132.5667 C   0  0  0  0  0  0  0  0  0  0  0  0
    9.9238   45.3301  135.7061 C   0  0  0  0  0  0  0  0  0  0  0  0
   11.3212   43.5405  136.9761 H   0  0  0  0  0  0  0  0  0  0  0  0
    8.2804   49.3841  131.8142 C   0  0  0  0  0  0  0  0  0  0  0  0
    7.1748   48.9795  131.0814 C   0  0  0  0  0  0  0  0  0  0  0  0
    6.7041   49.7368  130.0150 C   0  0  0  0  0  0  0  0  0  0  0  0
    7.3430   50.9084  129.6767 C   0  0  0  0  0  0  0  0  0  0  0  0
    8.4601   51.3099  130.4232 C   0  0  0  0  0  0  0  0  0  0  0  0
    8.8928   50.5472  131.4571 C   0  0  0  0  0  0  0  0  0  0  0  0
    6.9890   51.7334  128.6611 O   0  0  0  0  0  0  0  0  0  0  0  0
    6.9012   53.0805  128.4819 C   0  0  0  0  0  0  0  0  0  0  0  0
    6.9193   53.5360  127.0639 C   0  0  0  0  0  0  0  0  0  0  0  0
    8.2070   53.5596  126.5433 F   0  0  0  0  0  0  0  0  0  0  0  0
    9.5067   46.9128  131.2049 C   0  0  0  0  0  0  0  0  0  0  0  0
    8.7991   45.8803  130.6544 C   0  0  0  0  0  0  0  0  0  0  0  0
    9.0085   45.4626  129.3563 C   0  0  0  0  0  0  0  0  0  0  0  0
    9.9659   46.0956  128.5555 C   0  0  0  0  0  0  0  0  0  0  0  0
   10.6922   47.1385  129.0837 C   0  0  0  0  0  0  0  0  0  0  0  0
   10.4623   47.5303  130.3744 C   0  0  0  0  0  0  0  0  0  0  0  0
   10.0931   45.5985  127.2791 O   0  0  0  0  0  0  0  0  0  0  0  0
   10.1691   44.2531  126.9475 C   0  0  0  0  0  0  0  0  0  0  0  0
   11.5189   43.6580  127.3999 C   0  0  0  0  0  0  0  0  0  0  0  0
   11.1649   42.1768  127.3696 C   0  0  0  0  0  0  0  0  0  0  0  0
    9.8332   42.0984  127.8409 N   0  0  0  0  0  0  0  0  0  0  0  0
    9.2439   43.3982  127.8341 C   0  0  0  0  0  0  0  0  0  0  0  0
    9.5525   41.2640  128.9422 C   0  0  0  0  0  0  0  0  0  0  0  0
    9.0326   41.9456  130.1771 C   0  0  0  0  0  0  0  0  0  0  0  0
   10.2237   42.4256  130.9772 C   0  0  0  0  0  0  0  0  0  0  0  0
    9.7427   42.8857  132.2007 F   0  0  0  0  0  0  0  0  0  0  0  0
  1  2  1  0  0  0
  2  3  2  0  0  0
  3  4  1  0  0  0
  4  5  2  0  0  0
  5  6  1  0  0  0
  6  7  1  0  0  0
  7  8  1  0  0  0
  8  9  1  0  0  0
  9 10  1  0  0  0
 10 14  1  0  0  0
 14 15  2  0  0  0
 15 16  1  0  0  0
 16 17  2  0  0  0
 17 20  1  0  0  0
 20 21  1  0  0  0
 21 22  1  0  0  0
 22 23  1  0  0  0
 17 18  1  0  0  0
 18 19  2  0  0  0
 10 11  2  0  0  0
 11 24  1  0  0  0
 24 25  2  0  0  0
 25 26  1  0  0  0
 26 27  2  0  0  0
 27 30  1  0  0  0
 30 31  1  0  0  0
 31 32  1  0  0  0
 32 33  1  0  0  0
 33 34  1  0  0  0
 34 36  1  0  0  0
 36 37  1  0  0  0
 37 38  1  0  0  0
 38 39  1  0  0  0
 34 35  1  0  0  0
 27 28  1  0  0  0
 28 29  2  0  0  0
  6 12  2  0  0  0
 12  2  1  0  0  0
 11  5  1  0  0  0
 29 24  1  0  0  0
 19 14  1  0  0  0
 35 31  1  0  0  0
  1 13  1  0  0  0
M  END
> <minimizedAffinity>
12.15142

> <CNNscore>
0.3361466527

> <CNNaffinity>
7.5981607437

> <CNN_VS>
2.5540962219

> <CNNaffinity_variance>
0.6091496944

$$$$
[H]Oc1c([H])c([H])c2c(c1[H])C([H])([H])C([H])([H])C([H])([H])C(c1c([H])c([H])c(OC([H])([H])C([H])([H])F)c([H])c1[H])=C2c1c([H])c([H])c(O[C@]2([H])C([H])([H])N(C([H])([H])C([H])([H])C([H])([H])F)C([H])([H])C2([H])[H])c([H])c1[H]


 39 43  0  0  0  0  0  0  0  0999 V2000
    9.9814   40.4224  127.6526 O   0  0  0  0  0  0  0  0  0  0  0  0
   10.0171   41.5524  128.4912 C   0  0  0  0  0  0  0  0  0  0  0  0
    9.5700   42.7370  127.9427 C   0  0  0  0  0  0  0  0  0  0  0  0
    9.5792   43.8880  128.7138 C   0  0  0  0  0  0  0  0  0  0  0  0
   10.0473   43.7818  130.0216 C   0  0  0  0  0  0  0  0  0  0  0  0
   10.4908   42.5971  130.5622 C   0  0  0  0  0  0  0  0  0  0  0  0
   10.9748   42.4135  131.9490 C   0  0  0  0  0  0  0  0  0  0  0  0
   11.9480   43.3631  132.4755 C   0  0  0  0  0  0  0  0  0  0  0  0
   12.1232   44.7118  131.9869 C   0  0  0  0  0  0  0  0  0  0  0  0
   10.9152   45.4976  131.5648 C   0  0  0  0  0  0  0  0  0  0  0  0
    9.9926   45.1189  130.7048 C   0  0  0  0  0  0  0  0  0  0  0  0
   10.4763   41.4629  129.7851 C   0  0  0  0  0  0  0  0  0  0  0  0
   10.2991   39.5558  128.0244 H   0  0  0  0  0  0  0  0  0  0  0  0
   10.7360   46.7718  132.2409 C   0  0  0  0  0  0  0  0  0  0  0  0
   10.6795   46.8611  133.6235 C   0  0  0  0  0  0  0  0  0  0  0  0
   10.4352   48.0751  134.2550 C   0  0  0  0  0  0  0  0  0  0  0  0
   10.2452   49.2102  133.4995 C   0  0  0  0  0  0  0  0  0  0  0  0
   10.3042   49.1106  132.1019 C   0  0  0  0  0  0  0  0  0  0  0  0
   10.5442   47.9106  131.5187 C   0  0  0  0  0  0  0  0  0  0  0  0
    9.9964   50.4495  133.9892 O   0  0  0  0  0  0  0  0  0  0  0  0
    9.6614   51.6594  133.4616 C   0  0  0  0  0  0  0  0  0  0  0  0
    9.9375   52.8330  134.3362 C   0  0  0  0  0  0  0  0  0  0  0  0
    8.8225   53.1992  135.0797 F   0  0  0  0  0  0  0  0  0  0  0  0
    8.8894   45.9564  130.2642 C   0  0  0  0  0  0  0  0  0  0  0  0
    8.9957   46.9092  129.2891 C   0  0  0  0  0  0  0  0  0  0  0  0
    7.9201   47.6833  128.9051 C   0  0  0  0  0  0  0  0  0  0  0  0
    6.6715   47.5104  129.5129 C   0  0  0  0  0  0  0  0  0  0  0  0
    6.5357   46.5578  130.4970 C   0  0  0  0  0  0  0  0  0  0  0  0
    7.6204   45.8054  130.8568 C   0  0  0  0  0  0  0  0  0  0  0  0
    5.6702   48.3350  129.0548 O   0  0  0  0  0  0  0  0  0  0  0  0
    5.5606   49.6908  129.3298 C   0  0  0  0  0  0  0  0  0  0  0  0
    6.6141   50.1201  130.3722 C   0  0  0  0  0  0  0  0  0  0  0  0
    6.6052   51.6248  130.1355 C   0  0  0  0  0  0  0  0  0  0  0  0
    6.4644   51.7850  128.7369 N   0  0  0  0  0  0  0  0  0  0  0  0
    6.0556   50.5496  128.1507 C   0  0  0  0  0  0  0  0  0  0  0  0
    7.4263   52.5465  128.0421 C   0  0  0  0  0  0  0  0  0  0  0  0
    6.9362   53.8192  127.4098 C   0  0  0  0  0  0  0  0  0  0  0  0
    7.9936   54.2886  126.4347 C   0  0  0  0  0  0  0  0  0  0  0  0
    7.5451   53.9740  125.1541 F   0  0  0  0  0  0  0  0  0  0  0  0
  1  2  1  0  0  0
  2  3  2  0  0  0
  3  4  1  0  0  0
  4  5  2  0  0  0
  5  6  1  0  0  0
  6  7  1  0  0  0
  7  8  1  0  0  0
  8  9  1  0  0  0
  9 10  1  0  0  0
 10 14  1  0  0  0
 14 15  2  0  0  0
 15 16  1  0  0  0
 16 17  2  0  0  0
 17 20  1  0  0  0
 20 21  1  0  0  0
 21 22  1  0  0  0
 22 23  1  0  0  0
 17 18  1  0  0  0
 18 19  2  0  0  0
 10 11  2  0  0  0
 11 24  1  0  0  0
 24 25  2  0  0  0
 25 26  1  0  0  0
 26 27  2  0  0  0
 27 30  1  0  0  0
 30 31  1  0  0  0
 31 32  1  0  0  0
 32 33  1  0  0  0
 33 34  1  0  0  0
 34 36  1  0  0  0
 36 37  1  0  0  0
 37 38  1  0  0  0
 38 39  1  0  0  0
 34 35  1  0  0  0
 27 28  1  0  0  0
 28 29  2  0  0  0
  6 12  2  0  0  0
 12  2  1  0  0  0
 11  5  1  0  0  0
 29 24  1  0  0  0
 19 14  1  0  0  0
 35 31  1  0  0  0
  1 13  1  0  0  0
M  END
> <minimizedAffinity>
9.65480

> <CNNscore>
0.3353554308

> <CNNaffinity>
7.7249083519

> <CNN_VS>
2.5905900002

> <CNNaffinity_variance>
0.5475438237

$$$$
[H]C#C[C@]1(O[H])C([H])([H])C([H])([H])C2([H])C3([H])C([H])([H])C([H])=C4C([H])([H])[C@@]([H])(O[H])C([H])([H])C([H])([H])[C@]4(C([H])=C([H])[H])C3([H])C([H])([H])C([H])([H])[C@@]21C([H])([H])[H]


 26 29  0  0  0  0  0  0  0  0999 V2000
   12.2570   44.3557  130.5540 C   0  0  0  0  0  0  0  0  0  0  0  0
   11.1887   44.5124  131.6463 C   0  0  0  0  0  0  0  0  0  0  0  0
    9.8622   44.4763  130.9411 C   0  0  0  0  0  0  0  0  0  0  0  0
    9.5429   45.7486  130.2077 C   0  0  0  0  0  0  0  0  0  0  0  0
   10.2078   46.9670  130.7248 C   0  0  0  0  0  0  0  0  0  0  0  0
   10.4483   46.8533  132.2131 C   0  0  0  0  0  0  0  0  0  0  0  0
    9.2030   46.7943  133.0120 C   0  0  0  0  0  0  0  0  0  0  0  0
    8.0252   47.3391  132.3035 C   0  0  0  0  0  0  0  0  0  0  0  0
    8.0608   48.0029  131.1560 C   0  0  0  0  0  0  0  0  0  0  0  0
    6.7708   48.4713  130.5996 C   0  0  0  0  0  0  0  0  0  0  0  0
    6.8154   48.8399  129.1620 C   0  0  0  0  0  0  0  0  0  0  0  0
    6.7814   50.2227  128.9810 O   0  0  0  0  0  0  0  0  0  0  0  0
    7.9946   48.2467  128.4254 C   0  0  0  0  0  0  0  0  0  0  0  0
    9.2952   48.6039  129.0659 C   0  0  0  0  0  0  0  0  0  0  0  0
    9.3808   48.2264  130.5231 C   0  0  0  0  0  0  0  0  0  0  0  0
   11.4207   45.7500  132.4422 C   0  0  0  0  0  0  0  0  0  0  0  0
   11.5355   45.3293  133.8957 C   0  0  0  0  0  0  0  0  0  0  0  0
   12.2502   43.9816  133.7131 C   0  0  0  0  0  0  0  0  0  0  0  0
   11.3696   43.3891  132.6093 C   0  0  0  0  0  0  0  0  0  0  0  0
   12.0624   42.3085  132.0756 O   0  0  0  0  0  0  0  0  0  0  0  0
    7.4014   50.4459  128.2443 H   0  0  0  0  0  0  0  0  0  0  0  0
   11.4893   41.8891  131.4005 H   0  0  0  0  0  0  0  0  0  0  0  0
   10.0349   49.3652  131.2176 C   0  0  0  0  0  0  0  0  0  0  0  0
    9.4214   50.4449  131.6351 C   0  0  0  0  0  0  0  0  0  0  0  0
   10.1509   42.8899  133.1971 C   0  0  0  0  0  0  0  0  0  0  0  0
    9.1349   42.4594  133.6830 C   0  0  0  0  0  0  0  0  0  0  0  0
  2  1  1  0  0  0
  2  3  1  0  0  0
  3  4  1  0  0  0
  4  5  1  0  0  0
  5  6  1  0  0  0
  6  7  1  0  0  0
  7  8  1  0  0  0
  8  9  2  0  0  0
  9 10  1  0  0  0
 10 11  1  0  0  0
 11 12  1  0  0  0
 11 13  1  0  0  0
 13 14  1  0  0  0
 14 15  1  0  0  0
 15 23  1  0  0  0
 23 24  2  0  0  0
  6 16  1  0  0  0
 16 17  1  0  0  0
 17 18  1  0  0  0
 18 19  1  0  0  0
 19 20  1  0  0  0
 19 25  1  0  0  0
 25 26  3  0  0  0
 16  2  1  0  0  0
 19  2  1  0  0  0
 15  5  1  0  0  0
 15  9  1  0  0  0
 12 21  1  0  0  0
 20 22  1  0  0  0
M  END
> <minimizedAffinity>
-6.56573

> <CNNscore>
0.6024234891

> <CNNaffinity>
7.6855888367

> <CNN_VS>
4.6299791336

> <CNNaffinity_variance>
0.7651249766

$$$$
[H]C#C[C@]1(O[H])C([H])([H])C([H])([H])C2([H])C3([H])C([H])([H])C([H])=C4C([H])([H])[C@@]([H])(O[H])C([H])([H])C([H])([H])[C@]4(C([H])=C([H])[H])C3([H])C([H])([H])C([H])([H])[C@@]21C([H])([H])[H]


 26 29  0  0  0  0  0  0  0  0999 V2000
   11.5056   44.2953  130.1727 C   0  0  0  0  0  0  0  0  0  0  0  0
   10.1026   44.0912  130.7635 C   0  0  0  0  0  0  0  0  0  0  0  0
    9.1343   44.4132  129.6603 C   0  0  0  0  0  0  0  0  0  0  0  0
    8.9962   45.8869  129.4005 C   0  0  0  0  0  0  0  0  0  0  0  0
    9.3177   46.7695  130.5458 C   0  0  0  0  0  0  0  0  0  0  0  0
    9.0063   46.0802  131.8549 C   0  0  0  0  0  0  0  0  0  0  0  0
    7.5654   45.8009  132.0497 C   0  0  0  0  0  0  0  0  0  0  0  0
    6.6856   46.6500  131.2184 C   0  0  0  0  0  0  0  0  0  0  0  0
    7.0806   47.6982  130.5085 C   0  0  0  0  0  0  0  0  0  0  0  0
    6.0479   48.4258  129.7358 C   0  0  0  0  0  0  0  0  0  0  0  0
    6.5828   49.3122  128.6716 C   0  0  0  0  0  0  0  0  0  0  0  0
    6.4976   50.6583  129.0278 O   0  0  0  0  0  0  0  0  0  0  0  0
    7.9963   48.9709  128.2587 C   0  0  0  0  0  0  0  0  0  0  0  0
    8.9365   48.9714  129.4187 C   0  0  0  0  0  0  0  0  0  0  0  0
    8.5158   48.0608  130.5444 C   0  0  0  0  0  0  0  0  0  0  0  0
    9.9194   44.9129  131.9924 C   0  0  0  0  0  0  0  0  0  0  0  0
    9.5309   43.9620  133.1095 C   0  0  0  0  0  0  0  0  0  0  0  0
   10.3768   42.7434  132.7098 C   0  0  0  0  0  0  0  0  0  0  0  0
   10.0157   42.6759  131.2233 C   0  0  0  0  0  0  0  0  0  0  0  0
   10.9464   41.8392  130.6185 O   0  0  0  0  0  0  0  0  0  0  0  0
    7.3221   51.1057  128.7164 H   0  0  0  0  0  0  0  0  0  0  0  0
   10.6984   41.7476  129.6749 H   0  0  0  0  0  0  0  0  0  0  0  0
    8.7694   48.8029  131.8062 C   0  0  0  0  0  0  0  0  0  0  0  0
    9.4664   49.9079  131.9024 C   0  0  0  0  0  0  0  0  0  0  0  0
    8.7146   42.0699  131.0824 C   0  0  0  0  0  0  0  0  0  0  0  0
    7.6255   41.5629  130.9793 C   0  0  0  0  0  0  0  0  0  0  0  0
  2  1  1  0  0  0
  2  3  1  0  0  0
  3  4  1  0  0  0
  4  5  1  0  0  0
  5  6  1  0  0  0
  6  7  1  0  0  0
  7  8  1  0  0  0
  8  9  2  0  0  0
  9 10  1  0  0  0
 10 11  1  0  0  0
 11 12  1  0  0  0
 11 13  1  0  0  0
 13 14  1  0  0  0
 14 15  1  0  0  0
 15 23  1  0  0  0
 23 24  2  0  0  0
  6 16  1  0  0  0
 16 17  1  0  0  0
 17 18  1  0  0  0
 18 19  1  0  0  0
 19 20  1  0  0  0
 19 25  1  0  0  0
 25 26  3  0  0  0
 16  2  1  0  0  0
 19  2  1  0  0  0
 15  5  1  0  0  0
 15  9  1  0  0  0
 12 21  1  0  0  0
 20 22  1  0  0  0
M  END
> <minimizedAffinity>
-3.31873

> <CNNscore>
0.5480031371

> <CNNaffinity>
7.6152534485

> <CNN_VS>
4.1731829643

> <CNNaffinity_variance>
1.0683057308

$$$$
[H]C#C[C@]1(O[H])C([H])([H])C([H])([H])C2([H])C3([H])C([H])([H])C([H])=C4C([H])([H])[C@@]([H])(O[H])C([H])([H])C([H])([H])[C@]4(C([H])=C([H])[H])C3([H])C([H])([H])C([H])([H])[C@@]21C([H])([H])[H]


 26 29  0  0  0  0  0  0  0  0999 V2000
   12.6716   45.1769  131.4487 C   0  0  0  0  0  0  0  0  0  0  0  0
   11.3619   44.7158  132.1051 C   0  0  0  0  0  0  0  0  0  0  0  0
   10.4195   44.3981  130.9784 C   0  0  0  0  0  0  0  0  0  0  0  0
    9.8542   45.6209  130.3124 C   0  0  0  0  0  0  0  0  0  0  0  0
    9.8100   46.8412  131.1508 C   0  0  0  0  0  0  0  0  0  0  0  0
    9.6361   46.4812  132.6089 C   0  0  0  0  0  0  0  0  0  0  0  0
    8.3406   45.8298  132.9083 C   0  0  0  0  0  0  0  0  0  0  0  0
    7.3020   46.0942  131.8897 C   0  0  0  0  0  0  0  0  0  0  0  0
    7.4040   46.9727  130.9016 C   0  0  0  0  0  0  0  0  0  0  0  0
    6.2534   47.0951  129.9774 C   0  0  0  0  0  0  0  0  0  0  0  0
    6.5622   47.7722  128.6926 C   0  0  0  0  0  0  0  0  0  0  0  0
    6.0439   49.0668  128.6521 O   0  0  0  0  0  0  0  0  0  0  0  0
    8.0371   47.7909  128.3620 C   0  0  0  0  0  0  0  0  0  0  0  0
    8.8500   48.4082  129.4518 C   0  0  0  0  0  0  0  0  0  0  0  0
    8.6527   47.7620  130.7997 C   0  0  0  0  0  0  0  0  0  0  0  0
   10.8517   45.7457  133.0526 C   0  0  0  0  0  0  0  0  0  0  0  0
   10.6979   45.0706  134.4030 C   0  0  0  0  0  0  0  0  0  0  0  0
   11.9023   44.1182  134.3481 C   0  0  0  0  0  0  0  0  0  0  0  0
   11.6821   43.5310  132.9512 C   0  0  0  0  0  0  0  0  0  0  0  0
   12.8638   42.8950  132.5889 O   0  0  0  0  0  0  0  0  0  0  0  0
    6.7107   49.6450  128.2073 H   0  0  0  0  0  0  0  0  0  0  0  0
   12.7212   42.4721  131.7166 H   0  0  0  0  0  0  0  0  0  0  0  0
    8.5792   48.8657  131.7914 C   0  0  0  0  0  0  0  0  0  0  0  0
    9.5100   49.7672  131.9847 C   0  0  0  0  0  0  0  0  0  0  0  0
   10.6426   42.5336  133.0188 C   0  0  0  0  0  0  0  0  0  0  0  0
    9.7634   41.7103  133.0743 C   0  0  0  0  0  0  0  0  0  0  0  0
  2  1  1  0  0  0
  2  3  1  0  0  0
  3  4  1  0  0  0
  4  5  1  0  0  0
  5  6  1  0  0  0
  6  7  1  0  0  0
  7  8  1  0  0  0
  8  9  2  0  0  0
  9 10  1  0  0  0
 10 11  1  0  0  0
 11 12  1  0  0  0
 11 13  1  0  0  0
 13 14  1  0  0  0
 14 15  1  0  0  0
 15 23  1  0  0  0
 23 24  2  0  0  0
  6 16  1  0  0  0
 16 17  1  0  0  0
 17 18  1  0  0  0
 18 19  1  0  0  0
 19 20  1  0  0  0
 19 25  1  0  0  0
 25 26  3  0  0  0
 16  2  1  0  0  0
 19  2  1  0  0  0
 15  5  1  0  0  0
 15  9  1  0  0  0
 12 21  1  0  0  0
 20 22  1  0  0  0
M  END
> <minimizedAffinity>
-7.74622

> <CNNscore>
0.5129828453

> <CNNaffinity>
7.5266547203

> <CNN_VS>
3.8610446453

> <CNNaffinity_variance>
0.4295570850

$$$$
[H]C#C[C@]1(O[H])C([H])([H])C([H])([H])C2([H])C3([H])C([H])([H])C([H])=C4C([H])([H])[C@@]([H])(O[H])C([H])([H])C([H])([H])[C@]4(C([H])=C([H])[H])C3([H])C([H])([H])C([H])([H])[C@@]21C([H])([H])[H]


 26 29  0  0  0  0  0  0  0  0999 V2000
    6.7228   47.9358  132.0313 C   0  0  0  0  0  0  0  0  0  0  0  0
    7.6230   47.8238  130.7920 C   0  0  0  0  0  0  0  0  0  0  0  0
    7.4479   46.4241  130.2739 C   0  0  0  0  0  0  0  0  0  0  0  0
    8.1635   45.3905  131.0973 C   0  0  0  0  0  0  0  0  0  0  0  0
    9.3312   45.8826  131.8643 C   0  0  0  0  0  0  0  0  0  0  0  0
    9.9909   47.0397  131.1490 C   0  0  0  0  0  0  0  0  0  0  0  0
   10.5868   46.6685  129.8454 C   0  0  0  0  0  0  0  0  0  0  0  0
   10.8643   45.2219  129.7179 C   0  0  0  0  0  0  0  0  0  0  0  0
   10.7934   44.3383  130.7043 C   0  0  0  0  0  0  0  0  0  0  0  0
   11.1085   42.9283  130.3798 C   0  0  0  0  0  0  0  0  0  0  0  0
   10.6369   41.9426  131.3850 C   0  0  0  0  0  0  0  0  0  0  0  0
   11.6894   41.4399  132.1503 O   0  0  0  0  0  0  0  0  0  0  0  0
    9.5466   42.4768  132.2855 C   0  0  0  0  0  0  0  0  0  0  0  0
    9.9571   43.7323  132.9817 C   0  0  0  0  0  0  0  0  0  0  0  0
   10.4092   44.8268  132.0483 C   0  0  0  0  0  0  0  0  0  0  0  0
    9.0313   48.1772  131.1250 C   0  0  0  0  0  0  0  0  0  0  0  0
    9.4405   49.3017  130.1918 C   0  0  0  0  0  0  0  0  0  0  0  0
    8.1036   50.0533  130.1003 C   0  0  0  0  0  0  0  0  0  0  0  0
    7.1774   48.8657  129.8235 C   0  0  0  0  0  0  0  0  0  0  0  0
    5.8776   49.3066  130.0437 O   0  0  0  0  0  0  0  0  0  0  0  0
   11.3718   41.3567  133.0825 H   0  0  0  0  0  0  0  0  0  0  0  0
    5.2701   48.5703  129.8228 H   0  0  0  0  0  0  0  0  0  0  0  0
   11.6077   45.4455  132.6708 C   0  0  0  0  0  0  0  0  0  0  0  0
   11.6588   45.9307  133.8866 C   0  0  0  0  0  0  0  0  0  0  0  0
    7.2920   48.4937  128.4349 C   0  0  0  0  0  0  0  0  0  0  0  0
    7.3731   48.1818  127.2730 C   0  0  0  0  0  0  0  0  0  0  0  0
  2  1  1  0  0  0
  2  3  1  0  0  0
  3  4  1  0  0  0
  4  5  1  0  0  0
  5  6  1  0  0  0
  6  7  1  0  0  0
  7  8  1  0  0  0
  8  9  2  0  0  0
  9 10  1  0  0  0
 10 11  1  0  0  0
 11 12  1  0  0  0
 11 13  1  0  0  0
 13 14  1  0  0  0
 14 15  1  0  0  0
 15 23  1  0  0  0
 23 24  2  0  0  0
  6 16  1  0  0  0
 16 17  1  0  0  0
 17 18  1  0  0  0
 18 19  1  0  0  0
 19 20  1  0  0  0
 19 25  1  0  0  0
 25 26  3  0  0  0
 16  2  1  0  0  0
 19  2  1  0  0  0
 15  5  1  0  0  0
 15  9  1  0  0  0
 12 21  1  0  0  0
 20 22  1  0  0  0
M  END
> <minimizedAffinity>
-0.81994

> <CNNscore>
0.5084614754

> <CNNaffinity>
7.4636054039

> <CNN_VS>
3.7949557304

> <CNNaffinity_variance>
0.7463862300

$$$$
[H]C#C[C@]1(O[H])C([H])([H])C([H])([H])C2([H])C3([H])C([H])([H])C([H])=C4C([H])([H])[C@@]([H])(O[H])C([H])([H])C([H])([H])[C@]4(C([H])=C([H])[H])C3([H])C([H])([H])C([H])([H])[C@@]21C([H])([H])[H]


 26 29  0  0  0  0  0  0  0  0999 V2000
    8.6446   42.9119  131.4457 C   0  0  0  0  0  0  0  0  0  0  0  0
    9.5565   43.9589  132.1023 C   0  0  0  0  0  0  0  0  0  0  0  0
    8.6479   45.0387  132.6189 C   0  0  0  0  0  0  0  0  0  0  0  0
    8.1125   45.9343  131.5374 C   0  0  0  0  0  0  0  0  0  0  0  0
    8.9421   46.0227  130.3135 C   0  0  0  0  0  0  0  0  0  0  0  0
   10.4048   45.8312  130.6449 C   0  0  0  0  0  0  0  0  0  0  0  0
   10.9643   46.9033  131.4992 C   0  0  0  0  0  0  0  0  0  0  0  0
   10.1813   48.1567  131.4558 C   0  0  0  0  0  0  0  0  0  0  0  0
    9.1934   48.4140  130.6094 C   0  0  0  0  0  0  0  0  0  0  0  0
    8.5257   49.7310  130.7216 C   0  0  0  0  0  0  0  0  0  0  0  0
    7.2049   49.8135  130.0485 C   0  0  0  0  0  0  0  0  0  0  0  0
    7.2720   50.5498  128.8654 O   0  0  0  0  0  0  0  0  0  0  0  0
    6.5778   48.4632  129.7870 C   0  0  0  0  0  0  0  0  0  0  0  0
    7.4770   47.5686  128.9991 C   0  0  0  0  0  0  0  0  0  0  0  0
    8.8367   47.3714  129.6202 C   0  0  0  0  0  0  0  0  0  0  0  0
   10.5888   44.4406  131.1424 C   0  0  0  0  0  0  0  0  0  0  0  0
   11.9419   44.1958  131.7843 C   0  0  0  0  0  0  0  0  0  0  0  0
   11.6403   42.8785  132.5153 C   0  0  0  0  0  0  0  0  0  0  0  0
   10.3186   43.2698  133.1822 C   0  0  0  0  0  0  0  0  0  0  0  0
    9.7209   42.0924  133.6169 O   0  0  0  0  0  0  0  0  0  0  0  0
    6.6995   50.0998  128.1971 H   0  0  0  0  0  0  0  0  0  0  0  0
    8.8966   42.3317  134.0895 H   0  0  0  0  0  0  0  0  0  0  0  0
    9.8223   47.4364  128.5105 C   0  0  0  0  0  0  0  0  0  0  0  0
   10.3722   46.3985  127.9304 C   0  0  0  0  0  0  0  0  0  0  0  0
   10.5988   44.0809  134.3413 C   0  0  0  0  0  0  0  0  0  0  0  0
   10.8374   44.7699  135.3015 C   0  0  0  0  0  0  0  0  0  0  0  0
  2  1  1  0  0  0
  2  3  1  0  0  0
  3  4  1  0  0  0
  4  5  1  0  0  0
  5  6  1  0  0  0
  6  7  1  0  0  0
  7  8  1  0  0  0
  8  9  2  0  0  0
  9 10  1  0  0  0
 10 11  1  0  0  0
 11 12  1  0  0  0
 11 13  1  0  0  0
 13 14  1  0  0  0
 14 15  1  0  0  0
 15 23  1  0  0  0
 23 24  2  0  0  0
  6 16  1  0  0  0
 16 17  1  0  0  0
 17 18  1  0  0  0
 18 19  1  0  0  0
 19 20  1  0  0  0
 19 25  1  0  0  0
 25 26  3  0  0  0
 16  2  1  0  0  0
 19  2  1  0  0  0
 15  5  1  0  0  0
 15  9  1  0  0  0
 12 21  1  0  0  0
 20 22  1  0  0  0
M  END
> <minimizedAffinity>
-7.88967

> <CNNscore>
0.4460238218

> <CNNaffinity>
7.3627533913

> <CNN_VS>
3.2839634418

> <CNNaffinity_variance>
0.2309010476

$$$$
[H]C#C[C@]1(O[H])C([H])([H])C([H])([H])C2([H])C3([H])C([H])([H])C([H])=C4C([H])([H])[C@@]([H])(O[H])C([H])([H])C([H])([H])[C@]4(C([H])=C([H])[H])C3([H])C([H])([H])C([H])([H])[C@@]21C([H])([H])[H]


 26 29  0  0  0  0  0  0  0  0999 V2000
    9.1448   43.8175  128.1928 C   0  0  0  0  0  0  0  0  0  0  0  0
    9.1542   44.0970  129.7030 C   0  0  0  0  0  0  0  0  0  0  0  0
    7.8082   44.6810  130.0279 C   0  0  0  0  0  0  0  0  0  0  0  0
    7.6587   46.1113  129.5916 C   0  0  0  0  0  0  0  0  0  0  0  0
    8.9210   46.8770  129.4721 C   0  0  0  0  0  0  0  0  0  0  0  0
    9.9504   46.3664  130.4547 C   0  0  0  0  0  0  0  0  0  0  0  0
    9.5724   46.5748  131.8710 C   0  0  0  0  0  0  0  0  0  0  0  0
    8.5611   47.6370  132.0581 C   0  0  0  0  0  0  0  0  0  0  0  0
    8.1511   48.4785  131.1187 C   0  0  0  0  0  0  0  0  0  0  0  0
    7.1259   49.4771  131.4990 C   0  0  0  0  0  0  0  0  0  0  0  0
    6.4243   50.1094  130.3534 C   0  0  0  0  0  0  0  0  0  0  0  0
    6.8517   51.4209  130.1446 O   0  0  0  0  0  0  0  0  0  0  0  0
    6.5309   49.3162  129.0710 C   0  0  0  0  0  0  0  0  0  0  0  0
    7.9500   49.0479  128.6920 C   0  0  0  0  0  0  0  0  0  0  0  0
    8.7483   48.3578  129.7690 C   0  0  0  0  0  0  0  0  0  0  0  0
   10.3019   44.9711  130.0740 C   0  0  0  0  0  0  0  0  0  0  0  0
   11.1001   44.2322  131.1322 C   0  0  0  0  0  0  0  0  0  0  0  0
   10.9252   42.7935  130.6220 C   0  0  0  0  0  0  0  0  0  0  0  0
    9.4112   42.8010  130.3931 C   0  0  0  0  0  0  0  0  0  0  0  0
    9.1147   41.6897  129.6125 O   0  0  0  0  0  0  0  0  0  0  0  0
    6.9107   51.5673  129.1690 H   0  0  0  0  0  0  0  0  0  0  0  0
    8.1421   41.6544  129.4987 H   0  0  0  0  0  0  0  0  0  0  0  0
   10.0796   49.0162  129.7966 C   0  0  0  0  0  0  0  0  0  0  0  0
   10.3036   50.2452  130.1914 C   0  0  0  0  0  0  0  0  0  0  0  0
    8.7431   42.6448  131.6617 C   0  0  0  0  0  0  0  0  0  0  0  0
    8.1725   42.5201  132.7165 C   0  0  0  0  0  0  0  0  0  0  0  0
  2  1  1  0  0  0
  2  3  1  0  0  0
  3  4  1  0  0  0
  4  5  1  0  0  0
  5  6  1  0  0  0
  6  7  1  0  0  0
  7  8  1  0  0  0
  8  9  2  0  0  0
  9 10  1  0  0  0
 10 11  1  0  0  0
 11 12  1  0  0  0
 11 13  1  0  0  0
 13 14  1  0  0  0
 14 15  1  0  0  0
 15 23  1  0  0  0
 23 24  2  0  0  0
  6 16  1  0  0  0
 16 17  1  0  0  0
 17 18  1  0  0  0
 18 19  1  0  0  0
 19 20  1  0  0  0
 19 25  1  0  0  0
 25 26  3  0  0  0
 16  2  1  0  0  0
 19  2  1  0  0  0
 15  5  1  0  0  0
 15  9  1  0  0  0
 12 21  1  0  0  0
 20 22  1  0  0  0
M  END
> <minimizedAffinity>
-3.05790

> <CNNscore>
0.4383226931

> <CNNaffinity>
7.1918640137

> <CNN_VS>
3.1523571014

> <CNNaffinity_variance>
0.4142047465

$$$$
[H]C#C[C@]1(O[H])C([H])([H])C([H])([H])C2([H])C3([H])C([H])([H])C([H])=C4C([H])([H])[C@@]([H])(O[H])C([H])([H])C([H])([H])[C@]4(C([H])=C([H])[H])C3([H])C([H])([H])C([H])([H])[C@@]21C([H])([H])[H]


 26 29  0  0  0  0  0  0  0  0999 V2000
    6.9315   47.1764  129.0826 C   0  0  0  0  0  0  0  0  0  0  0  0
    8.1189   47.6115  129.9540 C   0  0  0  0  0  0  0  0  0  0  0  0
    9.3147   46.8652  129.4330 C   0  0  0  0  0  0  0  0  0  0  0  0
    9.3329   45.4165  129.8324 C   0  0  0  0  0  0  0  0  0  0  0  0
    8.5857   45.0860  131.0679 C   0  0  0  0  0  0  0  0  0  0  0  0
    8.5920   46.2564  132.0250 C   0  0  0  0  0  0  0  0  0  0  0  0
    9.9392   46.5963  132.5368 C   0  0  0  0  0  0  0  0  0  0  0  0
   10.9054   45.4822  132.4302 C   0  0  0  0  0  0  0  0  0  0  0  0
   10.6015   44.2328  132.1057 C   0  0  0  0  0  0  0  0  0  0  0  0
   11.7114   43.2542  132.0500 C   0  0  0  0  0  0  0  0  0  0  0  0
   11.3973   42.0050  131.3116 C   0  0  0  0  0  0  0  0  0  0  0  0
   11.2042   40.9273  132.1763 O   0  0  0  0  0  0  0  0  0  0  0  0
   10.2180   42.1399  130.3757 C   0  0  0  0  0  0  0  0  0  0  0  0
    8.9915   42.6164  131.0817 C   0  0  0  0  0  0  0  0  0  0  0  0
    9.1827   43.9127  131.8277 C   0  0  0  0  0  0  0  0  0  0  0  0
    7.8344   47.3728  131.3966 C   0  0  0  0  0  0  0  0  0  0  0  0
    8.0027   48.7021  132.1091 C   0  0  0  0  0  0  0  0  0  0  0  0
    7.4700   49.6431  131.0177 C   0  0  0  0  0  0  0  0  0  0  0  0
    8.2493   49.0905  129.8210 C   0  0  0  0  0  0  0  0  0  0  0  0
    7.6466   49.5987  128.6762 O   0  0  0  0  0  0  0  0  0  0  0  0
   10.4543   40.3884  131.8240 H   0  0  0  0  0  0  0  0  0  0  0  0
    8.1653   49.2924  127.9034 H   0  0  0  0  0  0  0  0  0  0  0  0
    8.4843   43.7585  133.1298 C   0  0  0  0  0  0  0  0  0  0  0  0
    8.4769   42.6679  133.8555 C   0  0  0  0  0  0  0  0  0  0  0  0
    9.6019   49.5884  129.8703 C   0  0  0  0  0  0  0  0  0  0  0  0
   10.7364   49.9957  129.9005 C   0  0  0  0  0  0  0  0  0  0  0  0
  2  1  1  0  0  0
  2  3  1  0  0  0
  3  4  1  0  0  0
  4  5  1  0  0  0
  5  6  1  0  0  0
  6  7  1  0  0  0
  7  8  1  0  0  0
  8  9  2  0  0  0
  9 10  1  0  0  0
 10 11  1  0  0  0
 11 12  1  0  0  0
 11 13  1  0  0  0
 13 14  1  0  0  0
 14 15  1  0  0  0
 15 23  1  0  0  0
 23 24  2  0  0  0
  6 16  1  0  0  0
 16 17  1  0  0  0
 17 18  1  0  0  0
 18 19  1  0  0  0
 19 20  1  0  0  0
 19 25  1  0  0  0
 25 26  3  0  0  0
 16  2  1  0  0  0
 19  2  1  0  0  0
 15  5  1  0  0  0
 15  9  1  0  0  0
 12 21  1  0  0  0
 20 22  1  0  0  0
M  END
> <minimizedAffinity>
-2.60158

> <CNNscore>
0.4378400743

> <CNNaffinity>
7.4607343674

> <CNN_VS>
3.2666084766

> <CNNaffinity_variance>
0.9762142301

$$$$
[H]C#C[C@]1(O[H])C([H])([H])C([H])([H])C2([H])C3([H])C([H])([H])C([H])=C4C([H])([H])[C@@]([H])(O[H])C([H])([H])C([H])([H])[C@]4(C([H])=C([H])[H])C3([H])C([H])([H])C([H])([H])[C@@]21C([H])([H])[H]


 26 29  0  0  0  0  0  0  0  0999 V2000
    8.8180   49.3526  131.3473 C   0  0  0  0  0  0  0  0  0  0  0  0
    8.1492   48.2585  130.5020 C   0  0  0  0  0  0  0  0  0  0  0  0
    7.8039   47.1481  131.4538 C   0  0  0  0  0  0  0  0  0  0  0  0
    8.9943   46.3332  131.8750 C   0  0  0  0  0  0  0  0  0  0  0  0
   10.1321   46.3288  130.9267 C   0  0  0  0  0  0  0  0  0  0  0  0
    9.6433   46.4912  129.5052 C   0  0  0  0  0  0  0  0  0  0  0  0
    8.8152   45.3594  129.0301 C   0  0  0  0  0  0  0  0  0  0  0  0
    9.0255   44.1149  129.8003 C   0  0  0  0  0  0  0  0  0  0  0  0
    9.9827   43.9217  130.6976 C   0  0  0  0  0  0  0  0  0  0  0  0
   10.0315   42.6024  131.3684 C   0  0  0  0  0  0  0  0  0  0  0  0
   10.8376   42.5724  132.6148 C   0  0  0  0  0  0  0  0  0  0  0  0
   12.0571   41.9215  132.4269 O   0  0  0  0  0  0  0  0  0  0  0  0
   11.0643   43.9400  133.2175 C   0  0  0  0  0  0  0  0  0  0  0  0
   11.6928   44.8849  132.2471 C   0  0  0  0  0  0  0  0  0  0  0  0
   10.9263   45.0330  130.9572 C   0  0  0  0  0  0  0  0  0  0  0  0
    9.0326   47.8425  129.3770 C   0  0  0  0  0  0  0  0  0  0  0  0
    8.2427   48.0365  128.0959 C   0  0  0  0  0  0  0  0  0  0  0  0
    7.4541   49.2997  128.4739 C   0  0  0  0  0  0  0  0  0  0  0  0
    6.9523   48.8668  129.8543 C   0  0  0  0  0  0  0  0  0  0  0  0
    6.4974   50.0125  130.4969 O   0  0  0  0  0  0  0  0  0  0  0  0
   12.7459   42.4196  132.9313 H   0  0  0  0  0  0  0  0  0  0  0  0
    6.1278   49.7432  131.3635 H   0  0  0  0  0  0  0  0  0  0  0  0
   11.9335   45.0433  129.8653 C   0  0  0  0  0  0  0  0  0  0  0  0
   13.0720   44.3954  129.8853 C   0  0  0  0  0  0  0  0  0  0  0  0
    5.8314   47.9747  129.6887 C   0  0  0  0  0  0  0  0  0  0  0  0
    4.9027   47.2196  129.5426 C   0  0  0  0  0  0  0  0  0  0  0  0
  2  1  1  0  0  0
  2  3  1  0  0  0
  3  4  1  0  0  0
  4  5  1  0  0  0
  5  6  1  0  0  0
  6  7  1  0  0  0
  7  8  1  0  0  0
  8  9  2  0  0  0
  9 10  1  0  0  0
 10 11  1  0  0  0
 11 12  1  0  0  0
 11 13  1  0  0  0
 13 14  1  0  0  0
 14 15  1  0  0  0
 15 23  1  0  0  0
 23 24  2  0  0  0
  6 16  1  0  0  0
 16 17  1  0  0  0
 17 18  1  0  0  0
 18 19  1  0  0  0
 19 20  1  0  0  0
 19 25  1  0  0  0
 25 26  3  0  0  0
 16  2  1  0  0  0
 19  2  1  0  0  0
 15  5  1  0  0  0
 15  9  1  0  0  0
 12 21  1  0  0  0
 20 22  1  0  0  0
M  END
> <minimizedAffinity>
-7.53709

> <CNNscore>
0.3965422809

> <CNNaffinity>
7.2293395996

> <CNN_VS>
2.8667387962

> <CNNaffinity_variance>
0.2364791930

$$$$
[H]C#C[C@]1(O[H])C([H])([H])C([H])([H])C2([H])C3([H])C([H])([H])C([H])=C4C([H])([H])[C@@]([H])(O[H])C([H])([H])C([H])([H])[C@]4(C([H])=C([H])[H])C3([H])C([H])([H])C([H])([H])[C@@]21C([H])([H])[H]


 26 29  0  0  0  0  0  0  0  0999 V2000
   12.3143   44.5521  132.8571 C   0  0  0  0  0  0  0  0  0  0  0  0
   10.9686   44.1587  132.2300 C   0  0  0  0  0  0  0  0  0  0  0  0
   10.9007   44.8690  130.9074 C   0  0  0  0  0  0  0  0  0  0  0  0
   10.6060   46.3371  131.0345 C   0  0  0  0  0  0  0  0  0  0  0  0
    9.8824   46.7385  132.2630 C   0  0  0  0  0  0  0  0  0  0  0  0
    8.9820   45.6221  132.7413 C   0  0  0  0  0  0  0  0  0  0  0  0
    7.8828   45.3032  131.8019 C   0  0  0  0  0  0  0  0  0  0  0  0
    7.5741   46.4045  130.8649 C   0  0  0  0  0  0  0  0  0  0  0  0
    8.0598   47.6360  130.9433 C   0  0  0  0  0  0  0  0  0  0  0  0
    7.6325   48.6041  129.9075 C   0  0  0  0  0  0  0  0  0  0  0  0
    8.4879   49.8129  129.8010 C   0  0  0  0  0  0  0  0  0  0  0  0
    7.8652   50.9372  130.3438 O   0  0  0  0  0  0  0  0  0  0  0  0
    9.8607   49.6336  130.4080 C   0  0  0  0  0  0  0  0  0  0  0  0
    9.7922   49.2030  131.8360 C   0  0  0  0  0  0  0  0  0  0  0  0
    8.9855   47.9483  132.0561 C   0  0  0  0  0  0  0  0  0  0  0  0
    9.8409   44.4772  133.1498 C   0  0  0  0  0  0  0  0  0  0  0  0
    9.0731   43.1878  133.3754 C   0  0  0  0  0  0  0  0  0  0  0  0
   10.2427   42.1916  133.3630 C   0  0  0  0  0  0  0  0  0  0  0  0
   10.9572   42.6740  132.0975 C   0  0  0  0  0  0  0  0  0  0  0  0
   12.2265   42.1074  132.1088 O   0  0  0  0  0  0  0  0  0  0  0  0
    8.5525   51.4602  130.8245 H   0  0  0  0  0  0  0  0  0  0  0  0
   12.6785   42.3684  131.2795 H   0  0  0  0  0  0  0  0  0  0  0  0
    8.1722   48.1770  133.2781 C   0  0  0  0  0  0  0  0  0  0  0  0
    8.5217   47.8271  134.4912 C   0  0  0  0  0  0  0  0  0  0  0  0
   10.2562   42.1722  130.9414 C   0  0  0  0  0  0  0  0  0  0  0  0
    9.6775   41.7619  129.9664 C   0  0  0  0  0  0  0  0  0  0  0  0
  2  1  1  0  0  0
  2  3  1  0  0  0
  3  4  1  0  0  0
  4  5  1  0  0  0
  5  6  1  0  0  0
  6  7  1  0  0  0
  7  8  1  0  0  0
  8  9  2  0  0  0
  9 10  1  0  0  0
 10 11  1  0  0  0
 11 12  1  0  0  0
 11 13  1  0  0  0
 13 14  1  0  0  0
 14 15  1  0  0  0
 15 23  1  0  0  0
 23 24  2  0  0  0
  6 16  1  0  0  0
 16 17  1  0  0  0
 17 18  1  0  0  0
 18 19  1  0  0  0
 19 20  1  0  0  0
 19 25  1  0  0  0
 25 26  3  0  0  0
 16  2  1  0  0  0
 19  2  1  0  0  0
 15  5  1  0  0  0
 15  9  1  0  0  0
 12 21  1  0  0  0
 20 22  1  0  0  0
M  END
> <minimizedAffinity>
-5.76037

> <CNNscore>
0.3621786535

> <CNNaffinity>
7.3820557594

> <CNN_VS>
2.6736230850

> <CNNaffinity_variance>
0.3639292717

$$$$
[H]Oc1c([H])c([H])c2c(c1[H])C([H])([H])C([H])([H])C([H])([H])C(c1c([H])c([H])c(OC([H])([H])C(F)(F)F)c([H])c1[H])=C2c1c([H])c([H])c(O[C@]2([H])C([H])([H])N(C([H])([H])C([H])([H])C([H])([H])F)C([H])([H])C2([H])[H])c([H])c1[H]


 41 45  0  0  0  0  0  0  0  0999 V2000
    8.6510   42.3399  125.9332 O   0  0  0  0  0  0  0  0  0  0  0  0
    8.9933   43.0380  127.0786 C   0  0  0  0  0  0  0  0  0  0  0  0
    8.2582   44.1384  127.4830 C   0  0  0  0  0  0  0  0  0  0  0  0
    8.5905   44.8574  128.6392 C   0  0  0  0  0  0  0  0  0  0  0  0
    9.6916   44.4363  129.3830 C   0  0  0  0  0  0  0  0  0  0  0  0
   10.4000   43.3379  128.9541 C   0  0  0  0  0  0  0  0  0  0  0  0
   11.5732   42.7934  129.7271 C   0  0  0  0  0  0  0  0  0  0  0  0
   10.9843   42.4786  131.0894 C   0  0  0  0  0  0  0  0  0  0  0  0
   10.9818   43.5483  132.0771 C   0  0  0  0  0  0  0  0  0  0  0  0
   10.4589   44.8902  131.6702 C   0  0  0  0  0  0  0  0  0  0  0  0
    9.9069   45.3210  130.5599 C   0  0  0  0  0  0  0  0  0  0  0  0
   10.0804   42.6323  127.8260 C   0  0  0  0  0  0  0  0  0  0  0  0
    9.1684   41.5324  125.6126 H   0  0  0  0  0  0  0  0  0  0  0  0
   10.7135   45.8404  132.7567 C   0  0  0  0  0  0  0  0  0  0  0  0
   12.0045   46.0690  133.2081 C   0  0  0  0  0  0  0  0  0  0  0  0
   12.2126   47.0169  134.1806 C   0  0  0  0  0  0  0  0  0  0  0  0
   11.1868   47.7483  134.7237 C   0  0  0  0  0  0  0  0  0  0  0  0
    9.9077   47.5317  134.2859 C   0  0  0  0  0  0  0  0  0  0  0  0
    9.6981   46.5667  133.2956 C   0  0  0  0  0  0  0  0  0  0  0  0
   11.4108   48.6988  135.7007 O   0  0  0  0  0  0  0  0  0  0  0  0
   12.1933   48.4144  136.8228 C   0  0  0  0  0  0  0  0  0  0  0  0
   13.5005   49.2087  136.7015 C   0  0  0  0  0  0  0  0  0  0  0  0
   14.5851   48.3714  136.7411 F   0  0  0  0  0  0  0  0  0  0  0  0
   13.4737   49.9485  135.5409 F   0  0  0  0  0  0  0  0  0  0  0  0
   13.5456   50.0155  137.8301 F   0  0  0  0  0  0  0  0  0  0  0  0
    9.4001   46.6764  130.4174 C   0  0  0  0  0  0  0  0  0  0  0  0
   10.1760   47.8042  130.3017 C   0  0  0  0  0  0  0  0  0  0  0  0
    9.6722   49.0686  130.1585 C   0  0  0  0  0  0  0  0  0  0  0  0
    8.2896   49.2872  130.1216 C   0  0  0  0  0  0  0  0  0  0  0  0
    7.4916   48.1770  130.2354 C   0  0  0  0  0  0  0  0  0  0  0  0
    8.0159   46.9162  130.3781 C   0  0  0  0  0  0  0  0  0  0  0  0
    7.7801   50.5391  129.9809 O   0  0  0  0  0  0  0  0  0  0  0  0
    6.6928   50.9209  129.2014 C   0  0  0  0  0  0  0  0  0  0  0  0
    6.1841   52.2606  129.7204 C   0  0  0  0  0  0  0  0  0  0  0  0
    6.8988   53.2824  128.8849 C   0  0  0  0  0  0  0  0  0  0  0  0
    7.6027   52.5615  127.8990 N   0  0  0  0  0  0  0  0  0  0  0  0
    7.1102   51.2475  127.7538 C   0  0  0  0  0  0  0  0  0  0  0  0
    7.8182   53.2891  126.6705 C   0  0  0  0  0  0  0  0  0  0  0  0
    7.1713   54.6471  126.6749 C   0  0  0  0  0  0  0  0  0  0  0  0
    6.0532   54.6287  125.6485 C   0  0  0  0  0  0  0  0  0  0  0  0
    6.6869   54.5822  124.3990 F   0  0  0  0  0  0  0  0  0  0  0  0
  1  2  1  0  0  0
  2  3  2  0  0  0
  3  4  1  0  0  0
  4  5  2  0  0  0
  5  6  1  0  0  0
  6  7  1  0  0  0
  7  8  1  0  0  0
  8  9  1  0  0  0
  9 10  1  0  0  0
 10 14  1  0  0  0
 14 15  2  0  0  0
 15 16  1  0  0  0
 16 17  2  0  0  0
 17 20  1  0  0  0
 20 21  1  0  0  0
 21 22  1  0  0  0
 22 23  1  0  0  0
 22 24  1  0  0  0
 22 25  1  0  0  0
 17 18  1  0  0  0
 18 19  2  0  0  0
 10 11  2  0  0  0
 11 26  1  0  0  0
 26 27  2  0  0  0
 27 28  1  0  0  0
 28 29  2  0  0  0
 29 32  1  0  0  0
 32 33  1  0  0  0
 33 34  1  0  0  0
 34 35  1  0  0  0
 35 36  1  0  0  0
 36 38  1  0  0  0
 38 39  1  0  0  0
 39 40  1  0  0  0
 40 41  1  0  0  0
 36 37  1  0  0  0
 29 30  1  0  0  0
 30 31  2  0  0  0
  6 12  2  0  0  0
 12  2  1  0  0  0
 11  5  1  0  0  0
 31 26  1  0  0  0
 19 14  1  0  0  0
 37 33  1  0  0  0
  1 13  1  0  0  0
M  END
> <minimizedAffinity>
19.90155

> <CNNscore>
0.4391842484

> <CNNaffinity>
7.8282136917

> <CNN_VS>
3.4380280972

> <CNNaffinity_variance>
2.4253334999

$$$$
[H]Oc1c([H])c([H])c2c(c1[H])C([H])([H])C([H])([H])C([H])([H])C(c1c([H])c([H])c(OC([H])([H])C(F)(F)F)c([H])c1[H])=C2c1c([H])c([H])c(O[C@]2([H])C([H])([H])N(C([H])([H])C([H])([H])C([H])([H])F)C([H])([H])C2([H])[H])c([H])c1[H]


 41 45  0  0  0  0  0  0  0  0999 V2000
   13.6869   48.8341  137.2087 O   0  0  0  0  0  0  0  0  0  0  0  0
   12.8341   48.8655  136.1187 C   0  0  0  0  0  0  0  0  0  0  0  0
   12.2040   47.7144  135.6795 C   0  0  0  0  0  0  0  0  0  0  0  0
   11.3382   47.7274  134.5776 C   0  0  0  0  0  0  0  0  0  0  0  0
   11.1221   48.9394  133.9240 C   0  0  0  0  0  0  0  0  0  0  0  0
   11.7627   50.0653  134.3869 C   0  0  0  0  0  0  0  0  0  0  0  0
   11.5457   51.4200  133.7638 C   0  0  0  0  0  0  0  0  0  0  0  0
   10.0496   51.6347  133.8956 C   0  0  0  0  0  0  0  0  0  0  0  0
    9.2077   51.1355  132.8177 C   0  0  0  0  0  0  0  0  0  0  0  0
    9.4116   49.7286  132.3500 C   0  0  0  0  0  0  0  0  0  0  0  0
   10.1948   48.7641  132.7735 C   0  0  0  0  0  0  0  0  0  0  0  0
   12.6094   50.0585  135.4619 C   0  0  0  0  0  0  0  0  0  0  0  0
   14.1612   49.6581  137.5530 H   0  0  0  0  0  0  0  0  0  0  0  0
    8.5857   49.5073  131.1595 C   0  0  0  0  0  0  0  0  0  0  0  0
    7.3665   50.1517  131.0151 C   0  0  0  0  0  0  0  0  0  0  0  0
    6.6517   49.9738  129.8553 C   0  0  0  0  0  0  0  0  0  0  0  0
    7.1011   49.1793  128.8311 C   0  0  0  0  0  0  0  0  0  0  0  0
    8.3038   48.5380  128.9619 C   0  0  0  0  0  0  0  0  0  0  0  0
    9.0299   48.7209  130.1431 C   0  0  0  0  0  0  0  0  0  0  0  0
    6.3721   49.0099  127.6700 O   0  0  0  0  0  0  0  0  0  0  0  0
    5.2620   48.1625  127.6284 C   0  0  0  0  0  0  0  0  0  0  0  0
    5.2718   47.3072  128.9023 C   0  0  0  0  0  0  0  0  0  0  0  0
    6.5076   46.7502  129.1060 F   0  0  0  0  0  0  0  0  0  0  0  0
    4.8835   48.0835  129.9708 F   0  0  0  0  0  0  0  0  0  0  0  0
    4.3761   46.2753  128.6581 F   0  0  0  0  0  0  0  0  0  0  0  0
   10.1679   47.4296  132.1968 C   0  0  0  0  0  0  0  0  0  0  0  0
    9.1190   46.5473  132.2899 C   0  0  0  0  0  0  0  0  0  0  0  0
    9.1163   45.2993  131.7283 C   0  0  0  0  0  0  0  0  0  0  0  0
   10.2225   44.8391  131.0036 C   0  0  0  0  0  0  0  0  0  0  0  0
   11.2845   45.7012  130.8955 C   0  0  0  0  0  0  0  0  0  0  0  0
   11.2683   46.9498  131.4659 C   0  0  0  0  0  0  0  0  0  0  0  0
   10.2294   43.6012  130.4433 O   0  0  0  0  0  0  0  0  0  0  0  0
   10.5114   42.3944  131.0757 C   0  0  0  0  0  0  0  0  0  0  0  0
   12.0054   42.3533  131.3748 C   0  0  0  0  0  0  0  0  0  0  0  0
   12.1236   42.8932  132.7703 C   0  0  0  0  0  0  0  0  0  0  0  0
   10.8052   43.0575  133.2413 N   0  0  0  0  0  0  0  0  0  0  0  0
    9.8764   42.3187  132.4784 C   0  0  0  0  0  0  0  0  0  0  0  0
   10.6676   42.9467  134.6745 C   0  0  0  0  0  0  0  0  0  0  0  0
   11.0049   44.2238  135.3941 C   0  0  0  0  0  0  0  0  0  0  0  0
   10.9932   43.9310  136.8834 C   0  0  0  0  0  0  0  0  0  0  0  0
   11.8611   42.8449  137.0626 F   0  0  0  0  0  0  0  0  0  0  0  0
  1  2  1  0  0  0
  2  3  2  0  0  0
  3  4  1  0  0  0
  4  5  2  0  0  0
  5  6  1  0  0  0
  6  7  1  0  0  0
  7  8  1  0  0  0
  8  9  1  0  0  0
  9 10  1  0  0  0
 10 14  1  0  0  0
 14 15  2  0  0  0
 15 16  1  0  0  0
 16 17  2  0  0  0
 17 20  1  0  0  0
 20 21  1  0  0  0
 21 22  1  0  0  0
 22 23  1  0  0  0
 22 24  1  0  0  0
 22 25  1  0  0  0
 17 18  1  0  0  0
 18 19  2  0  0  0
 10 11  2  0  0  0
 11 26  1  0  0  0
 26 27  2  0  0  0
 27 28  1  0  0  0
 28 29  2  0  0  0
 29 32  1  0  0  0
 32 33  1  0  0  0
 33 34  1  0  0  0
 34 35  1  0  0  0
 35 36  1  0  0  0
 36 38  1  0  0  0
 38 39  1  0  0  0
 39 40  1  0  0  0
 40 41  1  0  0  0
 36 37  1  0  0  0
 29 30  1  0  0  0
 30 31  2  0  0  0
  6 12  2  0  0  0
 12  2  1  0  0  0
 11  5  1  0  0  0
 31 26  1  0  0  0
 19 14  1  0  0  0
 37 33  1  0  0  0
  1 13  1  0  0  0
M  END
> <minimizedAffinity>
22.92387

> <CNNscore>
0.3848336339

> <CNNaffinity>
7.8434972763

> <CNN_VS>
3.0184416771

> <CNNaffinity_variance>
1.3085192442

$$$$
[H]Oc1c([H])c([H])c2c(c1[H])C([H])([H])C([H])([H])C([H])([H])C(c1c([H])c([H])c(OC([H])([H])C(F)(F)F)c([H])c1[H])=C2c1c([H])c([H])c(O[C@]2([H])C([H])([H])N(C([H])([H])C([H])([H])C([H])([H])F)C([H])([H])C2([H])[H])c([H])c1[H]


 41 45  0  0  0  0  0  0  0  0999 V2000
   10.9209   40.0006  130.6161 O   0  0  0  0  0  0  0  0  0  0  0  0
   10.4718   41.2970  130.4319 C   0  0  0  0  0  0  0  0  0  0  0  0
   10.6495   42.2540  131.4154 C   0  0  0  0  0  0  0  0  0  0  0  0
   10.2007   43.5709  131.2466 C   0  0  0  0  0  0  0  0  0  0  0  0
    9.5629   43.9013  130.0521 C   0  0  0  0  0  0  0  0  0  0  0  0
    9.4036   42.9268  129.0944 C   0  0  0  0  0  0  0  0  0  0  0  0
    8.7663   43.2160  127.7599 C   0  0  0  0  0  0  0  0  0  0  0  0
    9.6384   44.3145  127.1817 C   0  0  0  0  0  0  0  0  0  0  0  0
    9.2870   45.6879  127.5136 C   0  0  0  0  0  0  0  0  0  0  0  0
    9.0396   46.0311  128.9491 C   0  0  0  0  0  0  0  0  0  0  0  0
    9.1401   45.3281  130.0531 C   0  0  0  0  0  0  0  0  0  0  0  0
    9.8393   41.6395  129.2539 C   0  0  0  0  0  0  0  0  0  0  0  0
   10.8060   39.2798  129.9162 H   0  0  0  0  0  0  0  0  0  0  0  0
    8.5377   47.4063  129.0213 C   0  0  0  0  0  0  0  0  0  0  0  0
    9.3845   48.4513  129.3581 C   0  0  0  0  0  0  0  0  0  0  0  0
    8.8955   49.7352  129.3485 C   0  0  0  0  0  0  0  0  0  0  0  0
    7.5957   50.0227  129.0170 C   0  0  0  0  0  0  0  0  0  0  0  0
    6.7499   48.9992  128.6823 C   0  0  0  0  0  0  0  0  0  0  0  0
    7.2500   47.6931  128.6922 C   0  0  0  0  0  0  0  0  0  0  0  0
    7.1175   51.3187  129.0110 O   0  0  0  0  0  0  0  0  0  0  0  0
    6.5143   51.8634  127.8745 C   0  0  0  0  0  0  0  0  0  0  0  0
    7.0806   53.2746  127.6688 C   0  0  0  0  0  0  0  0  0  0  0  0
    6.1343   54.1055  127.1276 F   0  0  0  0  0  0  0  0  0  0  0  0
    7.5473   53.7540  128.8719 F   0  0  0  0  0  0  0  0  0  0  0  0
    8.0998   53.1287  126.7379 F   0  0  0  0  0  0  0  0  0  0  0  0
    8.9136   45.9065  131.3677 C   0  0  0  0  0  0  0  0  0  0  0  0
    8.0590   45.4030  132.3182 C   0  0  0  0  0  0  0  0  0  0  0  0
    7.8722   45.9627  133.5531 C   0  0  0  0  0  0  0  0  0  0  0  0
    8.5667   47.1199  133.9259 C   0  0  0  0  0  0  0  0  0  0  0  0
    9.4271   47.6437  132.9943 C   0  0  0  0  0  0  0  0  0  0  0  0
    9.6013   47.0676  131.7604 C   0  0  0  0  0  0  0  0  0  0  0  0
    8.3869   47.6834  135.1493 O   0  0  0  0  0  0  0  0  0  0  0  0
    9.2775   47.6732  136.2181 C   0  0  0  0  0  0  0  0  0  0  0  0
    9.2253   46.2945  136.8659 C   0  0  0  0  0  0  0  0  0  0  0  0
   10.3217   45.5218  136.1922 C   0  0  0  0  0  0  0  0  0  0  0  0
   11.0074   46.4433  135.3751 N   0  0  0  0  0  0  0  0  0  0  0  0
   10.7416   47.7780  135.7469 C   0  0  0  0  0  0  0  0  0  0  0  0
   12.3968   46.1203  135.1509 C   0  0  0  0  0  0  0  0  0  0  0  0
   12.6213   45.3636  133.8704 C   0  0  0  0  0  0  0  0  0  0  0  0
   12.4550   43.8855  134.1729 C   0  0  0  0  0  0  0  0  0  0  0  0
   13.0267   43.2099  133.0858 F   0  0  0  0  0  0  0  0  0  0  0  0
  1  2  1  0  0  0
  2  3  2  0  0  0
  3  4  1  0  0  0
  4  5  2  0  0  0
  5  6  1  0  0  0
  6  7  1  0  0  0
  7  8  1  0  0  0
  8  9  1  0  0  0
  9 10  1  0  0  0
 10 14  1  0  0  0
 14 15  2  0  0  0
 15 16  1  0  0  0
 16 17  2  0  0  0
 17 20  1  0  0  0
 20 21  1  0  0  0
 21 22  1  0  0  0
 22 23  1  0  0  0
 22 24  1  0  0  0
 22 25  1  0  0  0
 17 18  1  0  0  0
 18 19  2  0  0  0
 10 11  2  0  0  0
 11 26  1  0  0  0
 26 27  2  0  0  0
 27 28  1  0  0  0
 28 29  2  0  0  0
 29 32  1  0  0  0
 32 33  1  0  0  0
 33 34  1  0  0  0
 34 35  1  0  0  0
 35 36  1  0  0  0
 36 38  1  0  0  0
 38 39  1  0  0  0
 39 40  1  0  0  0
 40 41  1  0  0  0
 36 37  1  0  0  0
 29 30  1  0  0  0
 30 31  2  0  0  0
  6 12  2  0  0  0
 12  2  1  0  0  0
 11  5  1  0  0  0
 31 26  1  0  0  0
 19 14  1  0  0  0
 37 33  1  0  0  0
  1 13  1  0  0  0
M  END
> <minimizedAffinity>
16.31486

> <CNNscore>
0.3788006604

> <CNNaffinity>
7.8628110886

> <CNN_VS>
2.9784381390

> <CNNaffinity_variance>
1.3024362326

$$$$
[H]Oc1c([H])c([H])c2c(c1[H])C([H])([H])C([H])([H])C([H])([H])C(c1c([H])c([H])c(OC([H])([H])C(F)(F)F)c([H])c1[H])=C2c1c([H])c([H])c(O[C@]2([H])C([H])([H])N(C([H])([H])C([H])([H])C([H])([H])F)C([H])([H])C2([H])[H])c([H])c1[H]


 41 45  0  0  0  0  0  0  0  0999 V2000
    8.0627   52.6026  131.6839 O   0  0  0  0  0  0  0  0  0  0  0  0
    8.2895   51.3052  131.2575 C   0  0  0  0  0  0  0  0  0  0  0  0
    8.8346   50.3641  132.1131 C   0  0  0  0  0  0  0  0  0  0  0  0
    9.0717   49.0466  131.6984 C   0  0  0  0  0  0  0  0  0  0  0  0
    8.7434   48.6989  130.3891 C   0  0  0  0  0  0  0  0  0  0  0  0
    8.2018   49.6579  129.5649 C   0  0  0  0  0  0  0  0  0  0  0  0
    7.7782   49.3492  128.1522 C   0  0  0  0  0  0  0  0  0  0  0  0
    6.7603   48.2372  128.3228 C   0  0  0  0  0  0  0  0  0  0  0  0
    7.2636   46.8712  128.3444 C   0  0  0  0  0  0  0  0  0  0  0  0
    8.4183   46.5532  129.2418 C   0  0  0  0  0  0  0  0  0  0  0  0
    9.0773   47.2743  130.1186 C   0  0  0  0  0  0  0  0  0  0  0  0
    7.9685   50.9458  129.9642 C   0  0  0  0  0  0  0  0  0  0  0  0
    7.6657   53.3119  131.0825 H   0  0  0  0  0  0  0  0  0  0  0  0
    8.8579   45.1817  128.9699 C   0  0  0  0  0  0  0  0  0  0  0  0
    8.2516   44.1066  129.6016 C   0  0  0  0  0  0  0  0  0  0  0  0
    8.6429   42.8318  129.2708 C   0  0  0  0  0  0  0  0  0  0  0  0
    9.6148   42.5822  128.3353 C   0  0  0  0  0  0  0  0  0  0  0  0
   10.2206   43.6357  127.7045 C   0  0  0  0  0  0  0  0  0  0  0  0
    9.8204   44.9325  128.0424 C   0  0  0  0  0  0  0  0  0  0  0  0
    9.9980   41.2950  128.0120 O   0  0  0  0  0  0  0  0  0  0  0  0
   10.7574   41.0302  126.8695 C   0  0  0  0  0  0  0  0  0  0  0  0
   10.6658   39.5264  126.5786 C   0  0  0  0  0  0  0  0  0  0  0  0
   10.6171   38.8066  127.7440 F   0  0  0  0  0  0  0  0  0  0  0  0
    9.5651   39.2854  125.7878 F   0  0  0  0  0  0  0  0  0  0  0  0
   11.8505   39.2053  125.9305 F   0  0  0  0  0  0  0  0  0  0  0  0
   10.1386   46.7191  130.9429 C   0  0  0  0  0  0  0  0  0  0  0  0
   11.2658   46.0936  130.4678 C   0  0  0  0  0  0  0  0  0  0  0  0
   12.2552   45.5884  131.2671 C   0  0  0  0  0  0  0  0  0  0  0  0
   12.1674   45.6852  132.6611 C   0  0  0  0  0  0  0  0  0  0  0  0
   11.0508   46.3056  133.1620 C   0  0  0  0  0  0  0  0  0  0  0  0
   10.0687   46.8065  132.3439 C   0  0  0  0  0  0  0  0  0  0  0  0
   13.1442   45.1855  133.4627 O   0  0  0  0  0  0  0  0  0  0  0  0
   13.2329   43.8946  133.9740 C   0  0  0  0  0  0  0  0  0  0  0  0
   12.3088   43.7984  135.1823 C   0  0  0  0  0  0  0  0  0  0  0  0
   11.0141   43.2836  134.6242 C   0  0  0  0  0  0  0  0  0  0  0  0
   11.2637   42.9757  133.2714 N   0  0  0  0  0  0  0  0  0  0  0  0
   12.6434   42.8509  133.0046 C   0  0  0  0  0  0  0  0  0  0  0  0
   10.4248   41.9300  132.7349 C   0  0  0  0  0  0  0  0  0  0  0  0
    9.2015   42.4616  132.0394 C   0  0  0  0  0  0  0  0  0  0  0  0
    8.4264   43.2959  133.0428 C   0  0  0  0  0  0  0  0  0  0  0  0
    7.4843   42.4268  133.6104 F   0  0  0  0  0  0  0  0  0  0  0  0
  1  2  1  0  0  0
  2  3  2  0  0  0
  3  4  1  0  0  0
  4  5  2  0  0  0
  5  6  1  0  0  0
  6  7  1  0  0  0
  7  8  1  0  0  0
  8  9  1  0  0  0
  9 10  1  0  0  0
 10 14  1  0  0  0
 14 15  2  0  0  0
 15 16  1  0  0  0
 16 17  2  0  0  0
 17 20  1  0  0  0
 20 21  1  0  0  0
 21 22  1  0  0  0
 22 23  1  0  0  0
 22 24  1  0  0  0
 22 25  1  0  0  0
 17 18  1  0  0  0
 18 19  2  0  0  0
 10 11  2  0  0  0
 11 26  1  0  0  0
 26 27  2  0  0  0
 27 28  1  0  0  0
 28 29  2  0  0  0
 29 32  1  0  0  0
 32 33  1  0  0  0
 33 34  1  0  0  0
 34 35  1  0  0  0
 35 36  1  0  0  0
 36 38  1  0  0  0
 38 39  1  0  0  0
 39 40  1  0  0  0
 40 41  1  0  0  0
 36 37  1  0  0  0
 29 30  1  0  0  0
 30 31  2  0  0  0
  6 12  2  0  0  0
 12  2  1  0  0  0
 11  5  1  0  0  0
 31 26  1  0  0  0
 19 14  1  0  0  0
 37 33  1  0  0  0
  1 13  1  0  0  0
M  END
> <minimizedAffinity>
14.99449

> <CNNscore>
0.3770535886

> <CNNaffinity>
7.8004174232

> <CNN_VS>
2.9411754608

> <CNNaffinity_variance>
0.6640923619

$$$$
[H]Oc1c([H])c([H])c2c(c1[H])C([H])([H])C([H])([H])C([H])([H])C(c1c([H])c([H])c(OC([H])([H])C(F)(F)F)c([H])c1[H])=C2c1c([H])c([H])c(O[C@]2([H])C([H])([H])N(C([H])([H])C([H])([H])C([H])([H])F)C([H])([H])C2([H])[H])c([H])c1[H]


 41 45  0  0  0  0  0  0  0  0999 V2000
   10.2378   39.3360  127.3570 O   0  0  0  0  0  0  0  0  0  0  0  0
   10.0628   40.6586  127.7265 C   0  0  0  0  0  0  0  0  0  0  0  0
   10.3653   41.0812  129.0089 C   0  0  0  0  0  0  0  0  0  0  0  0
   10.1939   42.4158  129.4006 C   0  0  0  0  0  0  0  0  0  0  0  0
    9.7054   43.3208  128.4598 C   0  0  0  0  0  0  0  0  0  0  0  0
    9.4159   42.8685  127.1934 C   0  0  0  0  0  0  0  0  0  0  0  0
    8.9282   43.7928  126.1079 C   0  0  0  0  0  0  0  0  0  0  0  0
   10.0313   44.8292  126.0034 C   0  0  0  0  0  0  0  0  0  0  0  0
    9.9363   45.9929  126.8730 C   0  0  0  0  0  0  0  0  0  0  0  0
    9.6757   45.7720  128.3301 C   0  0  0  0  0  0  0  0  0  0  0  0
    9.5707   44.6798  129.0507 C   0  0  0  0  0  0  0  0  0  0  0  0
    9.5810   41.5666  126.8055 C   0  0  0  0  0  0  0  0  0  0  0  0
   10.0260   38.9975  126.4279 H   0  0  0  0  0  0  0  0  0  0  0  0
    9.4492   47.0725  128.9670 C   0  0  0  0  0  0  0  0  0  0  0  0
   10.5142   47.9089  129.2651 C   0  0  0  0  0  0  0  0  0  0  0  0
   10.2588   49.1490  129.7986 C   0  0  0  0  0  0  0  0  0  0  0  0
    8.9847   49.5921  130.0483 C   0  0  0  0  0  0  0  0  0  0  0  0
    7.9249   48.7752  129.7579 C   0  0  0  0  0  0  0  0  0  0  0  0
    8.1870   47.5135  129.2144 C   0  0  0  0  0  0  0  0  0  0  0  0
    8.7426   50.8419  130.5846 O   0  0  0  0  0  0  0  0  0  0  0  0
    8.6444   51.0314  131.9654 C   0  0  0  0  0  0  0  0  0  0  0  0
    9.6183   50.0608  132.6465 C   0  0  0  0  0  0  0  0  0  0  0  0
   10.1628   50.6253  133.7706 F   0  0  0  0  0  0  0  0  0  0  0  0
    8.9582   48.8882  132.9372 F   0  0  0  0  0  0  0  0  0  0  0  0
   10.6428   49.8660  131.7304 F   0  0  0  0  0  0  0  0  0  0  0  0
    9.3837   44.7133  130.4922 C   0  0  0  0  0  0  0  0  0  0  0  0
   10.3804   44.5537  131.4242 C   0  0  0  0  0  0  0  0  0  0  0  0
   10.1779   44.5998  132.7770 C   0  0  0  0  0  0  0  0  0  0  0  0
    8.8982   44.8193  133.3012 C   0  0  0  0  0  0  0  0  0  0  0  0
    7.8841   44.9818  132.3913 C   0  0  0  0  0  0  0  0  0  0  0  0
    8.1071   44.9325  131.0375 C   0  0  0  0  0  0  0  0  0  0  0  0
    8.6873   44.8655  134.6427 O   0  0  0  0  0  0  0  0  0  0  0  0
    9.6478   45.0013  135.6400 C   0  0  0  0  0  0  0  0  0  0  0  0
   10.3291   43.6511  135.8296 C   0  0  0  0  0  0  0  0  0  0  0  0
   11.5297   43.7073  134.9306 C   0  0  0  0  0  0  0  0  0  0  0  0
   11.5829   45.0230  134.4272 N   0  0  0  0  0  0  0  0  0  0  0  0
   10.8087   45.9148  135.1989 C   0  0  0  0  0  0  0  0  0  0  0  0
   12.9113   45.4773  134.0898 C   0  0  0  0  0  0  0  0  0  0  0  0
   12.9367   46.9025  133.6091 C   0  0  0  0  0  0  0  0  0  0  0  0
   11.5056   47.3168  133.3188 C   0  0  0  0  0  0  0  0  0  0  0  0
   11.3614   47.2304  131.9271 F   0  0  0  0  0  0  0  0  0  0  0  0
  1  2  1  0  0  0
  2  3  2  0  0  0
  3  4  1  0  0  0
  4  5  2  0  0  0
  5  6  1  0  0  0
  6  7  1  0  0  0
  7  8  1  0  0  0
  8  9  1  0  0  0
  9 10  1  0  0  0
 10 14  1  0  0  0
 14 15  2  0  0  0
 15 16  1  0  0  0
 16 17  2  0  0  0
 17 20  1  0  0  0
 20 21  1  0  0  0
 21 22  1  0  0  0
 22 23  1  0  0  0
 22 24  1  0  0  0
 22 25  1  0  0  0
 17 18  1  0  0  0
 18 19  2  0  0  0
 10 11  2  0  0  0
 11 26  1  0  0  0
 26 27  2  0  0  0
 27 28  1  0  0  0
 28 29  2  0  0  0
 29 32  1  0  0  0
 32 33  1  0  0  0
 33 34  1  0  0  0
 34 35  1  0  0  0
 35 36  1  0  0  0
 36 38  1  0  0  0
 38 39  1  0  0  0
 39 40  1  0  0  0
 40 41  1  0  0  0
 36 37  1  0  0  0
 29 30  1  0  0  0
 30 31  2  0  0  0
  6 12  2  0  0  0
 12  2  1  0  0  0
 11  5  1  0  0  0
 31 26  1  0  0  0
 19 14  1  0  0  0
 37 33  1  0  0  0
  1 13  1  0  0  0
M  END
> <minimizedAffinity>
22.07188

> <CNNscore>
0.3674129248

> <CNNaffinity>
7.6769051552

> <CNN_VS>
2.8205940723

> <CNNaffinity_variance>
1.0345900059

$$$$
[H]Oc1c([H])c([H])c2c(c1[H])C([H])([H])C([H])([H])C([H])([H])C(c1c([H])c([H])c(OC([H])([H])C(F)(F)F)c([H])c1[H])=C2c1c([H])c([H])c(O[C@]2([H])C([H])([H])N(C([H])([H])C([H])([H])C([H])([H])F)C([H])([H])C2([H])[H])c([H])c1[H]


 41 45  0  0  0  0  0  0  0  0999 V2000
   11.1267   39.0009  130.9123 O   0  0  0  0  0  0  0  0  0  0  0  0
   10.9557   40.3279  131.2677 C   0  0  0  0  0  0  0  0  0  0  0  0
    9.8151   41.0184  130.8977 C   0  0  0  0  0  0  0  0  0  0  0  0
    9.6254   42.3621  131.2481 C   0  0  0  0  0  0  0  0  0  0  0  0
   10.6226   42.9973  131.9862 C   0  0  0  0  0  0  0  0  0  0  0  0
   11.7433   42.2819  132.3391 C   0  0  0  0  0  0  0  0  0  0  0  0
   12.8435   42.8832  133.1749 C   0  0  0  0  0  0  0  0  0  0  0  0
   12.1309   43.3097  134.4445 C   0  0  0  0  0  0  0  0  0  0  0  0
   11.5480   44.6437  134.4650 C   0  0  0  0  0  0  0  0  0  0  0  0
   10.6863   45.0607  133.3146 C   0  0  0  0  0  0  0  0  0  0  0  0
   10.2638   44.4169  132.2516 C   0  0  0  0  0  0  0  0  0  0  0  0
   11.9340   40.9701  131.9995 C   0  0  0  0  0  0  0  0  0  0  0  0
   11.9486   38.4702  131.1681 H   0  0  0  0  0  0  0  0  0  0  0  0
   10.3594   46.4814  133.4662 C   0  0  0  0  0  0  0  0  0  0  0  0
   11.0951   47.4509  132.8019 C   0  0  0  0  0  0  0  0  0  0  0  0
   10.7171   48.7672  132.9129 C   0  0  0  0  0  0  0  0  0  0  0  0
    9.6349   49.1592  133.6593 C   0  0  0  0  0  0  0  0  0  0  0  0
    8.9004   48.2109  134.3196 C   0  0  0  0  0  0  0  0  0  0  0  0
    9.2867   46.8716  134.2049 C   0  0  0  0  0  0  0  0  0  0  0  0
    9.2658   50.4865  133.7616 O   0  0  0  0  0  0  0  0  0  0  0  0
    9.4601   51.3764  132.7022 C   0  0  0  0  0  0  0  0  0  0  0  0
    8.8520   50.7499  131.4404 C   0  0  0  0  0  0  0  0  0  0  0  0
    9.8309   50.2303  130.6338 F   0  0  0  0  0  0  0  0  0  0  0  0
    7.9366   49.7900  131.8088 F   0  0  0  0  0  0  0  0  0  0  0  0
    8.2550   51.8019  130.7597 F   0  0  0  0  0  0  0  0  0  0  0  0
    9.3569   45.0177  131.2869 C   0  0  0  0  0  0  0  0  0  0  0  0
    9.7311   45.5753  130.0884 C   0  0  0  0  0  0  0  0  0  0  0  0
    8.8542   46.1258  129.1933 C   0  0  0  0  0  0  0  0  0  0  0  0
    7.4803   46.1512  129.4619 C   0  0  0  0  0  0  0  0  0  0  0  0
    7.0796   45.6007  130.6531 C   0  0  0  0  0  0  0  0  0  0  0  0
    7.9746   45.0527  131.5383 C   0  0  0  0  0  0  0  0  0  0  0  0
    6.6023   46.6968  128.5799 O   0  0  0  0  0  0  0  0  0  0  0  0
    5.7426   47.7676  128.8036 C   0  0  0  0  0  0  0  0  0  0  0  0
    6.0550   48.3476  130.1780 C   0  0  0  0  0  0  0  0  0  0  0  0
    7.0431   49.4443  129.9067 C   0  0  0  0  0  0  0  0  0  0  0  0
    7.1325   49.5549  128.5042 N   0  0  0  0  0  0  0  0  0  0  0  0
    6.0364   48.9477  127.8561 C   0  0  0  0  0  0  0  0  0  0  0  0
    7.4872   50.8730  128.0331 C   0  0  0  0  0  0  0  0  0  0  0  0
    6.6298   51.9563  128.6282 C   0  0  0  0  0  0  0  0  0  0  0  0
    7.1148   53.2842  128.0755 C   0  0  0  0  0  0  0  0  0  0  0  0
    7.3807   53.0550  126.7184 F   0  0  0  0  0  0  0  0  0  0  0  0
  1  2  1  0  0  0
  2  3  2  0  0  0
  3  4  1  0  0  0
  4  5  2  0  0  0
  5  6  1  0  0  0
  6  7  1  0  0  0
  7  8  1  0  0  0
  8  9  1  0  0  0
  9 10  1  0  0  0
 10 14  1  0  0  0
 14 15  2  0  0  0
 15 16  1  0  0  0
 16 17  2  0  0  0
 17 20  1  0  0  0
 20 21  1  0  0  0
 21 22  1  0  0  0
 22 23  1  0  0  0
 22 24  1  0  0  0
 22 25  1  0  0  0
 17 18  1  0  0  0
 18 19  2  0  0  0
 10 11  2  0  0  0
 11 26  1  0  0  0
 26 27  2  0  0  0
 27 28  1  0  0  0
 28 29  2  0  0  0
 29 32  1  0  0  0
 32 33  1  0  0  0
 33 34  1  0  0  0
 34 35  1  0  0  0
 35 36  1  0  0  0
 36 38  1  0  0  0
 38 39  1  0  0  0
 39 40  1  0  0  0
 40 41  1  0  0  0
 36 37  1  0  0  0
 29 30  1  0  0  0
 30 31  2  0  0  0
  6 12  2  0  0  0
 12  2  1  0  0  0
 11  5  1  0  0  0
 31 26  1  0  0  0
 19 14  1  0  0  0
 37 33  1  0  0  0
  1 13  1  0  0  0
M  END
> <minimizedAffinity>
12.68139

> <CNNscore>
0.3534775972

> <CNNaffinity>
7.8253722191

> <CNN_VS>
2.7660937309

> <CNNaffinity_variance>
0.5525185466

$$$$
[H]Oc1c([H])c([H])c2c(c1[H])C([H])([H])C([H])([H])C([H])([H])C(c1c([H])c([H])c(OC([H])([H])C(F)(F)F)c([H])c1[H])=C2c1c([H])c([H])c(O[C@]2([H])C([H])([H])N(C([H])([H])C([H])([H])C([H])([H])F)C([H])([H])C2([H])[H])c([H])c1[H]


 41 45  0  0  0  0  0  0  0  0999 V2000
    9.0366   40.9364  129.9899 O   0  0  0  0  0  0  0  0  0  0  0  0
    9.2995   42.2070  130.4724 C   0  0  0  0  0  0  0  0  0  0  0  0
    8.4294   43.2534  130.2218 C   0  0  0  0  0  0  0  0  0  0  0  0
    8.6797   44.5461  130.7017 C   0  0  0  0  0  0  0  0  0  0  0  0
    9.8387   44.7594  131.4460 C   0  0  0  0  0  0  0  0  0  0  0  0
   10.6817   43.6975  131.6784 C   0  0  0  0  0  0  0  0  0  0  0  0
   11.9293   43.8365  132.5119 C   0  0  0  0  0  0  0  0  0  0  0  0
   11.4091   44.3333  133.8477 C   0  0  0  0  0  0  0  0  0  0  0  0
   11.2778   45.7734  134.0174 C   0  0  0  0  0  0  0  0  0  0  0  0
   10.5730   46.5533  132.9522 C   0  0  0  0  0  0  0  0  0  0  0  0
    9.9511   46.1852  131.8564 C   0  0  0  0  0  0  0  0  0  0  0  0
   10.4426   42.4334  131.2121 C   0  0  0  0  0  0  0  0  0  0  0  0
    9.6529   40.1523  130.1568 H   0  0  0  0  0  0  0  0  0  0  0  0
   10.7142   47.9819  133.2479 C   0  0  0  0  0  0  0  0  0  0  0  0
    9.9232   48.9193  132.6012 C   0  0  0  0  0  0  0  0  0  0  0  0
   10.0348   50.2426  132.9535 C   0  0  0  0  0  0  0  0  0  0  0  0
   10.9030   50.6725  133.9249 C   0  0  0  0  0  0  0  0  0  0  0  0
   11.6891   49.7561  134.5708 C   0  0  0  0  0  0  0  0  0  0  0  0
   11.5735   48.4096  134.2109 C   0  0  0  0  0  0  0  0  0  0  0  0
   11.0044   52.0064  134.2694 O   0  0  0  0  0  0  0  0  0  0  0  0
   12.0069   52.4580  135.1315 C   0  0  0  0  0  0  0  0  0  0  0  0
   12.4619   53.8403  134.6449 C   0  0  0  0  0  0  0  0  0  0  0  0
   12.7478   54.6606  135.7052 F   0  0  0  0  0  0  0  0  0  0  0  0
   13.5479   53.6913  133.8122 F   0  0  0  0  0  0  0  0  0  0  0  0
   11.3669   54.3734  133.9790 F   0  0  0  0  0  0  0  0  0  0  0  0
    9.2645   47.1342  130.9949 C   0  0  0  0  0  0  0  0  0  0  0  0
    9.8545   47.8642  129.9917 C   0  0  0  0  0  0  0  0  0  0  0  0
    9.1817   48.7443  129.1881 C   0  0  0  0  0  0  0  0  0  0  0  0
    7.8072   48.9550  129.3523 C   0  0  0  0  0  0  0  0  0  0  0  0
    7.1931   48.2380  130.3480 C   0  0  0  0  0  0  0  0  0  0  0  0
    7.8853   47.3593  131.1440 C   0  0  0  0  0  0  0  0  0  0  0  0
    7.1309   49.8276  128.5600 O   0  0  0  0  0  0  0  0  0  0  0  0
    6.2216   50.7994  128.9655 C   0  0  0  0  0  0  0  0  0  0  0  0
    6.9398   51.7569  129.9091 C   0  0  0  0  0  0  0  0  0  0  0  0
    7.4323   52.8610  129.0196 C   0  0  0  0  0  0  0  0  0  0  0  0
    6.8917   52.6080  127.7426 N   0  0  0  0  0  0  0  0  0  0  0  0
    5.8009   51.7150  127.7989 C   0  0  0  0  0  0  0  0  0  0  0  0
    6.6933   53.7892  126.9361 C   0  0  0  0  0  0  0  0  0  0  0  0
    7.9217   54.6535  126.8539 C   0  0  0  0  0  0  0  0  0  0  0  0
    8.6374   54.3159  125.5587 C   0  0  0  0  0  0  0  0  0  0  0  0
    7.6827   54.4781  124.5452 F   0  0  0  0  0  0  0  0  0  0  0  0
  1  2  1  0  0  0
  2  3  2  0  0  0
  3  4  1  0  0  0
  4  5  2  0  0  0
  5  6  1  0  0  0
  6  7  1  0  0  0
  7  8  1  0  0  0
  8  9  1  0  0  0
  9 10  1  0  0  0
 10 14  1  0  0  0
 14 15  2  0  0  0
 15 16  1  0  0  0
 16 17  2  0  0  0
 17 20  1  0  0  0
 20 21  1  0  0  0
 21 22  1  0  0  0
 22 23  1  0  0  0
 22 24  1  0  0  0
 22 25  1  0  0  0
 17 18  1  0  0  0
 18 19  2  0  0  0
 10 11  2  0  0  0
 11 26  1  0  0  0
 26 27  2  0  0  0
 27 28  1  0  0  0
 28 29  2  0  0  0
 29 32  1  0  0  0
 32 33  1  0  0  0
 33 34  1  0  0  0
 34 35  1  0  0  0
 35 36  1  0  0  0
 36 38  1  0  0  0
 38 39  1  0  0  0
 39 40  1  0  0  0
 40 41  1  0  0  0
 36 37  1  0  0  0
 29 30  1  0  0  0
 30 31  2  0  0  0
  6 12  2  0  0  0
 12  2  1  0  0  0
 11  5  1  0  0  0
 31 26  1  0  0  0
 19 14  1  0  0  0
 37 33  1  0  0  0
  1 13  1  0  0  0
M  END
> <minimizedAffinity>
20.44514

> <CNNscore>
0.3475931585

> <CNNaffinity>
7.8296041489

> <CNN_VS>
2.7215168476

> <CNNaffinity_variance>
0.8249206543

$$$$
[H]Oc1c([H])c([H])c2c(c1[H])C([H])([H])C([H])([H])C([H])([H])C(c1c([H])c([H])c(OC([H])([H])C(F)(F)F)c([H])c1[H])=C2c1c([H])c([H])c(O[C@]2([H])C([H])([H])N(C([H])([H])C([H])([H])C([H])([H])F)C([H])([H])C2([H])[H])c([H])c1[H]


 41 45  0  0  0  0  0  0  0  0999 V2000
    4.3221   52.0867  131.2519 O   0  0  0  0  0  0  0  0  0  0  0  0
    5.2602   51.1190  130.9358 C   0  0  0  0  0  0  0  0  0  0  0  0
    5.6153   50.1497  131.8573 C   0  0  0  0  0  0  0  0  0  0  0  0
    6.5634   49.1629  131.5549 C   0  0  0  0  0  0  0  0  0  0  0  0
    7.1497   49.1782  130.2904 C   0  0  0  0  0  0  0  0  0  0  0  0
    6.7733   50.1545  129.3973 C   0  0  0  0  0  0  0  0  0  0  0  0
    7.3264   50.2110  127.9968 C   0  0  0  0  0  0  0  0  0  0  0  0
    6.9519   48.8615  127.4135 C   0  0  0  0  0  0  0  0  0  0  0  0
    7.8903   47.7663  127.6128 C   0  0  0  0  0  0  0  0  0  0  0  0
    8.4126   47.5201  128.9935 C   0  0  0  0  0  0  0  0  0  0  0  0
    8.1396   48.0760  130.1509 C   0  0  0  0  0  0  0  0  0  0  0  0
    5.8485   51.1206  129.6872 C   0  0  0  0  0  0  0  0  0  0  0  0
    4.0421   52.8072  130.6000 H   0  0  0  0  0  0  0  0  0  0  0  0
    9.4591   46.4965  128.9219 C   0  0  0  0  0  0  0  0  0  0  0  0
    9.1646   45.2134  128.4865 C   0  0  0  0  0  0  0  0  0  0  0  0
   10.1837   44.2997  128.3667 C   0  0  0  0  0  0  0  0  0  0  0  0
   11.4865   44.6109  128.6629 C   0  0  0  0  0  0  0  0  0  0  0  0
   11.7899   45.8748  129.0936 C   0  0  0  0  0  0  0  0  0  0  0  0
   10.7511   46.8033  129.2144 C   0  0  0  0  0  0  0  0  0  0  0  0
   12.5014   43.6822  128.5373 O   0  0  0  0  0  0  0  0  0  0  0  0
   13.7442   44.0343  128.0047 C   0  0  0  0  0  0  0  0  0  0  0  0
   14.7643   44.0446  129.1509 C   0  0  0  0  0  0  0  0  0  0  0  0
   15.5078   42.8931  129.1521 F   0  0  0  0  0  0  0  0  0  0  0  0
   15.5606   45.1618  129.0370 F   0  0  0  0  0  0  0  0  0  0  0  0
   14.0081   44.0630  130.3147 F   0  0  0  0  0  0  0  0  0  0  0  0
    8.7309   47.6127  131.3958 C   0  0  0  0  0  0  0  0  0  0  0  0
    9.7471   48.2423  132.0728 C   0  0  0  0  0  0  0  0  0  0  0  0
   10.2788   47.7890  133.2496 C   0  0  0  0  0  0  0  0  0  0  0  0
    9.7983   46.6172  133.8467 C   0  0  0  0  0  0  0  0  0  0  0  0
    8.7829   45.9684  133.1905 C   0  0  0  0  0  0  0  0  0  0  0  0
    8.2622   46.4390  132.0106 C   0  0  0  0  0  0  0  0  0  0  0  0
   10.3208   46.1588  135.0143 O   0  0  0  0  0  0  0  0  0  0  0  0
   11.4185   45.3184  135.1709 C   0  0  0  0  0  0  0  0  0  0  0  0
   10.9395   44.0300  135.8294 C   0  0  0  0  0  0  0  0  0  0  0  0
   10.6403   43.1107  134.6813 C   0  0  0  0  0  0  0  0  0  0  0  0
   11.0712   43.7808  133.5183 N   0  0  0  0  0  0  0  0  0  0  0  0
   11.9662   44.8302  133.8151 C   0  0  0  0  0  0  0  0  0  0  0  0
   11.4673   42.9058  132.4401 C   0  0  0  0  0  0  0  0  0  0  0  0
   10.5420   42.9817  131.2565 C   0  0  0  0  0  0  0  0  0  0  0  0
    9.1633   43.3525  131.7719 C   0  0  0  0  0  0  0  0  0  0  0  0
    8.6367   42.1767  132.3242 F   0  0  0  0  0  0  0  0  0  0  0  0
  1  2  1  0  0  0
  2  3  2  0  0  0
  3  4  1  0  0  0
  4  5  2  0  0  0
  5  6  1  0  0  0
  6  7  1  0  0  0
  7  8  1  0  0  0
  8  9  1  0  0  0
  9 10  1  0  0  0
 10 14  1  0  0  0
 14 15  2  0  0  0
 15 16  1  0  0  0
 16 17  2  0  0  0
 17 20  1  0  0  0
 20 21  1  0  0  0
 21 22  1  0  0  0
 22 23  1  0  0  0
 22 24  1  0  0  0
 22 25  1  0  0  0
 17 18  1  0  0  0
 18 19  2  0  0  0
 10 11  2  0  0  0
 11 26  1  0  0  0
 26 27  2  0  0  0
 27 28  1  0  0  0
 28 29  2  0  0  0
 29 32  1  0  0  0
 32 33  1  0  0  0
 33 34  1  0  0  0
 34 35  1  0  0  0
 35 36  1  0  0  0
 36 38  1  0  0  0
 38 39  1  0  0  0
 39 40  1  0  0  0
 40 41  1  0  0  0
 36 37  1  0  0  0
 29 30  1  0  0  0
 30 31  2  0  0  0
  6 12  2  0  0  0
 12  2  1  0  0  0
 11  5  1  0  0  0
 31 26  1  0  0  0
 19 14  1  0  0  0
 37 33  1  0  0  0
  1 13  1  0  0  0
M  END
> <minimizedAffinity>
13.57193

> <CNNscore>
0.3332027197

> <CNNaffinity>
7.7212448120

> <CNN_VS>
2.5727398396

> <CNNaffinity_variance>
0.4341737628

$$$$
[H]Oc1c([H])c([H])c2c(c1[H])C([H])([H])C([H])([H])C([H])([H])C(c1c([H])c([H])c(OC([H])([H])C(F)(F)F)c([H])c1[H])=C2c1c([H])c([H])c(O[C@]2([H])C([H])([H])N(C([H])([H])C([H])([H])C([H])([H])F)C([H])([H])C2([H])[H])c([H])c1[H]


 41 45  0  0  0  0  0  0  0  0999 V2000
    8.7199   42.7157  126.2458 O   0  0  0  0  0  0  0  0  0  0  0  0
    9.0899   43.3115  127.4393 C   0  0  0  0  0  0  0  0  0  0  0  0
    8.4256   44.4316  127.9070 C   0  0  0  0  0  0  0  0  0  0  0  0
    8.7869   45.0482  129.1125 C   0  0  0  0  0  0  0  0  0  0  0  0
    9.8435   44.5033  129.8402 C   0  0  0  0  0  0  0  0  0  0  0  0
   10.4817   43.3886  129.3480 C   0  0  0  0  0  0  0  0  0  0  0  0
   11.6014   42.7139  130.0975 C   0  0  0  0  0  0  0  0  0  0  0  0
   10.9691   42.3524  131.4284 C   0  0  0  0  0  0  0  0  0  0  0  0
   11.0234   43.3525  132.4850 C   0  0  0  0  0  0  0  0  0  0  0  0
   10.6012   44.7515  132.1620 C   0  0  0  0  0  0  0  0  0  0  0  0
   10.0992   45.2917  131.0761 C   0  0  0  0  0  0  0  0  0  0  0  0
   10.1335   42.7826  128.1715 C   0  0  0  0  0  0  0  0  0  0  0  0
    9.1858   41.8967  125.8785 H   0  0  0  0  0  0  0  0  0  0  0  0
   10.9021   45.6082  133.3125 C   0  0  0  0  0  0  0  0  0  0  0  0
   12.0148   46.4355  133.3062 C   0  0  0  0  0  0  0  0  0  0  0  0
   12.2273   47.2752  134.3727 C   0  0  0  0  0  0  0  0  0  0  0  0
   11.3764   47.3256  135.4476 C   0  0  0  0  0  0  0  0  0  0  0  0
   10.2741   46.5136  135.4652 C   0  0  0  0  0  0  0  0  0  0  0  0
   10.0594   45.6600  134.3783 C   0  0  0  0  0  0  0  0  0  0  0  0
   11.6021   48.1753  136.5131 O   0  0  0  0  0  0  0  0  0  0  0  0
   12.3718   49.3323  136.3671 C   0  0  0  0  0  0  0  0  0  0  0  0
   13.8295   48.9740  136.6853 C   0  0  0  0  0  0  0  0  0  0  0  0
   14.1098   49.2014  138.0076 F   0  0  0  0  0  0  0  0  0  0  0  0
   14.0587   47.6620  136.3371 F   0  0  0  0  0  0  0  0  0  0  0  0
   14.5960   49.8522  135.9317 F   0  0  0  0  0  0  0  0  0  0  0  0
    9.6895   46.6856  131.0179 C   0  0  0  0  0  0  0  0  0  0  0  0
   10.0369   47.5729  130.0282 C   0  0  0  0  0  0  0  0  0  0  0  0
    9.6285   48.8786  129.9929 C   0  0  0  0  0  0  0  0  0  0  0  0
    8.8059   49.3979  131.0000 C   0  0  0  0  0  0  0  0  0  0  0  0
    8.4442   48.5322  132.0013 C   0  0  0  0  0  0  0  0  0  0  0  0
    8.8640   47.2252  132.0192 C   0  0  0  0  0  0  0  0  0  0  0  0
    8.3964   50.6933  130.9740 O   0  0  0  0  0  0  0  0  0  0  0  0
    7.1938   51.1843  130.4756 C   0  0  0  0  0  0  0  0  0  0  0  0
    7.3880   51.5045  128.9982 C   0  0  0  0  0  0  0  0  0  0  0  0
    6.9549   50.2574  128.2840 C   0  0  0  0  0  0  0  0  0  0  0  0
    6.4233   49.4033  129.2715 N   0  0  0  0  0  0  0  0  0  0  0  0
    6.0965   50.1017  130.4529 C   0  0  0  0  0  0  0  0  0  0  0  0
    5.4176   48.4874  128.7867 C   0  0  0  0  0  0  0  0  0  0  0  0
    5.2288   47.2974  129.6872 C   0  0  0  0  0  0  0  0  0  0  0  0
    6.6050   46.7638  130.0411 C   0  0  0  0  0  0  0  0  0  0  0  0
    6.3789   45.6208  130.8206 F   0  0  0  0  0  0  0  0  0  0  0  0
  1  2  1  0  0  0
  2  3  2  0  0  0
  3  4  1  0  0  0
  4  5  2  0  0  0
  5  6  1  0  0  0
  6  7  1  0  0  0
  7  8  1  0  0  0
  8  9  1  0  0  0
  9 10  1  0  0  0
 10 14  1  0  0  0
 14 15  2  0  0  0
 15 16  1  0  0  0
 16 17  2  0  0  0
 17 20  1  0  0  0
 20 21  1  0  0  0
 21 22  1  0  0  0
 22 23  1  0  0  0
 22 24  1  0  0  0
 22 25  1  0  0  0
 17 18  1  0  0  0
 18 19  2  0  0  0
 10 11  2  0  0  0
 11 26  1  0  0  0
 26 27  2  0  0  0
 27 28  1  0  0  0
 28 29  2  0  0  0
 29 32  1  0  0  0
 32 33  1  0  0  0
 33 34  1  0  0  0
 34 35  1  0  0  0
 35 36  1  0  0  0
 36 38  1  0  0  0
 38 39  1  0  0  0
 39 40  1  0  0  0
 40 41  1  0  0  0
 36 37  1  0  0  0
 29 30  1  0  0  0
 30 31  2  0  0  0
  6 12  2  0  0  0
 12  2  1  0  0  0
 11  5  1  0  0  0
 31 26  1  0  0  0
 19 14  1  0  0  0
 37 33  1  0  0  0
  1 13  1  0  0  0
M  END
> <minimizedAffinity>
12.80221

> <CNNscore>
0.3290709257

> <CNNaffinity>
8.0087261200

> <CNN_VS>
2.6354389191

> <CNNaffinity_variance>
0.8239291906

$$$$
[H]Oc1c([H])c([H])c(C([H])([H])[C@@]2([H])Sc3c([H])c(O[H])c([H])c([H])c3O[C@@]2([H])c2c([H])c([H])c(OC([H])([H])C([H])([H])N3C([H])([H])C([H])([H])C([H])([H])C([H])([H])C3([H])[H])c([H])c2[H])c([H])c1[H]


 36 40  0  0  0  0  0  0  0  0999 V2000
    9.1984   43.6994  131.6301 C   0  0  0  0  0  0  0  0  0  0  0  0
    8.3270   42.0771  131.5631 S   0  0  0  0  0  0  0  0  0  0  0  0
    7.4166   41.9924  133.1309 C   0  0  0  0  0  0  0  0  0  0  0  0
    6.7397   40.8169  133.4239 C   0  0  0  0  0  0  0  0  0  0  0  0
    6.0477   40.7252  134.6051 C   0  0  0  0  0  0  0  0  0  0  0  0
    5.3816   39.5343  134.8665 O   0  0  0  0  0  0  0  0  0  0  0  0
    5.9908   41.7508  135.5231 C   0  0  0  0  0  0  0  0  0  0  0  0
    6.6740   42.8980  135.1958 C   0  0  0  0  0  0  0  0  0  0  0  0
    7.3924   43.0483  134.0129 C   0  0  0  0  0  0  0  0  0  0  0  0
    8.0632   44.2320  133.7389 O   0  0  0  0  0  0  0  0  0  0  0  0
    8.3077   44.6021  132.4224 C   0  0  0  0  0  0  0  0  0  0  0  0
    5.3839   38.7528  134.2412 H   0  0  0  0  0  0  0  0  0  0  0  0
    8.5516   46.0502  132.2070 C   0  0  0  0  0  0  0  0  0  0  0  0
    8.6452   46.8553  133.3216 C   0  0  0  0  0  0  0  0  0  0  0  0
    8.8885   48.2386  133.2299 C   0  0  0  0  0  0  0  0  0  0  0  0
    9.0409   48.8378  132.0191 C   0  0  0  0  0  0  0  0  0  0  0  0
    8.9438   48.0082  130.9006 C   0  0  0  0  0  0  0  0  0  0  0  0
    8.7068   46.6578  130.9928 C   0  0  0  0  0  0  0  0  0  0  0  0
    9.2731   50.1551  131.8161 O   0  0  0  0  0  0  0  0  0  0  0  0
    9.1392   50.8821  130.6695 C   0  0  0  0  0  0  0  0  0  0  0  0
    7.7413   51.2503  130.2511 C   0  0  0  0  0  0  0  0  0  0  0  0
    7.0456   50.1169  129.7827 N   0  0  0  0  0  0  0  0  0  0  0  0
    5.8438   49.7037  130.3262 C   0  0  0  0  0  0  0  0  0  0  0  0
    4.9841   48.8439  129.4147 C   0  0  0  0  0  0  0  0  0  0  0  0
    5.7753   47.8450  128.6208 C   0  0  0  0  0  0  0  0  0  0  0  0
    6.8169   48.6388  127.8355 C   0  0  0  0  0  0  0  0  0  0  0  0
    7.7208   49.2575  128.8766 C   0  0  0  0  0  0  0  0  0  0  0  0
   10.6036   43.5511  132.0324 C   0  0  0  0  0  0  0  0  0  0  0  0
   14.7080   44.8608  128.3023 O   0  0  0  0  0  0  0  0  0  0  0  0
   13.7087   44.5474  129.2166 C   0  0  0  0  0  0  0  0  0  0  0  0
   13.9861   44.0331  130.4648 C   0  0  0  0  0  0  0  0  0  0  0  0
   13.0006   43.7255  131.3638 C   0  0  0  0  0  0  0  0  0  0  0  0
   11.6459   43.9172  131.0640 C   0  0  0  0  0  0  0  0  0  0  0  0
   11.3639   44.4297  129.8202 C   0  0  0  0  0  0  0  0  0  0  0  0
   12.3721   44.7318  128.9321 C   0  0  0  0  0  0  0  0  0  0  0  0
   15.0624   45.8279  128.3680 H   0  0  0  0  0  0  0  0  0  0  0  0
 29 30  1  0  0  0
 30 31  2  0  0  0
 31 32  1  0  0  0
 32 33  2  0  0  0
 33 28  1  0  0  0
 28  1  1  0  0  0
  1  2  1  0  0  0
  2  3  1  0  0  0
  3  4  2  0  0  0
  4  5  1  0  0  0
  5  6  1  0  0  0
  5  7  2  0  0  0
  7  8  1  0  0  0
  8  9  2  0  0  0
  9 10  1  0  0  0
 10 11  1  0  0  0
 11 13  1  0  0  0
 13 14  2  0  0  0
 14 15  1  0  0  0
 15 16  2  0  0  0
 16 19  1  0  0  0
 19 20  1  0  0  0
 20 21  1  0  0  0
 21 22  1  0  0  0
 22 23  1  0  0  0
 23 24  1  0  0  0
 24 25  1  0  0  0
 25 26  1  0  0  0
 26 27  1  0  0  0
 16 17  1  0  0  0
 17 18  2  0  0  0
 33 34  1  0  0  0
 34 35  2  0  0  0
 35 30  1  0  0  0
 11  1  1  0  0  0
 18 13  1  0  0  0
  9  3  1  0  0  0
 27 22  1  0  0  0
 29 36  1  0  0  0
  6 12  1  0  0  0
M  END
> <minimizedAffinity>
19.70624

> <CNNscore>
0.3896594644

> <CNNaffinity>
7.5919256210

> <CNN_VS>
2.9582657814

> <CNNaffinity_variance>
1.2986059189

$$$$
[H]Oc1c([H])c([H])c(C([H])([H])[C@@]2([H])Sc3c([H])c(O[H])c([H])c([H])c3O[C@@]2([H])c2c([H])c([H])c(OC([H])([H])C([H])([H])N3C([H])([H])C([H])([H])C([H])([H])C([H])([H])C3([H])[H])c([H])c2[H])c([H])c1[H]


 36 40  0  0  0  0  0  0  0  0999 V2000
    9.7087   45.4364  128.8743 C   0  0  0  0  0  0  0  0  0  0  0  0
   10.4895   44.3628  127.5962 S   0  0  0  0  0  0  0  0  0  0  0  0
   12.2184   44.2167  128.1292 C   0  0  0  0  0  0  0  0  0  0  0  0
   13.0992   43.5457  127.2928 C   0  0  0  0  0  0  0  0  0  0  0  0
   14.4130   43.4255  127.6699 C   0  0  0  0  0  0  0  0  0  0  0  0
   15.2672   42.7478  126.8091 O   0  0  0  0  0  0  0  0  0  0  0  0
   14.9057   43.9425  128.8479 C   0  0  0  0  0  0  0  0  0  0  0  0
   14.0017   44.5998  129.6484 C   0  0  0  0  0  0  0  0  0  0  0  0
   12.6581   44.7524  129.3179 C   0  0  0  0  0  0  0  0  0  0  0  0
   11.7934   45.4277  130.1678 O   0  0  0  0  0  0  0  0  0  0  0  0
   10.4345   45.1394  130.1474 C   0  0  0  0  0  0  0  0  0  0  0  0
   14.9715   42.3494  125.9398 H   0  0  0  0  0  0  0  0  0  0  0  0
    9.6912   45.5057  131.3787 C   0  0  0  0  0  0  0  0  0  0  0  0
    9.7342   46.8224  131.7833 C   0  0  0  0  0  0  0  0  0  0  0  0
    9.0537   47.2784  132.9279 C   0  0  0  0  0  0  0  0  0  0  0  0
    8.3197   46.4215  133.6865 C   0  0  0  0  0  0  0  0  0  0  0  0
    8.2863   45.0919  133.2626 C   0  0  0  0  0  0  0  0  0  0  0  0
    8.9510   44.6493  132.1444 C   0  0  0  0  0  0  0  0  0  0  0  0
    7.6320   46.7507  134.8041 O   0  0  0  0  0  0  0  0  0  0  0  0
    8.1001   46.9559  136.0689 C   0  0  0  0  0  0  0  0  0  0  0  0
    9.5606   47.2890  136.2133 C   0  0  0  0  0  0  0  0  0  0  0  0
   10.3631   46.2346  135.7314 N   0  0  0  0  0  0  0  0  0  0  0  0
   10.1844   44.9223  136.1268 C   0  0  0  0  0  0  0  0  0  0  0  0
   10.7266   43.8781  135.1651 C   0  0  0  0  0  0  0  0  0  0  0  0
   12.0491   44.2554  134.5630 C   0  0  0  0  0  0  0  0  0  0  0  0
   11.8476   45.6059  133.8795 C   0  0  0  0  0  0  0  0  0  0  0  0
   11.5259   46.5765  134.9923 C   0  0  0  0  0  0  0  0  0  0  0  0
    9.5969   46.8308  128.4255 C   0  0  0  0  0  0  0  0  0  0  0  0
    4.9374   49.8379  129.7375 O   0  0  0  0  0  0  0  0  0  0  0  0
    6.0761   49.1043  129.4249 C   0  0  0  0  0  0  0  0  0  0  0  0
    7.3398   49.6533  129.4601 C   0  0  0  0  0  0  0  0  0  0  0  0
    8.4599   48.9289  129.1522 C   0  0  0  0  0  0  0  0  0  0  0  0
    8.3847   47.5803  128.7817 C   0  0  0  0  0  0  0  0  0  0  0  0
    7.1265   47.0280  128.7448 C   0  0  0  0  0  0  0  0  0  0  0  0
    6.0138   47.7763  129.0587 C   0  0  0  0  0  0  0  0  0  0  0  0
    4.6700   49.8121  130.7341 H   0  0  0  0  0  0  0  0  0  0  0  0
 29 30  1  0  0  0
 30 31  2  0  0  0
 31 32  1  0  0  0
 32 33  2  0  0  0
 33 28  1  0  0  0
 28  1  1  0  0  0
  1  2  1  0  0  0
  2  3  1  0  0  0
  3  4  2  0  0  0
  4  5  1  0  0  0
  5  6  1  0  0  0
  5  7  2  0  0  0
  7  8  1  0  0  0
  8  9  2  0  0  0
  9 10  1  0  0  0
 10 11  1  0  0  0
 11 13  1  0  0  0
 13 14  2  0  0  0
 14 15  1  0  0  0
 15 16  2  0  0  0
 16 19  1  0  0  0
 19 20  1  0  0  0
 20 21  1  0  0  0
 21 22  1  0  0  0
 22 23  1  0  0  0
 23 24  1  0  0  0
 24 25  1  0  0  0
 25 26  1  0  0  0
 26 27  1  0  0  0
 16 17  1  0  0  0
 17 18  2  0  0  0
 33 34  1  0  0  0
 34 35  2  0  0  0
 35 30  1  0  0  0
 11  1  1  0  0  0
 18 13  1  0  0  0
  9  3  1  0  0  0
 27 22  1  0  0  0
 29 36  1  0  0  0
  6 12  1  0  0  0
M  END
> <minimizedAffinity>
13.55238

> <CNNscore>
0.3508809805

> <CNNaffinity>
7.6206679344

> <CNN_VS>
2.6739473343

> <CNNaffinity_variance>
0.6282604337

$$$$
[H]Oc1c([H])c([H])c(C([H])([H])[C@@]2([H])Sc3c([H])c(O[H])c([H])c([H])c3O[C@@]2([H])c2c([H])c([H])c(OC([H])([H])C([H])([H])N3C([H])([H])C([H])([H])C([H])([H])C([H])([H])C3([H])[H])c([H])c2[H])c([H])c1[H]


 36 40  0  0  0  0  0  0  0  0999 V2000
   10.2914   43.6850  133.9786 C   0  0  0  0  0  0  0  0  0  0  0  0
   10.0003   42.0505  134.7782 S   0  0  0  0  0  0  0  0  0  0  0  0
    8.2684   41.6661  134.3945 C   0  0  0  0  0  0  0  0  0  0  0  0
    7.7162   40.5279  134.9648 C   0  0  0  0  0  0  0  0  0  0  0  0
    6.4072   40.2174  134.6949 C   0  0  0  0  0  0  0  0  0  0  0  0
    5.8865   39.0712  135.2823 O   0  0  0  0  0  0  0  0  0  0  0  0
    5.6066   40.9860  133.8788 C   0  0  0  0  0  0  0  0  0  0  0  0
    6.1908   42.1046  133.3333 C   0  0  0  0  0  0  0  0  0  0  0  0
    7.5130   42.4692  133.5712 C   0  0  0  0  0  0  0  0  0  0  0  0
    8.0464   43.6120  132.9918 O   0  0  0  0  0  0  0  0  0  0  0  0
    9.4144   43.7024  132.7676 C   0  0  0  0  0  0  0  0  0  0  0  0
    6.4154   38.4711  135.8840 H   0  0  0  0  0  0  0  0  0  0  0  0
    9.8220   44.6794  131.7273 C   0  0  0  0  0  0  0  0  0  0  0  0
    8.8484   45.5072  131.2113 C   0  0  0  0  0  0  0  0  0  0  0  0
    9.1304   46.4777  130.2318 C   0  0  0  0  0  0  0  0  0  0  0  0
   10.3931   46.6336  129.7523 C   0  0  0  0  0  0  0  0  0  0  0  0
   11.3671   45.7878  130.2857 C   0  0  0  0  0  0  0  0  0  0  0  0
   11.0894   44.8415  131.2425 C   0  0  0  0  0  0  0  0  0  0  0  0
   10.7732   47.5286  128.8116 O   0  0  0  0  0  0  0  0  0  0  0  0
   11.1150   47.3096  127.5092 C   0  0  0  0  0  0  0  0  0  0  0  0
   10.2266   46.3924  126.7127 C   0  0  0  0  0  0  0  0  0  0  0  0
   10.2059   45.1015  127.2793 N   0  0  0  0  0  0  0  0  0  0  0  0
   11.3588   44.3899  127.5530 C   0  0  0  0  0  0  0  0  0  0  0  0
   11.2143   43.3068  128.6090 C   0  0  0  0  0  0  0  0  0  0  0  0
    9.9266   42.5422  128.5029 C   0  0  0  0  0  0  0  0  0  0  0  0
    8.8008   43.5704  128.5870 C   0  0  0  0  0  0  0  0  0  0  0  0
    8.9540   44.4367  127.3583 C   0  0  0  0  0  0  0  0  0  0  0  0
   10.1999   44.7908  134.9415 C   0  0  0  0  0  0  0  0  0  0  0  0
    9.5544   50.0398  132.8187 O   0  0  0  0  0  0  0  0  0  0  0  0
    9.7158   48.7622  133.3426 C   0  0  0  0  0  0  0  0  0  0  0  0
   10.9319   48.1138  133.3438 C   0  0  0  0  0  0  0  0  0  0  0  0
   11.0887   46.8558  133.8605 C   0  0  0  0  0  0  0  0  0  0  0  0
   10.0152   46.1520  134.4209 C   0  0  0  0  0  0  0  0  0  0  0  0
    8.7999   46.7943  134.4220 C   0  0  0  0  0  0  0  0  0  0  0  0
    8.6661   48.0602  133.8965 C   0  0  0  0  0  0  0  0  0  0  0  0
    9.7005   50.8038  133.4971 H   0  0  0  0  0  0  0  0  0  0  0  0
 29 30  1  0  0  0
 30 31  2  0  0  0
 31 32  1  0  0  0
 32 33  2  0  0  0
 33 28  1  0  0  0
 28  1  1  0  0  0
  1  2  1  0  0  0
  2  3  1  0  0  0
  3  4  2  0  0  0
  4  5  1  0  0  0
  5  6  1  0  0  0
  5  7  2  0  0  0
  7  8  1  0  0  0
  8  9  2  0  0  0
  9 10  1  0  0  0
 10 11  1  0  0  0
 11 13  1  0  0  0
 13 14  2  0  0  0
 14 15  1  0  0  0
 15 16  2  0  0  0
 16 19  1  0  0  0
 19 20  1  0  0  0
 20 21  1  0  0  0
 21 22  1  0  0  0
 22 23  1  0  0  0
 23 24  1  0  0  0
 24 25  1  0  0  0
 25 26  1  0  0  0
 26 27  1  0  0  0
 16 17  1  0  0  0
 17 18  2  0  0  0
 33 34  1  0  0  0
 34 35  2  0  0  0
 35 30  1  0  0  0
 11  1  1  0  0  0
 18 13  1  0  0  0
  9  3  1  0  0  0
 27 22  1  0  0  0
 29 36  1  0  0  0
  6 12  1  0  0  0
M  END
> <minimizedAffinity>
25.80318

> <CNNscore>
0.3186146319

> <CNNaffinity>
7.2812757492

> <CNN_VS>
2.3199210167

> <CNNaffinity_variance>
0.7344236970

$$$$
[H]Oc1c([H])c([H])c(C([H])([H])[C@@]2([H])Sc3c([H])c(O[H])c([H])c([H])c3O[C@@]2([H])c2c([H])c([H])c(OC([H])([H])C([H])([H])N3C([H])([H])C([H])([H])C([H])([H])C([H])([H])C3([H])[H])c([H])c2[H])c([H])c1[H]


 36 40  0  0  0  0  0  0  0  0999 V2000
    7.7295   45.2085  130.2847 C   0  0  0  0  0  0  0  0  0  0  0  0
    6.0184   45.8226  129.9836 S   0  0  0  0  0  0  0  0  0  0  0  0
    6.2039   47.6240  129.8612 C   0  0  0  0  0  0  0  0  0  0  0  0
    5.0508   48.3870  129.7430 C   0  0  0  0  0  0  0  0  0  0  0  0
    5.1631   49.7516  129.6538 C   0  0  0  0  0  0  0  0  0  0  0  0
    3.9888   50.4847  129.5365 O   0  0  0  0  0  0  0  0  0  0  0  0
    6.3740   50.4079  129.6760 C   0  0  0  0  0  0  0  0  0  0  0  0
    7.4921   49.6167  129.7941 C   0  0  0  0  0  0  0  0  0  0  0  0
    7.4395   48.2288  129.8882 C   0  0  0  0  0  0  0  0  0  0  0  0
    8.6044   47.4837  130.0065 O   0  0  0  0  0  0  0  0  0  0  0  0
    8.6314   46.1646  129.5716 C   0  0  0  0  0  0  0  0  0  0  0  0
    3.0789   50.0682  129.5144 H   0  0  0  0  0  0  0  0  0  0  0  0
    9.9805   45.6262  129.2669 C   0  0  0  0  0  0  0  0  0  0  0  0
   10.0526   44.4161  128.6112 C   0  0  0  0  0  0  0  0  0  0  0  0
   11.2807   43.8235  128.2624 C   0  0  0  0  0  0  0  0  0  0  0  0
   12.4570   44.4338  128.5662 C   0  0  0  0  0  0  0  0  0  0  0  0
   12.3662   45.6586  129.2297 C   0  0  0  0  0  0  0  0  0  0  0  0
   11.1660   46.2354  129.5686 C   0  0  0  0  0  0  0  0  0  0  0  0
   13.6895   43.9533  128.2827 O   0  0  0  0  0  0  0  0  0  0  0  0
   14.8339   44.0413  129.0199 C   0  0  0  0  0  0  0  0  0  0  0  0
   14.7805   43.5241  130.4323 C   0  0  0  0  0  0  0  0  0  0  0  0
   13.4878   43.6811  130.9727 N   0  0  0  0  0  0  0  0  0  0  0  0
   12.4934   42.7347  130.8113 C   0  0  0  0  0  0  0  0  0  0  0  0
   11.3867   42.7763  131.8518 C   0  0  0  0  0  0  0  0  0  0  0  0
   10.9741   44.1709  132.2243 C   0  0  0  0  0  0  0  0  0  0  0  0
   12.2347   44.8841  132.7079 C   0  0  0  0  0  0  0  0  0  0  0  0
   13.1458   44.9523  131.5042 C   0  0  0  0  0  0  0  0  0  0  0  0
    7.9691   44.9274  131.7066 C   0  0  0  0  0  0  0  0  0  0  0  0
    9.1372   49.2260  135.2610 O   0  0  0  0  0  0  0  0  0  0  0  0
    8.8452   48.1804  134.3925 C   0  0  0  0  0  0  0  0  0  0  0  0
    7.9395   47.1907  134.7079 C   0  0  0  0  0  0  0  0  0  0  0  0
    7.6532   46.1621  133.8511 C   0  0  0  0  0  0  0  0  0  0  0  0
    8.2685   46.0567  132.5973 C   0  0  0  0  0  0  0  0  0  0  0  0
    9.1730   47.0412  132.2779 C   0  0  0  0  0  0  0  0  0  0  0  0
    9.4451   48.0666  133.1560 C   0  0  0  0  0  0  0  0  0  0  0  0
    8.5379   50.0586  135.1476 H   0  0  0  0  0  0  0  0  0  0  0  0
 29 30  1  0  0  0
 30 31  2  0  0  0
 31 32  1  0  0  0
 32 33  2  0  0  0
 33 28  1  0  0  0
 28  1  1  0  0  0
  1  2  1  0  0  0
  2  3  1  0  0  0
  3  4  2  0  0  0
  4  5  1  0  0  0
  5  6  1  0  0  0
  5  7  2  0  0  0
  7  8  1  0  0  0
  8  9  2  0  0  0
  9 10  1  0  0  0
 10 11  1  0  0  0
 11 13  1  0  0  0
 13 14  2  0  0  0
 14 15  1  0  0  0
 15 16  2  0  0  0
 16 19  1  0  0  0
 19 20  1  0  0  0
 20 21  1  0  0  0
 21 22  1  0  0  0
 22 23  1  0  0  0
 23 24  1  0  0  0
 24 25  1  0  0  0
 25 26  1  0  0  0
 26 27  1  0  0  0
 16 17  1  0  0  0
 17 18  2  0  0  0
 33 34  1  0  0  0
 34 35  2  0  0  0
 35 30  1  0  0  0
 11  1  1  0  0  0
 18 13  1  0  0  0
  9  3  1  0  0  0
 27 22  1  0  0  0
 29 36  1  0  0  0
  6 12  1  0  0  0
M  END
> <minimizedAffinity>
11.48756

> <CNNscore>
0.2765625417

> <CNNaffinity>
7.5169343948

> <CNN_VS>
2.0789024830

> <CNNaffinity_variance>
0.3761567473

$$$$
[H]Oc1c([H])c([H])c(C([H])([H])[C@@]2([H])Sc3c([H])c(O[H])c([H])c([H])c3O[C@@]2([H])c2c([H])c([H])c(OC([H])([H])C([H])([H])N3C([H])([H])C([H])([H])C([H])([H])C([H])([H])C3([H])[H])c([H])c2[H])c([H])c1[H]


 36 40  0  0  0  0  0  0  0  0999 V2000
    7.5561   46.4557  130.1890 C   0  0  0  0  0  0  0  0  0  0  0  0
    7.0621   46.9513  128.4843 S   0  0  0  0  0  0  0  0  0  0  0  0
    8.6047   46.8764  127.5311 C   0  0  0  0  0  0  0  0  0  0  0  0
    8.5729   47.3090  126.2129 C   0  0  0  0  0  0  0  0  0  0  0  0
    9.7269   47.2675  125.4717 C   0  0  0  0  0  0  0  0  0  0  0  0
    9.6593   47.7081  124.1559 O   0  0  0  0  0  0  0  0  0  0  0  0
   10.9262   46.8138  125.9752 C   0  0  0  0  0  0  0  0  0  0  0  0
   10.9159   46.3941  127.2844 C   0  0  0  0  0  0  0  0  0  0  0  0
    9.7765   46.4132  128.0839 C   0  0  0  0  0  0  0  0  0  0  0  0
    9.8294   45.9768  129.4003 O   0  0  0  0  0  0  0  0  0  0  0  0
    8.6837   45.4889  130.0161 C   0  0  0  0  0  0  0  0  0  0  0  0
    8.8195   48.0489  123.7312 H   0  0  0  0  0  0  0  0  0  0  0  0
    8.9206   44.6053  131.1848 C   0  0  0  0  0  0  0  0  0  0  0  0
    8.4528   45.0275  132.4105 C   0  0  0  0  0  0  0  0  0  0  0  0
    8.6119   44.2600  133.5795 C   0  0  0  0  0  0  0  0  0  0  0  0
    9.2438   43.0568  133.5392 C   0  0  0  0  0  0  0  0  0  0  0  0
    9.7110   42.6438  132.2903 C   0  0  0  0  0  0  0  0  0  0  0  0
    9.5538   43.3948  131.1503 C   0  0  0  0  0  0  0  0  0  0  0  0
    9.4544   42.2422  134.5987 O   0  0  0  0  0  0  0  0  0  0  0  0
   10.5214   42.1991  135.4477 C   0  0  0  0  0  0  0  0  0  0  0  0
   11.2073   43.5035  135.7526 C   0  0  0  0  0  0  0  0  0  0  0  0
   11.7715   44.0558  134.5844 N   0  0  0  0  0  0  0  0  0  0  0  0
   12.5374   43.3140  133.7050 C   0  0  0  0  0  0  0  0  0  0  0  0
   12.6141   43.8654  132.2911 C   0  0  0  0  0  0  0  0  0  0  0  0
   12.7411   45.3605  132.2429 C   0  0  0  0  0  0  0  0  0  0  0  0
   11.5459   45.9245  133.0078 C   0  0  0  0  0  0  0  0  0  0  0  0
   11.7297   45.4671  134.4364 C   0  0  0  0  0  0  0  0  0  0  0  0
    7.7424   47.6193  131.0663 C   0  0  0  0  0  0  0  0  0  0  0  0
    6.8348   52.8073  128.8899 O   0  0  0  0  0  0  0  0  0  0  0  0
    7.0580   51.5390  129.4137 C   0  0  0  0  0  0  0  0  0  0  0  0
    6.1943   50.4878  129.1938 C   0  0  0  0  0  0  0  0  0  0  0  0
    6.4161   49.2396  129.7104 C   0  0  0  0  0  0  0  0  0  0  0  0
    7.5406   48.9583  130.4966 C   0  0  0  0  0  0  0  0  0  0  0  0
    8.4051   50.0035  130.7191 C   0  0  0  0  0  0  0  0  0  0  0  0
    8.1614   51.2510  130.1891 C   0  0  0  0  0  0  0  0  0  0  0  0
    7.2471   52.9653  127.9569 H   0  0  0  0  0  0  0  0  0  0  0  0
 29 30  1  0  0  0
 30 31  2  0  0  0
 31 32  1  0  0  0
 32 33  2  0  0  0
 33 28  1  0  0  0
 28  1  1  0  0  0
  1  2  1  0  0  0
  2  3  1  0  0  0
  3  4  2  0  0  0
  4  5  1  0  0  0
  5  6  1  0  0  0
  5  7  2  0  0  0
  7  8  1  0  0  0
  8  9  2  0  0  0
  9 10  1  0  0  0
 10 11  1  0  0  0
 11 13  1  0  0  0
 13 14  2  0  0  0
 14 15  1  0  0  0
 15 16  2  0  0  0
 16 19  1  0  0  0
 19 20  1  0  0  0
 20 21  1  0  0  0
 21 22  1  0  0  0
 22 23  1  0  0  0
 23 24  1  0  0  0
 24 25  1  0  0  0
 25 26  1  0  0  0
 26 27  1  0  0  0
 16 17  1  0  0  0
 17 18  2  0  0  0
 33 34  1  0  0  0
 34 35  2  0  0  0
 35 30  1  0  0  0
 11  1  1  0  0  0
 18 13  1  0  0  0
  9  3  1  0  0  0
 27 22  1  0  0  0
 29 36  1  0  0  0
  6 12  1  0  0  0
M  END
> <minimizedAffinity>
21.81074

> <CNNscore>
0.2662305534

> <CNNaffinity>
7.3658156395

> <CNN_VS>
1.9610052109

> <CNNaffinity_variance>
0.9464691281

$$$$
[H]Oc1c([H])c([H])c(C([H])([H])[C@@]2([H])Sc3c([H])c(O[H])c([H])c([H])c3O[C@@]2([H])c2c([H])c([H])c(OC([H])([H])C([H])([H])N3C([H])([H])C([H])([H])C([H])([H])C([H])([H])C3([H])[H])c([H])c2[H])c([H])c1[H]


 36 40  0  0  0  0  0  0  0  0999 V2000
    9.9920   47.9849  130.5140 C   0  0  0  0  0  0  0  0  0  0  0  0
    9.8554   49.5185  129.5015 S   0  0  0  0  0  0  0  0  0  0  0  0
    8.0991   49.9655  129.6000 C   0  0  0  0  0  0  0  0  0  0  0  0
    7.6596   51.0361  128.8342 C   0  0  0  0  0  0  0  0  0  0  0  0
    6.3353   51.3915  128.8867 C   0  0  0  0  0  0  0  0  0  0  0  0
    5.9295   52.4676  128.1074 O   0  0  0  0  0  0  0  0  0  0  0  0
    5.4120   50.7327  129.6685 C   0  0  0  0  0  0  0  0  0  0  0  0
    5.8870   49.6784  130.4120 C   0  0  0  0  0  0  0  0  0  0  0  0
    7.2186   49.2728  130.3990 C   0  0  0  0  0  0  0  0  0  0  0  0
    7.6381   48.1990  131.1718 O   0  0  0  0  0  0  0  0  0  0  0  0
    8.9609   48.1191  131.5886 C   0  0  0  0  0  0  0  0  0  0  0  0
    6.5504   52.9871  127.5188 H   0  0  0  0  0  0  0  0  0  0  0  0
    9.1988   47.2651  132.7789 C   0  0  0  0  0  0  0  0  0  0  0  0
   10.4417   47.3262  133.3713 C   0  0  0  0  0  0  0  0  0  0  0  0
   10.7675   46.5690  134.5121 C   0  0  0  0  0  0  0  0  0  0  0  0
    9.8527   45.7369  135.0774 C   0  0  0  0  0  0  0  0  0  0  0  0
    8.5990   45.6872  134.4656 C   0  0  0  0  0  0  0  0  0  0  0  0
    8.2833   46.4281  133.3522 C   0  0  0  0  0  0  0  0  0  0  0  0
   10.0599   44.9634  136.1679 O   0  0  0  0  0  0  0  0  0  0  0  0
   10.7071   43.7660  136.2586 C   0  0  0  0  0  0  0  0  0  0  0  0
   11.4763   43.3096  135.0482 C   0  0  0  0  0  0  0  0  0  0  0  0
   10.6012   43.0136  133.9830 N   0  0  0  0  0  0  0  0  0  0  0  0
    9.3941   42.3665  134.1690 C   0  0  0  0  0  0  0  0  0  0  0  0
    8.3641   42.5933  133.0750 C   0  0  0  0  0  0  0  0  0  0  0  0
    8.9544   42.5937  131.6946 C   0  0  0  0  0  0  0  0  0  0  0  0
   10.0388   43.6687  131.6845 C   0  0  0  0  0  0  0  0  0  0  0  0
   11.0883   43.1913  132.6614 C   0  0  0  0  0  0  0  0  0  0  0  0
    9.9996   46.7757  129.6797 C   0  0  0  0  0  0  0  0  0  0  0  0
   14.6273   43.4545  129.8509 O   0  0  0  0  0  0  0  0  0  0  0  0
   13.5029   44.2710  129.8087 C   0  0  0  0  0  0  0  0  0  0  0  0
   13.1260   45.0626  130.8721 C   0  0  0  0  0  0  0  0  0  0  0  0
   12.0186   45.8662  130.8284 C   0  0  0  0  0  0  0  0  0  0  0  0
   11.2006   45.9297  129.6932 C   0  0  0  0  0  0  0  0  0  0  0  0
   11.5720   45.1419  128.6298 C   0  0  0  0  0  0  0  0  0  0  0  0
   12.6905   44.3413  128.6966 C   0  0  0  0  0  0  0  0  0  0  0  0
   15.4974   43.9047  129.5260 H   0  0  0  0  0  0  0  0  0  0  0  0
 29 30  1  0  0  0
 30 31  2  0  0  0
 31 32  1  0  0  0
 32 33  2  0  0  0
 33 28  1  0  0  0
 28  1  1  0  0  0
  1  2  1  0  0  0
  2  3  1  0  0  0
  3  4  2  0  0  0
  4  5  1  0  0  0
  5  6  1  0  0  0
  5  7  2  0  0  0
  7  8  1  0  0  0
  8  9  2  0  0  0
  9 10  1  0  0  0
 10 11  1  0  0  0
 11 13  1  0  0  0
 13 14  2  0  0  0
 14 15  1  0  0  0
 15 16  2  0  0  0
 16 19  1  0  0  0
 19 20  1  0  0  0
 20 21  1  0  0  0
 21 22  1  0  0  0
 22 23  1  0  0  0
 23 24  1  0  0  0
 24 25  1  0  0  0
 25 26  1  0  0  0
 26 27  1  0  0  0
 16 17  1  0  0  0
 17 18  2  0  0  0
 33 34  1  0  0  0
 34 35  2  0  0  0
 35 30  1  0  0  0
 11  1  1  0  0  0
 18 13  1  0  0  0
  9  3  1  0  0  0
 27 22  1  0  0  0
 29 36  1  0  0  0
  6 12  1  0  0  0
M  END
> <minimizedAffinity>
5.66377

> <CNNscore>
0.2562824190

> <CNNaffinity>
7.4417510033

> <CNN_VS>
1.9071899652

> <CNNaffinity_variance>
0.1923648864

$$$$
[H]Oc1c([H])c([H])c(C([H])([H])[C@@]2([H])Sc3c([H])c(O[H])c([H])c([H])c3O[C@@]2([H])c2c([H])c([H])c(OC([H])([H])C([H])([H])N3C([H])([H])C([H])([H])C([H])([H])C([H])([H])C3([H])[H])c([H])c2[H])c([H])c1[H]


 36 40  0  0  0  0  0  0  0  0999 V2000
    8.9535   44.5946  128.6173 C   0  0  0  0  0  0  0  0  0  0  0  0
    8.6561   43.6084  127.0893 S   0  0  0  0  0  0  0  0  0  0  0  0
    9.2823   41.9538  127.4950 C   0  0  0  0  0  0  0  0  0  0  0  0
    9.2959   41.0014  126.4859 C   0  0  0  0  0  0  0  0  0  0  0  0
    9.7691   39.7440  126.7650 C   0  0  0  0  0  0  0  0  0  0  0  0
    9.7686   38.8153  125.7318 O   0  0  0  0  0  0  0  0  0  0  0  0
   10.2355   39.3766  128.0081 C   0  0  0  0  0  0  0  0  0  0  0  0
   10.2052   40.3483  128.9802 C   0  0  0  0  0  0  0  0  0  0  0  0
    9.7365   41.6397  128.7553 C   0  0  0  0  0  0  0  0  0  0  0  0
    9.7319   42.5780  129.7779 O   0  0  0  0  0  0  0  0  0  0  0  0
    8.8233   43.6286  129.7513 C   0  0  0  0  0  0  0  0  0  0  0  0
    9.4433   39.0194  124.8074 H   0  0  0  0  0  0  0  0  0  0  0  0
    8.5451   44.2582  131.0662 C   0  0  0  0  0  0  0  0  0  0  0  0
    8.1603   43.4334  132.1012 C   0  0  0  0  0  0  0  0  0  0  0  0
    7.8863   43.9256  133.3910 C   0  0  0  0  0  0  0  0  0  0  0  0
    7.9925   45.2531  133.6644 C   0  0  0  0  0  0  0  0  0  0  0  0
    8.3837   46.0744  132.6056 C   0  0  0  0  0  0  0  0  0  0  0  0
    8.6513   45.5913  131.3473 C   0  0  0  0  0  0  0  0  0  0  0  0
    7.7499   45.8321  134.8629 O   0  0  0  0  0  0  0  0  0  0  0  0
    8.4178   46.8540  135.4716 C   0  0  0  0  0  0  0  0  0  0  0  0
    8.0182   48.2549  135.0935 C   0  0  0  0  0  0  0  0  0  0  0  0
    8.8392   48.7457  134.0576 N   0  0  0  0  0  0  0  0  0  0  0  0
   10.2178   48.7772  134.1517 C   0  0  0  0  0  0  0  0  0  0  0  0
   10.9554   48.8144  132.8237 C   0  0  0  0  0  0  0  0  0  0  0  0
   10.3013   49.7032  131.8059 C   0  0  0  0  0  0  0  0  0  0  0  0
    8.8683   49.2010  131.6451 C   0  0  0  0  0  0  0  0  0  0  0  0
    8.2085   49.4297  132.9853 C   0  0  0  0  0  0  0  0  0  0  0  0
   10.1688   45.4135  128.5137 C   0  0  0  0  0  0  0  0  0  0  0  0
   14.1729   44.9616  132.5434 O   0  0  0  0  0  0  0  0  0  0  0  0
   13.1932   45.0649  131.5625 C   0  0  0  0  0  0  0  0  0  0  0  0
   13.2092   44.2943  130.4200 C   0  0  0  0  0  0  0  0  0  0  0  0
   12.2433   44.3974  129.4555 C   0  0  0  0  0  0  0  0  0  0  0  0
   11.1772   45.2977  129.5758 C   0  0  0  0  0  0  0  0  0  0  0  0
   11.1567   46.0690  130.7134 C   0  0  0  0  0  0  0  0  0  0  0  0
   12.1394   45.9479  131.6704 C   0  0  0  0  0  0  0  0  0  0  0  0
   13.9686   44.2717  133.2834 H   0  0  0  0  0  0  0  0  0  0  0  0
 29 30  1  0  0  0
 30 31  2  0  0  0
 31 32  1  0  0  0
 32 33  2  0  0  0
 33 28  1  0  0  0
 28  1  1  0  0  0
  1  2  1  0  0  0
  2  3  1  0  0  0
  3  4  2  0  0  0
  4  5  1  0  0  0
  5  6  1  0  0  0
  5  7  2  0  0  0
  7  8  1  0  0  0
  8  9  2  0  0  0
  9 10  1  0  0  0
 10 11  1  0  0  0
 11 13  1  0  0  0
 13 14  2  0  0  0
 14 15  1  0  0  0
 15 16  2  0  0  0
 16 19  1  0  0  0
 19 20  1  0  0  0
 20 21  1  0  0  0
 21 22  1  0  0  0
 22 23  1  0  0  0
 23 24  1  0  0  0
 24 25  1  0  0  0
 25 26  1  0  0  0
 26 27  1  0  0  0
 16 17  1  0  0  0
 17 18  2  0  0  0
 33 34  1  0  0  0
 34 35  2  0  0  0
 35 30  1  0  0  0
 11  1  1  0  0  0
 18 13  1  0  0  0
  9  3  1  0  0  0
 27 22  1  0  0  0
 29 36  1  0  0  0
  6 12  1  0  0  0
M  END
> <minimizedAffinity>
27.65222

> <CNNscore>
0.2414690107

> <CNNaffinity>
7.0964903831

> <CNN_VS>
1.7135825157

> <CNNaffinity_variance>
1.0288903713

$$$$
[H]Oc1c([H])c([H])c(C([H])([H])[C@@]2([H])Sc3c([H])c(O[H])c([H])c([H])c3O[C@@]2([H])c2c([H])c([H])c(OC([H])([H])C([H])([H])N3C([H])([H])C([H])([H])C([H])([H])C([H])([H])C3([H])[H])c([H])c2[H])c([H])c1[H]


 36 40  0  0  0  0  0  0  0  0999 V2000
    8.7920   47.0949  129.8322 C   0  0  0  0  0  0  0  0  0  0  0  0
    8.8770   48.3704  128.5050 S   0  0  0  0  0  0  0  0  0  0  0  0
    7.8155   49.7142  129.1064 C   0  0  0  0  0  0  0  0  0  0  0  0
    7.5889   50.7891  128.2585 C   0  0  0  0  0  0  0  0  0  0  0  0
    6.7860   51.8160  128.6871 C   0  0  0  0  0  0  0  0  0  0  0  0
    6.5804   52.8761  127.8130 O   0  0  0  0  0  0  0  0  0  0  0  0
    6.1882   51.8333  129.9281 C   0  0  0  0  0  0  0  0  0  0  0  0
    6.4375   50.7507  130.7379 C   0  0  0  0  0  0  0  0  0  0  0  0
    7.2429   49.6810  130.3571 C   0  0  0  0  0  0  0  0  0  0  0  0
    7.4565   48.6149  131.2197 O   0  0  0  0  0  0  0  0  0  0  0  0
    8.6130   47.8534  131.1084 C   0  0  0  0  0  0  0  0  0  0  0  0
    6.9858   52.9235  126.8991 H   0  0  0  0  0  0  0  0  0  0  0  0
    8.9956   47.1013  132.3293 C   0  0  0  0  0  0  0  0  0  0  0  0
   10.0446   47.5893  133.0782 C   0  0  0  0  0  0  0  0  0  0  0  0
   10.4789   46.9611  134.2605 C   0  0  0  0  0  0  0  0  0  0  0  0
    9.8693   45.8324  134.7110 C   0  0  0  0  0  0  0  0  0  0  0  0
    8.8086   45.3517  133.9413 C   0  0  0  0  0  0  0  0  0  0  0  0
    8.3861   45.9673  132.7877 C   0  0  0  0  0  0  0  0  0  0  0  0
   10.2066   45.1476  135.8280 O   0  0  0  0  0  0  0  0  0  0  0  0
   10.8389   43.9438  135.9369 C   0  0  0  0  0  0  0  0  0  0  0  0
   12.1866   43.8159  135.2794 C   0  0  0  0  0  0  0  0  0  0  0  0
   12.0775   43.9739  133.8826 N   0  0  0  0  0  0  0  0  0  0  0  0
   12.5601   45.0863  133.2191 C   0  0  0  0  0  0  0  0  0  0  0  0
   12.8512   44.8818  131.7418 C   0  0  0  0  0  0  0  0  0  0  0  0
   11.8212   44.0413  131.0445 C   0  0  0  0  0  0  0  0  0  0  0  0
   11.7570   42.7153  131.7990 C   0  0  0  0  0  0  0  0  0  0  0  0
   11.2482   43.0613  133.1792 C   0  0  0  0  0  0  0  0  0  0  0  0
    7.8450   46.0215  129.5015 C   0  0  0  0  0  0  0  0  0  0  0  0
    9.8074   40.6748  129.6950 O   0  0  0  0  0  0  0  0  0  0  0  0
    9.3239   41.9772  129.6420 C   0  0  0  0  0  0  0  0  0  0  0  0
    9.6285   42.8354  128.6075 C   0  0  0  0  0  0  0  0  0  0  0  0
    9.1510   44.1175  128.5571 C   0  0  0  0  0  0  0  0  0  0  0  0
    8.3206   44.6328  129.5604 C   0  0  0  0  0  0  0  0  0  0  0  0
    8.0139   43.7808  130.5946 C   0  0  0  0  0  0  0  0  0  0  0  0
    8.5060   42.4949  130.6241 C   0  0  0  0  0  0  0  0  0  0  0  0
    9.2019   39.9731  129.2409 H   0  0  0  0  0  0  0  0  0  0  0  0
 29 30  1  0  0  0
 30 31  2  0  0  0
 31 32  1  0  0  0
 32 33  2  0  0  0
 33 28  1  0  0  0
 28  1  1  0  0  0
  1  2  1  0  0  0
  2  3  1  0  0  0
  3  4  2  0  0  0
  4  5  1  0  0  0
  5  6  1  0  0  0
  5  7  2  0  0  0
  7  8  1  0  0  0
  8  9  2  0  0  0
  9 10  1  0  0  0
 10 11  1  0  0  0
 11 13  1  0  0  0
 13 14  2  0  0  0
 14 15  1  0  0  0
 15 16  2  0  0  0
 16 19  1  0  0  0
 19 20  1  0  0  0
 20 21  1  0  0  0
 21 22  1  0  0  0
 22 23  1  0  0  0
 23 24  1  0  0  0
 24 25  1  0  0  0
 25 26  1  0  0  0
 26 27  1  0  0  0
 16 17  1  0  0  0
 17 18  2  0  0  0
 33 34  1  0  0  0
 34 35  2  0  0  0
 35 30  1  0  0  0
 11  1  1  0  0  0
 18 13  1  0  0  0
  9  3  1  0  0  0
 27 22  1  0  0  0
 29 36  1  0  0  0
  6 12  1  0  0  0
M  END
> <minimizedAffinity>
1.32794

> <CNNscore>
0.2148607522

> <CNNaffinity>
7.4738225937

> <CNN_VS>
1.6058311462

> <CNNaffinity_variance>
0.1389144957

$$$$
[H]Oc1c([H])c([H])c(C([H])([H])[C@@]2([H])Sc3c([H])c(O[H])c([H])c([H])c3O[C@@]2([H])c2c([H])c([H])c(OC([H])([H])C([H])([H])N3C([H])([H])C([H])([H])C([H])([H])C([H])([H])C3([H])[H])c([H])c2[H])c([H])c1[H]


 36 40  0  0  0  0  0  0  0  0999 V2000
    8.9388   46.9203  129.1402 C   0  0  0  0  0  0  0  0  0  0  0  0
    8.3822   48.1149  127.8522 S   0  0  0  0  0  0  0  0  0  0  0  0
    7.8356   49.5669  128.7941 C   0  0  0  0  0  0  0  0  0  0  0  0
    7.2498   50.6109  128.0922 C   0  0  0  0  0  0  0  0  0  0  0  0
    6.8233   51.7182  128.7812 C   0  0  0  0  0  0  0  0  0  0  0  0
    6.2415   52.7445  128.0475 O   0  0  0  0  0  0  0  0  0  0  0  0
    6.9485   51.8464  130.1471 C   0  0  0  0  0  0  0  0  0  0  0  0
    7.5339   50.7910  130.8055 C   0  0  0  0  0  0  0  0  0  0  0  0
    7.9854   49.6434  130.1598 C   0  0  0  0  0  0  0  0  0  0  0  0
    8.5679   48.6099  130.8800 O   0  0  0  0  0  0  0  0  0  0  0  0
    9.4713   47.7555  130.2604 C   0  0  0  0  0  0  0  0  0  0  0  0
    6.1217   52.7126  127.0543 H   0  0  0  0  0  0  0  0  0  0  0  0
   10.3954   47.0401  131.1752 C   0  0  0  0  0  0  0  0  0  0  0  0
   10.9262   45.8446  130.7410 C   0  0  0  0  0  0  0  0  0  0  0  0
   11.8228   45.0932  131.5236 C   0  0  0  0  0  0  0  0  0  0  0  0
   12.2013   45.5274  132.7552 C   0  0  0  0  0  0  0  0  0  0  0  0
   11.6550   46.7398  133.1796 C   0  0  0  0  0  0  0  0  0  0  0  0
   10.7803   47.4719  132.4133 C   0  0  0  0  0  0  0  0  0  0  0  0
   13.0506   44.8851  133.5898 O   0  0  0  0  0  0  0  0  0  0  0  0
   12.7626   44.1024  134.6694 C   0  0  0  0  0  0  0  0  0  0  0  0
   11.4818   43.3137  134.6216 C   0  0  0  0  0  0  0  0  0  0  0  0
   10.3647   44.1716  134.6855 N   0  0  0  0  0  0  0  0  0  0  0  0
   10.2430   45.1659  135.6378 C   0  0  0  0  0  0  0  0  0  0  0  0
    9.3054   46.3032  135.2683 C   0  0  0  0  0  0  0  0  0  0  0  0
    8.0576   45.8418  134.5726 C   0  0  0  0  0  0  0  0  0  0  0  0
    8.5089   45.0564  133.3433 C   0  0  0  0  0  0  0  0  0  0  0  0
    9.2392   43.8484  133.8828 C   0  0  0  0  0  0  0  0  0  0  0  0
    7.9136   45.9086  129.4296 C   0  0  0  0  0  0  0  0  0  0  0  0
    9.6911   40.5252  130.0081 O   0  0  0  0  0  0  0  0  0  0  0  0
    9.2530   41.8363  129.8610 C   0  0  0  0  0  0  0  0  0  0  0  0
    9.6508   42.6332  128.8092 C   0  0  0  0  0  0  0  0  0  0  0  0
    9.2179   43.9240  128.6660 C   0  0  0  0  0  0  0  0  0  0  0  0
    8.3407   44.5117  129.5862 C   0  0  0  0  0  0  0  0  0  0  0  0
    7.9411   43.7212  130.6373 C   0  0  0  0  0  0  0  0  0  0  0  0
    8.3897   42.4250  130.7608 C   0  0  0  0  0  0  0  0  0  0  0  0
    9.0946   39.8190  129.5489 H   0  0  0  0  0  0  0  0  0  0  0  0
 29 30  1  0  0  0
 30 31  2  0  0  0
 31 32  1  0  0  0
 32 33  2  0  0  0
 33 28  1  0  0  0
 28  1  1  0  0  0
  1  2  1  0  0  0
  2  3  1  0  0  0
  3  4  2  0  0  0
  4  5  1  0  0  0
  5  6  1  0  0  0
  5  7  2  0  0  0
  7  8  1  0  0  0
  8  9  2  0  0  0
  9 10  1  0  0  0
 10 11  1  0  0  0
 11 13  1  0  0  0
 13 14  2  0  0  0
 14 15  1  0  0  0
 15 16  2  0  0  0
 16 19  1  0  0  0
 19 20  1  0  0  0
 20 21  1  0  0  0
 21 22  1  0  0  0
 22 23  1  0  0  0
 23 24  1  0  0  0
 24 25  1  0  0  0
 25 26  1  0  0  0
 26 27  1  0  0  0
 16 17  1  0  0  0
 17 18  2  0  0  0
 33 34  1  0  0  0
 34 35  2  0  0  0
 35 30  1  0  0  0
 11  1  1  0  0  0
 18 13  1  0  0  0
  9  3  1  0  0  0
 27 22  1  0  0  0
 29 36  1  0  0  0
  6 12  1  0  0  0
M  END
> <minimizedAffinity>
3.72865

> <CNNscore>
0.2132000625

> <CNNaffinity>
7.4150567055

> <CNN_VS>
1.5808905363

> <CNNaffinity_variance>
0.1759962738

$$$$
[H]Oc1c([H])c([H])c2c(c1[H])C([H])([H])[C@@]([H])(C([H])([H])C([H])([H])C([H])([H])C([H])([H])C([H])([H])C([H])([H])C([H])([H])C([H])([H])C([H])([H])[S+]([O-])C([H])([H])C([H])([H])C([H])([H])C(F)(F)C(F)(F)F)[C@]1([H])[C@]2([H])C([H])([H])C([H])([H])[C@]2(C([H])([H])[H])[C@@]([H])(O[H])C([H])([H])C([H])([H])[C@]21[H]


 43 46  0  0  0  0  0  0  0  0999 V2000
    8.4663   44.1258  132.1597 C   0  0  0  0  0  0  0  0  0  0  0  0
    8.5405   44.2141  133.6415 C   0  0  0  0  0  0  0  0  0  0  0  0
    7.3863   44.8991  134.3070 C   0  0  0  0  0  0  0  0  0  0  0  0
    7.2838   46.2654  133.6689 C   0  0  0  0  0  0  0  0  0  0  0  0
    8.5338   47.0188  133.6356 C   0  0  0  0  0  0  0  0  0  0  0  0
    9.8254   46.2581  133.3956 C   0  0  0  0  0  0  0  0  0  0  0  0
    9.7934   44.9567  134.1338 C   0  0  0  0  0  0  0  0  0  0  0  0
   10.8461   43.9721  133.7975 C   0  0  0  0  0  0  0  0  0  0  0  0
   10.1928   42.5880  133.7177 C   0  0  0  0  0  0  0  0  0  0  0  0
    8.7609   42.8126  134.1696 C   0  0  0  0  0  0  0  0  0  0  0  0
    7.9466   41.9399  133.4740 O   0  0  0  0  0  0  0  0  0  0  0  0
   10.9844   47.1495  133.6155 C   0  0  0  0  0  0  0  0  0  0  0  0
   10.6154   48.6141  133.9055 C   0  0  0  0  0  0  0  0  0  0  0  0
    9.6119   49.0325  132.8618 C   0  0  0  0  0  0  0  0  0  0  0  0
    9.7513   50.1541  132.1014 C   0  0  0  0  0  0  0  0  0  0  0  0
    8.7766   50.4462  131.1602 C   0  0  0  0  0  0  0  0  0  0  0  0
    8.9008   51.5889  130.3723 O   0  0  0  0  0  0  0  0  0  0  0  0
    7.6952   49.5885  131.0250 C   0  0  0  0  0  0  0  0  0  0  0  0
    7.5556   48.4553  131.7944 C   0  0  0  0  0  0  0  0  0  0  0  0
    8.5327   48.1806  132.7243 C   0  0  0  0  0  0  0  0  0  0  0  0
    7.3592   41.4050  134.0703 H   0  0  0  0  0  0  0  0  0  0  0  0
    8.4858   52.4380  130.7354 H   0  0  0  0  0  0  0  0  0  0  0  0
   12.0994   46.6978  134.4733 C   0  0  0  0  0  0  0  0  0  0  0  0
   13.3905   46.4603  133.7072 C   0  0  0  0  0  0  0  0  0  0  0  0
   13.1732   46.2436  132.2333 C   0  0  0  0  0  0  0  0  0  0  0  0
   13.5930   44.8720  131.7966 C   0  0  0  0  0  0  0  0  0  0  0  0
   12.6736   44.3245  130.7604 C   0  0  0  0  0  0  0  0  0  0  0  0
   11.8817   43.1044  131.2293 C   0  0  0  0  0  0  0  0  0  0  0  0
   10.9821   42.6259  130.1410 C   0  0  0  0  0  0  0  0  0  0  0  0
    9.7519   41.9536  130.5913 C   0  0  0  0  0  0  0  0  0  0  0  0
    8.4548   42.2648  129.9187 C   0  0  0  0  0  0  0  0  0  0  0  0
    8.4866   43.6965  128.9663 S   0  0  0  0  0  0  0  0  0  0  0  0
    9.1518   43.4535  127.4790 O   0  0  0  0  0  0  0  0  0  0  0  0
    7.3294   44.9237  129.1225 C   0  0  0  0  0  0  0  0  0  0  0  0
    7.7186   46.2130  129.7775 C   0  0  0  0  0  0  0  0  0  0  0  0
    8.5999   47.0693  128.9657 C   0  0  0  0  0  0  0  0  0  0  0  0
   10.0629   47.0195  129.2838 C   0  0  0  0  0  0  0  0  0  0  0  0
   10.2360   46.2022  130.4327 F   0  0  0  0  0  0  0  0  0  0  0  0
   10.5325   48.2842  129.6605 F   0  0  0  0  0  0  0  0  0  0  0  0
   10.9150   46.4241  128.2257 C   0  0  0  0  0  0  0  0  0  0  0  0
   10.2371   46.1111  127.0896 F   0  0  0  0  0  0  0  0  0  0  0  0
   11.5714   45.3141  128.7588 F   0  0  0  0  0  0  0  0  0  0  0  0
   11.9417   47.3024  127.8758 F   0  0  0  0  0  0  0  0  0  0  0  0
  2  1  1  0  0  0
  2  3  1  0  0  0
  3  4  1  0  0  0
  4  5  1  0  0  0
  5  6  1  0  0  0
  6  7  1  0  0  0
  7  8  1  0  0  0
  8  9  1  0  0  0
  9 10  1  0  0  0
 10 11  1  0  0  0
  6 12  1  0  0  0
 12 23  1  0  0  0
 23 24  1  0  0  0
 24 25  1  0  0  0
 25 26  1  0  0  0
 26 27  1  0  0  0
 27 28  1  0  0  0
 28 29  1  0  0  0
 29 30  1  0  0  0
 30 31  1  0  0  0
 31 32  1  0  0  0
 32 33  2  0  0  0
 32 34  1  0  0  0
 34 35  1  0  0  0
 35 36  1  0  0  0
 36 37  1  0  0  0
 37 38  1  0  0  0
 37 39  1  0  0  0
 37 40  1  0  0  0
 40 41  1  0  0  0
 40 42  1  0  0  0
 40 43  1  0  0  0
 12 13  1  0  0  0
 13 14  1  0  0  0
 14 15  2  0  0  0
 15 16  1  0  0  0
 16 17  1  0  0  0
 16 18  2  0  0  0
 18 19  1  0  0  0
 19 20  2  0  0  0
  7  2  1  0  0  0
 20 14  1  0  0  0
 10  2  1  0  0  0
 20  5  1  0  0  0
 11 21  1  0  0  0
 17 22  1  0  0  0
M  CHG 1  32   1
M  CHG 1  33  -1
M  END
> <minimizedAffinity>
8.09302

> <CNNscore>
0.4580084980

> <CNNaffinity>
7.8917541504

> <CNN_VS>
3.6144905090

> <CNNaffinity_variance>
0.2521987855

$$$$
[H]Oc1c([H])c([H])c2c(c1[H])C([H])([H])[C@@]([H])(C([H])([H])C([H])([H])C([H])([H])C([H])([H])C([H])([H])C([H])([H])C([H])([H])C([H])([H])C([H])([H])[S+]([O-])C([H])([H])C([H])([H])C([H])([H])C(F)(F)C(F)(F)F)[C@]1([H])[C@]2([H])C([H])([H])C([H])([H])[C@]2(C([H])([H])[H])[C@@]([H])(O[H])C([H])([H])C([H])([H])[C@]21[H]


 43 46  0  0  0  0  0  0  0  0999 V2000
    8.6697   44.5114  127.6240 C   0  0  0  0  0  0  0  0  0  0  0  0
    9.3067   44.2136  128.9334 C   0  0  0  0  0  0  0  0  0  0  0  0
    8.3701   43.8123  130.0316 C   0  0  0  0  0  0  0  0  0  0  0  0
    7.3528   44.9244  130.1436 C   0  0  0  0  0  0  0  0  0  0  0  0
    7.9226   46.2639  130.2550 C   0  0  0  0  0  0  0  0  0  0  0  0
    9.1803   46.5780  129.4651 C   0  0  0  0  0  0  0  0  0  0  0  0
   10.1052   45.4020  129.4934 C   0  0  0  0  0  0  0  0  0  0  0  0
   11.2500   45.4299  128.5555 C   0  0  0  0  0  0  0  0  0  0  0  0
   11.3973   44.0318  127.9452 C   0  0  0  0  0  0  0  0  0  0  0  0
   10.3850   43.1794  128.6892 C   0  0  0  0  0  0  0  0  0  0  0  0
    9.8993   42.2251  127.8163 O   0  0  0  0  0  0  0  0  0  0  0  0
    9.7195   47.8919  129.8761 C   0  0  0  0  0  0  0  0  0  0  0  0
    8.8413   48.6541  130.8828 C   0  0  0  0  0  0  0  0  0  0  0  0
    7.4312   48.6230  130.3519 C   0  0  0  0  0  0  0  0  0  0  0  0
    6.6670   49.7405  130.2008 C   0  0  0  0  0  0  0  0  0  0  0  0
    5.3839   49.6066  129.6939 C   0  0  0  0  0  0  0  0  0  0  0  0
    4.5862   50.7377  129.5317 O   0  0  0  0  0  0  0  0  0  0  0  0
    4.9229   48.3424  129.3585 C   0  0  0  0  0  0  0  0  0  0  0  0
    5.6964   47.2137  129.5119 C   0  0  0  0  0  0  0  0  0  0  0  0
    6.9680   47.3649  130.0168 C   0  0  0  0  0  0  0  0  0  0  0  0
    9.9646   41.3032  128.1802 H   0  0  0  0  0  0  0  0  0  0  0  0
    4.0057   51.0004  130.3184 H   0  0  0  0  0  0  0  0  0  0  0  0
   11.1529   48.0195  130.2113 C   0  0  0  0  0  0  0  0  0  0  0  0
   11.5791   47.1419  131.3768 C   0  0  0  0  0  0  0  0  0  0  0  0
   11.3963   47.8056  132.7157 C   0  0  0  0  0  0  0  0  0  0  0  0
   12.5282   47.5071  133.6528 C   0  0  0  0  0  0  0  0  0  0  0  0
   12.4541   46.1122  134.1701 C   0  0  0  0  0  0  0  0  0  0  0  0
   12.7636   45.0517  133.1140 C   0  0  0  0  0  0  0  0  0  0  0  0
   12.0582   43.7795  133.4407 C   0  0  0  0  0  0  0  0  0  0  0  0
   11.9846   42.8009  132.3428 C   0  0  0  0  0  0  0  0  0  0  0  0
   10.6965   42.0946  132.0718 C   0  0  0  0  0  0  0  0  0  0  0  0
    9.2987   43.0562  132.3539 S   0  0  0  0  0  0  0  0  0  0  0  0
    8.0679   42.2001  133.0365 O   0  0  0  0  0  0  0  0  0  0  0  0
    9.3825   44.7160  132.6814 C   0  0  0  0  0  0  0  0  0  0  0  0
    9.4208   45.1766  134.1059 C   0  0  0  0  0  0  0  0  0  0  0  0
    8.1365   45.6821  134.6196 C   0  0  0  0  0  0  0  0  0  0  0  0
    8.1573   47.0332  135.2663 C   0  0  0  0  0  0  0  0  0  0  0  0
    9.1613   47.0247  136.2712 F   0  0  0  0  0  0  0  0  0  0  0  0
    6.9585   47.2754  135.9491 F   0  0  0  0  0  0  0  0  0  0  0  0
    8.4950   48.1575  134.3597 C   0  0  0  0  0  0  0  0  0  0  0  0
    8.2267   49.3825  134.8848 F   0  0  0  0  0  0  0  0  0  0  0  0
    7.8366   47.9597  133.1454 F   0  0  0  0  0  0  0  0  0  0  0  0
    9.8511   48.1274  134.0309 F   0  0  0  0  0  0  0  0  0  0  0  0
  2  1  1  0  0  0
  2  3  1  0  0  0
  3  4  1  0  0  0
  4  5  1  0  0  0
  5  6  1  0  0  0
  6  7  1  0  0  0
  7  8  1  0  0  0
  8  9  1  0  0  0
  9 10  1  0  0  0
 10 11  1  0  0  0
  6 12  1  0  0  0
 12 23  1  0  0  0
 23 24  1  0  0  0
 24 25  1  0  0  0
 25 26  1  0  0  0
 26 27  1  0  0  0
 27 28  1  0  0  0
 28 29  1  0  0  0
 29 30  1  0  0  0
 30 31  1  0  0  0
 31 32  1  0  0  0
 32 33  2  0  0  0
 32 34  1  0  0  0
 34 35  1  0  0  0
 35 36  1  0  0  0
 36 37  1  0  0  0
 37 38  1  0  0  0
 37 39  1  0  0  0
 37 40  1  0  0  0
 40 41  1  0  0  0
 40 42  1  0  0  0
 40 43  1  0  0  0
 12 13  1  0  0  0
 13 14  1  0  0  0
 14 15  2  0  0  0
 15 16  1  0  0  0
 16 17  1  0  0  0
 16 18  2  0  0  0
 18 19  1  0  0  0
 19 20  2  0  0  0
  7  2  1  0  0  0
 20 14  1  0  0  0
 10  2  1  0  0  0
 20  5  1  0  0  0
 11 21  1  0  0  0
 17 22  1  0  0  0
M  CHG 1  32   1
M  CHG 1  33  -1
M  END
> <minimizedAffinity>
4.05501

> <CNNscore>
0.4284955263

> <CNNaffinity>
8.5517940521

> <CNN_VS>
3.6644055843

> <CNNaffinity_variance>
0.6300643682

$$$$
[H]Oc1c([H])c([H])c2c(c1[H])C([H])([H])[C@@]([H])(C([H])([H])C([H])([H])C([H])([H])C([H])([H])C([H])([H])C([H])([H])C([H])([H])C([H])([H])C([H])([H])[S+]([O-])C([H])([H])C([H])([H])C([H])([H])C(F)(F)C(F)(F)F)[C@]1([H])[C@]2([H])C([H])([H])C([H])([H])[C@]2(C([H])([H])[H])[C@@]([H])(O[H])C([H])([H])C([H])([H])[C@]21[H]


 43 46  0  0  0  0  0  0  0  0999 V2000
    9.1217   48.1484  133.7191 C   0  0  0  0  0  0  0  0  0  0  0  0
   10.3171   48.7560  133.0782 C   0  0  0  0  0  0  0  0  0  0  0  0
   10.3066   50.2506  132.9765 C   0  0  0  0  0  0  0  0  0  0  0  0
    9.0342   50.6133  132.2460 C   0  0  0  0  0  0  0  0  0  0  0  0
    8.8219   49.8919  130.9948 C   0  0  0  0  0  0  0  0  0  0  0  0
    9.2493   48.4370  130.9224 C   0  0  0  0  0  0  0  0  0  0  0  0
   10.5472   48.2522  131.6440 C   0  0  0  0  0  0  0  0  0  0  0  0
   10.9723   46.8590  131.9074 C   0  0  0  0  0  0  0  0  0  0  0  0
   11.5283   46.7946  133.3342 C   0  0  0  0  0  0  0  0  0  0  0  0
   11.5373   48.2368  133.8083 C   0  0  0  0  0  0  0  0  0  0  0  0
   11.2832   48.2466  135.1662 O   0  0  0  0  0  0  0  0  0  0  0  0
    9.1581   47.9530  129.5283 C   0  0  0  0  0  0  0  0  0  0  0  0
    8.5576   48.9670  128.5400 C   0  0  0  0  0  0  0  0  0  0  0  0
    7.2966   49.5028  129.1677 C   0  0  0  0  0  0  0  0  0  0  0  0
    6.0941   49.5187  128.5277 C   0  0  0  0  0  0  0  0  0  0  0  0
    4.9902   50.0239  129.1964 C   0  0  0  0  0  0  0  0  0  0  0  0
    3.7512   50.0490  128.5591 O   0  0  0  0  0  0  0  0  0  0  0  0
    5.1470   50.4950  130.4913 C   0  0  0  0  0  0  0  0  0  0  0  0
    6.3630   50.4784  131.1369 C   0  0  0  0  0  0  0  0  0  0  0  0
    7.4488   49.9734  130.4580 C   0  0  0  0  0  0  0  0  0  0  0  0
   11.9607   48.7602  135.6799 H   0  0  0  0  0  0  0  0  0  0  0  0
    3.5301   50.8827  128.0289 H   0  0  0  0  0  0  0  0  0  0  0  0
   10.3018   47.2341  128.9297 C   0  0  0  0  0  0  0  0  0  0  0  0
   10.1202   45.7252  128.9085 C   0  0  0  0  0  0  0  0  0  0  0  0
   10.8569   45.0559  127.7790 C   0  0  0  0  0  0  0  0  0  0  0  0
   11.7743   43.9744  128.2660 C   0  0  0  0  0  0  0  0  0  0  0  0
   11.5197   43.6470  129.6967 C   0  0  0  0  0  0  0  0  0  0  0  0
   12.5290   44.2763  130.6564 C   0  0  0  0  0  0  0  0  0  0  0  0
   12.4918   43.5771  131.9727 C   0  0  0  0  0  0  0  0  0  0  0  0
   11.4872   42.5067  132.0885 C   0  0  0  0  0  0  0  0  0  0  0  0
   10.1519   42.8121  132.6844 C   0  0  0  0  0  0  0  0  0  0  0  0
   10.2277   43.4611  134.2753 S   0  0  0  0  0  0  0  0  0  0  0  0
   11.7218   43.3075  134.9518 O   0  0  0  0  0  0  0  0  0  0  0  0
    9.2623   44.7584  134.7798 C   0  0  0  0  0  0  0  0  0  0  0  0
    8.4801   45.5250  133.7583 C   0  0  0  0  0  0  0  0  0  0  0  0
    7.6824   44.6887  132.8455 C   0  0  0  0  0  0  0  0  0  0  0  0
    7.8486   44.9481  131.3795 C   0  0  0  0  0  0  0  0  0  0  0  0
    7.5526   43.7458  130.6833 F   0  0  0  0  0  0  0  0  0  0  0  0
    9.1864   45.2281  131.0734 F   0  0  0  0  0  0  0  0  0  0  0  0
    6.9426   45.9798  130.8183 C   0  0  0  0  0  0  0  0  0  0  0  0
    7.0771   47.2008  131.4010 F   0  0  0  0  0  0  0  0  0  0  0  0
    5.6315   45.5091  130.9004 F   0  0  0  0  0  0  0  0  0  0  0  0
    7.1722   46.1376  129.4507 F   0  0  0  0  0  0  0  0  0  0  0  0
  2  1  1  0  0  0
  2  3  1  0  0  0
  3  4  1  0  0  0
  4  5  1  0  0  0
  5  6  1  0  0  0
  6  7  1  0  0  0
  7  8  1  0  0  0
  8  9  1  0  0  0
  9 10  1  0  0  0
 10 11  1  0  0  0
  6 12  1  0  0  0
 12 23  1  0  0  0
 23 24  1  0  0  0
 24 25  1  0  0  0
 25 26  1  0  0  0
 26 27  1  0  0  0
 27 28  1  0  0  0
 28 29  1  0  0  0
 29 30  1  0  0  0
 30 31  1  0  0  0
 31 32  1  0  0  0
 32 33  2  0  0  0
 32 34  1  0  0  0
 34 35  1  0  0  0
 35 36  1  0  0  0
 36 37  1  0  0  0
 37 38  1  0  0  0
 37 39  1  0  0  0
 37 40  1  0  0  0
 40 41  1  0  0  0
 40 42  1  0  0  0
 40 43  1  0  0  0
 12 13  1  0  0  0
 13 14  1  0  0  0
 14 15  2  0  0  0
 15 16  1  0  0  0
 16 17  1  0  0  0
 16 18  2  0  0  0
 18 19  1  0  0  0
 19 20  2  0  0  0
  7  2  1  0  0  0
 20 14  1  0  0  0
 10  2  1  0  0  0
 20  5  1  0  0  0
 11 21  1  0  0  0
 17 22  1  0  0  0
M  CHG 1  32   1
M  CHG 1  33  -1
M  END
> <minimizedAffinity>
2.26422

> <CNNscore>
0.3857455254

> <CNNaffinity>
8.0865354538

> <CNN_VS>
3.1193449497

> <CNNaffinity_variance>
0.2043354511

$$$$
[H]Oc1c([H])c([H])c2c(c1[H])C([H])([H])[C@@]([H])(C([H])([H])C([H])([H])C([H])([H])C([H])([H])C([H])([H])C([H])([H])C([H])([H])C([H])([H])C([H])([H])[S+]([O-])C([H])([H])C([H])([H])C([H])([H])C(F)(F)C(F)(F)F)[C@]1([H])[C@]2([H])C([H])([H])C([H])([H])[C@]2(C([H])([H])[H])[C@@]([H])(O[H])C([H])([H])C([H])([H])[C@]21[H]


 43 46  0  0  0  0  0  0  0  0999 V2000
    8.1333   55.7860  124.3718 C   0  0  0  0  0  0  0  0  0  0  0  0
    8.3096   54.3608  123.9888 C   0  0  0  0  0  0  0  0  0  0  0  0
    7.4663   53.8900  122.8437 C   0  0  0  0  0  0  0  0  0  0  0  0
    6.0352   54.1954  123.2220 C   0  0  0  0  0  0  0  0  0  0  0  0
    5.6369   53.7145  124.5416 C   0  0  0  0  0  0  0  0  0  0  0  0
    6.6571   53.7682  125.6645 C   0  0  0  0  0  0  0  0  0  0  0  0
    8.0077   53.3904  125.1424 C   0  0  0  0  0  0  0  0  0  0  0  0
    9.1635   53.6508  126.0297 C   0  0  0  0  0  0  0  0  0  0  0  0
   10.2986   54.2238  125.1741 C   0  0  0  0  0  0  0  0  0  0  0  0
    9.7868   54.1346  123.7476 C   0  0  0  0  0  0  0  0  0  0  0  0
   10.2932   55.2072  123.0393 O   0  0  0  0  0  0  0  0  0  0  0  0
    6.1450   53.0430  126.8468 C   0  0  0  0  0  0  0  0  0  0  0  0
    4.7022   52.5299  126.7036 C   0  0  0  0  0  0  0  0  0  0  0  0
    3.8738   53.6779  126.1866 C   0  0  0  0  0  0  0  0  0  0  0  0
    2.7185   54.0895  126.7796 C   0  0  0  0  0  0  0  0  0  0  0  0
    2.0345   55.1634  126.2317 C   0  0  0  0  0  0  0  0  0  0  0  0
    0.8507   55.5998  126.8234 O   0  0  0  0  0  0  0  0  0  0  0  0
    2.5483   55.7808  125.1012 C   0  0  0  0  0  0  0  0  0  0  0  0
    3.7161   55.3635  124.5029 C   0  0  0  0  0  0  0  0  0  0  0  0
    4.3824   54.2955  125.0600 C   0  0  0  0  0  0  0  0  0  0  0  0
   10.7470   54.9329  122.1994 H   0  0  0  0  0  0  0  0  0  0  0  0
   -0.0062   55.1744  126.4922 H   0  0  0  0  0  0  0  0  0  0  0  0
    7.0038   52.0465  127.5195 C   0  0  0  0  0  0  0  0  0  0  0  0
    6.8708   52.0612  129.0336 C   0  0  0  0  0  0  0  0  0  0  0  0
    6.7903   50.6831  129.6343 C   0  0  0  0  0  0  0  0  0  0  0  0
    8.0572   49.9059  129.4354 C   0  0  0  0  0  0  0  0  0  0  0  0
    7.8168   48.6634  128.6497 C   0  0  0  0  0  0  0  0  0  0  0  0
    8.9341   47.6295  128.7848 C   0  0  0  0  0  0  0  0  0  0  0  0
    9.3065   47.4591  130.2184 C   0  0  0  0  0  0  0  0  0  0  0  0
    8.7914   46.2388  130.8616 C   0  0  0  0  0  0  0  0  0  0  0  0
    9.0450   44.9099  130.2280 C   0  0  0  0  0  0  0  0  0  0  0  0
   10.4157   44.0844  130.8587 S   0  0  0  0  0  0  0  0  0  0  0  0
   11.4056   43.5047  129.6764 O   0  0  0  0  0  0  0  0  0  0  0  0
   11.1150   44.4812  132.3496 C   0  0  0  0  0  0  0  0  0  0  0  0
   10.4316   44.0536  133.6118 C   0  0  0  0  0  0  0  0  0  0  0  0
   10.7069   44.9116  134.7767 C   0  0  0  0  0  0  0  0  0  0  0  0
   10.1531   46.3028  134.7314 C   0  0  0  0  0  0  0  0  0  0  0  0
   10.5256   46.8846  133.4902 F   0  0  0  0  0  0  0  0  0  0  0  0
   10.7533   47.1081  135.7076 F   0  0  0  0  0  0  0  0  0  0  0  0
    8.6740   46.3917  134.7977 C   0  0  0  0  0  0  0  0  0  0  0  0
    8.2075   47.6635  134.9128 F   0  0  0  0  0  0  0  0  0  0  0  0
    8.2285   45.5809  135.8423 F   0  0  0  0  0  0  0  0  0  0  0  0
    8.1009   45.8341  133.6538 F   0  0  0  0  0  0  0  0  0  0  0  0
  2  1  1  0  0  0
  2  3  1  0  0  0
  3  4  1  0  0  0
  4  5  1  0  0  0
  5  6  1  0  0  0
  6  7  1  0  0  0
  7  8  1  0  0  0
  8  9  1  0  0  0
  9 10  1  0  0  0
 10 11  1  0  0  0
  6 12  1  0  0  0
 12 23  1  0  0  0
 23 24  1  0  0  0
 24 25  1  0  0  0
 25 26  1  0  0  0
 26 27  1  0  0  0
 27 28  1  0  0  0
 28 29  1  0  0  0
 29 30  1  0  0  0
 30 31  1  0  0  0
 31 32  1  0  0  0
 32 33  2  0  0  0
 32 34  1  0  0  0
 34 35  1  0  0  0
 35 36  1  0  0  0
 36 37  1  0  0  0
 37 38  1  0  0  0
 37 39  1  0  0  0
 37 40  1  0  0  0
 40 41  1  0  0  0
 40 42  1  0  0  0
 40 43  1  0  0  0
 12 13  1  0  0  0
 13 14  1  0  0  0
 14 15  2  0  0  0
 15 16  1  0  0  0
 16 17  1  0  0  0
 16 18  2  0  0  0
 18 19  1  0  0  0
 19 20  2  0  0  0
  7  2  1  0  0  0
 20 14  1  0  0  0
 10  2  1  0  0  0
 20  5  1  0  0  0
 11 21  1  0  0  0
 17 22  1  0  0  0
M  CHG 1  32   1
M  CHG 1  33  -1
M  END
> <minimizedAffinity>
17.42311

> <CNNscore>
0.3270035684

> <CNNaffinity>
6.9181756973

> <CNN_VS>
2.2622680664

> <CNNaffinity_variance>
0.5330416560

$$$$
[H]Oc1c([H])c([H])c2c(c1[H])C([H])([H])[C@@]([H])(C([H])([H])C([H])([H])C([H])([H])C([H])([H])C([H])([H])C([H])([H])C([H])([H])C([H])([H])C([H])([H])[S+]([O-])C([H])([H])C([H])([H])C([H])([H])C(F)(F)C(F)(F)F)[C@]1([H])[C@]2([H])C([H])([H])C([H])([H])[C@]2(C([H])([H])[H])[C@@]([H])(O[H])C([H])([H])C([H])([H])[C@]21[H]


 43 46  0  0  0  0  0  0  0  0999 V2000
    8.0118   48.0600  134.4567 C   0  0  0  0  0  0  0  0  0  0  0  0
    9.1758   47.2659  133.9840 C   0  0  0  0  0  0  0  0  0  0  0  0
   10.4003   48.0567  133.6383 C   0  0  0  0  0  0  0  0  0  0  0  0
    9.9654   49.0781  132.6127 C   0  0  0  0  0  0  0  0  0  0  0  0
    9.2253   48.5290  131.4804 C   0  0  0  0  0  0  0  0  0  0  0  0
    8.2658   47.3811  131.7372 C   0  0  0  0  0  0  0  0  0  0  0  0
    8.8616   46.4334  132.7304 C   0  0  0  0  0  0  0  0  0  0  0  0
    7.9584   45.4086  133.3006 C   0  0  0  0  0  0  0  0  0  0  0  0
    8.2483   45.3036  134.8019 C   0  0  0  0  0  0  0  0  0  0  0  0
    9.4521   46.2015  135.0243 C   0  0  0  0  0  0  0  0  0  0  0  0
    9.3437   46.7658  136.2806 O   0  0  0  0  0  0  0  0  0  0  0  0
    7.7872   46.8263  130.4530 C   0  0  0  0  0  0  0  0  0  0  0  0
    8.2640   47.5959  129.2097 C   0  0  0  0  0  0  0  0  0  0  0  0
    8.0055   49.0579  129.4683 C   0  0  0  0  0  0  0  0  0  0  0  0
    7.3260   49.8593  128.6012 C   0  0  0  0  0  0  0  0  0  0  0  0
    7.1319   51.1901  128.9368 C   0  0  0  0  0  0  0  0  0  0  0  0
    6.4393   52.0263  128.0633 O   0  0  0  0  0  0  0  0  0  0  0  0
    7.6350   51.6593  130.1409 C   0  0  0  0  0  0  0  0  0  0  0  0
    8.3217   50.8482  131.0162 C   0  0  0  0  0  0  0  0  0  0  0  0
    8.5055   49.5294  130.6671 C   0  0  0  0  0  0  0  0  0  0  0  0
   10.1606   46.6373  136.8311 H   0  0  0  0  0  0  0  0  0  0  0  0
    6.9912   52.5153  127.3695 H   0  0  0  0  0  0  0  0  0  0  0  0
    7.8290   45.3666  130.2284 C   0  0  0  0  0  0  0  0  0  0  0  0
    8.2245   44.9865  128.8109 C   0  0  0  0  0  0  0  0  0  0  0  0
    8.6973   43.5624  128.6897 C   0  0  0  0  0  0  0  0  0  0  0  0
    9.9657   43.4543  127.8973 C   0  0  0  0  0  0  0  0  0  0  0  0
   10.5294   44.7973  127.5850 C   0  0  0  0  0  0  0  0  0  0  0  0
   11.2540   45.4451  128.7643 C   0  0  0  0  0  0  0  0  0  0  0  0
   12.3479   44.5547  129.2475 C   0  0  0  0  0  0  0  0  0  0  0  0
   11.9548   43.5756  130.2747 C   0  0  0  0  0  0  0  0  0  0  0  0
   10.6310   43.7123  130.9533 C   0  0  0  0  0  0  0  0  0  0  0  0
   10.2262   42.3859  131.9706 S   0  0  0  0  0  0  0  0  0  0  0  0
   11.0613   41.0178  131.5904 O   0  0  0  0  0  0  0  0  0  0  0  0
    9.7273   42.5855  133.5770 C   0  0  0  0  0  0  0  0  0  0  0  0
   10.7608   42.6408  134.6594 C   0  0  0  0  0  0  0  0  0  0  0  0
   11.3930   43.9594  134.8341 C   0  0  0  0  0  0  0  0  0  0  0  0
   12.6483   44.2103  134.0562 C   0  0  0  0  0  0  0  0  0  0  0  0
   12.7997   43.1584  133.1136 F   0  0  0  0  0  0  0  0  0  0  0  0
   13.7729   44.1221  134.8865 F   0  0  0  0  0  0  0  0  0  0  0  0
   12.6588   45.4685  133.2707 C   0  0  0  0  0  0  0  0  0  0  0  0
   13.0461   46.5570  133.9872 F   0  0  0  0  0  0  0  0  0  0  0  0
   11.3967   45.6456  132.7023 F   0  0  0  0  0  0  0  0  0  0  0  0
   13.5206   45.3537  132.1789 F   0  0  0  0  0  0  0  0  0  0  0  0
  2  1  1  0  0  0
  2  3  1  0  0  0
  3  4  1  0  0  0
  4  5  1  0  0  0
  5  6  1  0  0  0
  6  7  1  0  0  0
  7  8  1  0  0  0
  8  9  1  0  0  0
  9 10  1  0  0  0
 10 11  1  0  0  0
  6 12  1  0  0  0
 12 23  1  0  0  0
 23 24  1  0  0  0
 24 25  1  0  0  0
 25 26  1  0  0  0
 26 27  1  0  0  0
 27 28  1  0  0  0
 28 29  1  0  0  0
 29 30  1  0  0  0
 30 31  1  0  0  0
 31 32  1  0  0  0
 32 33  2  0  0  0
 32 34  1  0  0  0
 34 35  1  0  0  0
 35 36  1  0  0  0
 36 37  1  0  0  0
 37 38  1  0  0  0
 37 39  1  0  0  0
 37 40  1  0  0  0
 40 41  1  0  0  0
 40 42  1  0  0  0
 40 43  1  0  0  0
 12 13  1  0  0  0
 13 14  1  0  0  0
 14 15  2  0  0  0
 15 16  1  0  0  0
 16 17  1  0  0  0
 16 18  2  0  0  0
 18 19  1  0  0  0
 19 20  2  0  0  0
  7  2  1  0  0  0
 20 14  1  0  0  0
 10  2  1  0  0  0
 20  5  1  0  0  0
 11 21  1  0  0  0
 17 22  1  0  0  0
M  CHG 1  32   1
M  CHG 1  33  -1
M  END
> <minimizedAffinity>
-1.69673

> <CNNscore>
0.2879712284

> <CNNaffinity>
8.2738580704

> <CNN_VS>
2.3826329708

> <CNNaffinity_variance>
0.3001015186

$$$$
[H]Oc1c([H])c([H])c2c(c1[H])C([H])([H])[C@@]([H])(C([H])([H])C([H])([H])C([H])([H])C([H])([H])C([H])([H])C([H])([H])C([H])([H])C([H])([H])C([H])([H])[S+]([O-])C([H])([H])C([H])([H])C([H])([H])C(F)(F)C(F)(F)F)[C@]1([H])[C@]2([H])C([H])([H])C([H])([H])[C@]2(C([H])([H])[H])[C@@]([H])(O[H])C([H])([H])C([H])([H])[C@]21[H]


 43 46  0  0  0  0  0  0  0  0999 V2000
    8.3506   43.2341  132.9690 C   0  0  0  0  0  0  0  0  0  0  0  0
    8.2785   44.7081  133.1455 C   0  0  0  0  0  0  0  0  0  0  0  0
    7.4737   45.4436  132.1181 C   0  0  0  0  0  0  0  0  0  0  0  0
    8.0604   45.0681  130.7768 C   0  0  0  0  0  0  0  0  0  0  0  0
    9.5085   45.2253  130.6785 C   0  0  0  0  0  0  0  0  0  0  0  0
   10.3514   44.8988  131.8981 C   0  0  0  0  0  0  0  0  0  0  0  0
    9.6615   45.3794  133.1361 C   0  0  0  0  0  0  0  0  0  0  0  0
   10.2047   44.9070  134.4294 C   0  0  0  0  0  0  0  0  0  0  0  0
    9.0233   44.5446  135.3360 C   0  0  0  0  0  0  0  0  0  0  0  0
    7.7942   44.9737  134.5549 C   0  0  0  0  0  0  0  0  0  0  0  0
    6.7684   44.0959  134.8477 O   0  0  0  0  0  0  0  0  0  0  0  0
   11.7490   45.3267  131.6749 C   0  0  0  0  0  0  0  0  0  0  0  0
   12.0310   45.8701  130.2640 C   0  0  0  0  0  0  0  0  0  0  0  0
   11.4472   44.8840  129.2853 C   0  0  0  0  0  0  0  0  0  0  0  0
   12.1561   44.3523  128.2506 C   0  0  0  0  0  0  0  0  0  0  0  0
   11.5298   43.4444  127.4111 C   0  0  0  0  0  0  0  0  0  0  0  0
   12.2378   42.8891  126.3469 O   0  0  0  0  0  0  0  0  0  0  0  0
   10.2060   43.1090  127.6525 C   0  0  0  0  0  0  0  0  0  0  0  0
    9.4908   43.6474  128.6986 C   0  0  0  0  0  0  0  0  0  0  0  0
   10.1281   44.5475  129.5223 C   0  0  0  0  0  0  0  0  0  0  0  0
    5.9388   44.5582  135.1390 H   0  0  0  0  0  0  0  0  0  0  0  0
   12.1991   43.3876  125.4666 H   0  0  0  0  0  0  0  0  0  0  0  0
   12.4397   46.1285  132.7060 C   0  0  0  0  0  0  0  0  0  0  0  0
   11.9946   47.5814  132.7372 C   0  0  0  0  0  0  0  0  0  0  0  0
   10.9545   47.8597  133.7894 C   0  0  0  0  0  0  0  0  0  0  0  0
    9.7119   48.4651  133.2084 C   0  0  0  0  0  0  0  0  0  0  0  0
   10.0117   49.7263  132.4747 C   0  0  0  0  0  0  0  0  0  0  0  0
    9.0205   50.0303  131.3517 C   0  0  0  0  0  0  0  0  0  0  0  0
    9.5888   49.6140  130.0378 C   0  0  0  0  0  0  0  0  0  0  0  0
    8.9810   48.4126  129.4414 C   0  0  0  0  0  0  0  0  0  0  0  0
    7.7788   47.8004  130.0831 C   0  0  0  0  0  0  0  0  0  0  0  0
    6.2958   48.1888  129.3035 S   0  0  0  0  0  0  0  0  0  0  0  0
    5.7363   46.9612  128.3582 O   0  0  0  0  0  0  0  0  0  0  0  0
    5.1580   49.2463  129.9792 C   0  0  0  0  0  0  0  0  0  0  0  0
    5.3734   50.7233  129.8570 C   0  0  0  0  0  0  0  0  0  0  0  0
    5.7806   51.1726  128.5149 C   0  0  0  0  0  0  0  0  0  0  0  0
    7.0665   51.9357  128.4241 C   0  0  0  0  0  0  0  0  0  0  0  0
    8.0517   51.0740  127.8720 F   0  0  0  0  0  0  0  0  0  0  0  0
    7.5408   52.2631  129.7007 F   0  0  0  0  0  0  0  0  0  0  0  0
    7.0269   53.1291  127.5441 C   0  0  0  0  0  0  0  0  0  0  0  0
    5.7910   53.4012  127.0473 F   0  0  0  0  0  0  0  0  0  0  0  0
    7.9675   52.9603  126.5272 F   0  0  0  0  0  0  0  0  0  0  0  0
    7.4612   54.2599  128.2374 F   0  0  0  0  0  0  0  0  0  0  0  0
  2  1  1  0  0  0
  2  3  1  0  0  0
  3  4  1  0  0  0
  4  5  1  0  0  0
  5  6  1  0  0  0
  6  7  1  0  0  0
  7  8  1  0  0  0
  8  9  1  0  0  0
  9 10  1  0  0  0
 10 11  1  0  0  0
  6 12  1  0  0  0
 12 23  1  0  0  0
 23 24  1  0  0  0
 24 25  1  0  0  0
 25 26  1  0  0  0
 26 27  1  0  0  0
 27 28  1  0  0  0
 28 29  1  0  0  0
 29 30  1  0  0  0
 30 31  1  0  0  0
 31 32  1  0  0  0
 32 33  2  0  0  0
 32 34  1  0  0  0
 34 35  1  0  0  0
 35 36  1  0  0  0
 36 37  1  0  0  0
 37 38  1  0  0  0
 37 39  1  0  0  0
 37 40  1  0  0  0
 40 41  1  0  0  0
 40 42  1  0  0  0
 40 43  1  0  0  0
 12 13  1  0  0  0
 13 14  1  0  0  0
 14 15  2  0  0  0
 15 16  1  0  0  0
 16 17  1  0  0  0
 16 18  2  0  0  0
 18 19  1  0  0  0
 19 20  2  0  0  0
  7  2  1  0  0  0
 20 14  1  0  0  0
 10  2  1  0  0  0
 20  5  1  0  0  0
 11 21  1  0  0  0
 17 22  1  0  0  0
M  CHG 1  32   1
M  CHG 1  33  -1
M  END
> <minimizedAffinity>
10.87074

> <CNNscore>
0.2798638940

> <CNNaffinity>
7.9059114456

> <CNN_VS>
2.2125792503

> <CNNaffinity_variance>
0.5549601316

$$$$
[H]Oc1c([H])c([H])c2c(c1[H])C([H])([H])[C@@]([H])(C([H])([H])C([H])([H])C([H])([H])C([H])([H])C([H])([H])C([H])([H])C([H])([H])C([H])([H])C([H])([H])[S+]([O-])C([H])([H])C([H])([H])C([H])([H])C(F)(F)C(F)(F)F)[C@]1([H])[C@]2([H])C([H])([H])C([H])([H])[C@]2(C([H])([H])[H])[C@@]([H])(O[H])C([H])([H])C([H])([H])[C@]21[H]


 43 46  0  0  0  0  0  0  0  0999 V2000
    8.3213   43.4041  133.5357 C   0  0  0  0  0  0  0  0  0  0  0  0
    8.4665   44.8824  133.5862 C   0  0  0  0  0  0  0  0  0  0  0  0
    7.6452   45.6469  132.5937 C   0  0  0  0  0  0  0  0  0  0  0  0
    8.0072   45.0947  131.2342 C   0  0  0  0  0  0  0  0  0  0  0  0
    9.4401   45.0376  130.9605 C   0  0  0  0  0  0  0  0  0  0  0  0
   10.3766   44.6855  132.1022 C   0  0  0  0  0  0  0  0  0  0  0  0
    9.9142   45.3485  133.3616 C   0  0  0  0  0  0  0  0  0  0  0  0
   10.5458   44.9003  134.6230 C   0  0  0  0  0  0  0  0  0  0  0  0
    9.4479   44.7764  135.6852 C   0  0  0  0  0  0  0  0  0  0  0  0
    8.1992   45.3166  135.0116 C   0  0  0  0  0  0  0  0  0  0  0  0
    7.1106   44.6169  135.4951 O   0  0  0  0  0  0  0  0  0  0  0  0
   11.7800   44.8936  131.6862 C   0  0  0  0  0  0  0  0  0  0  0  0
   11.9550   45.2866  130.2096 C   0  0  0  0  0  0  0  0  0  0  0  0
   11.1299   44.3239  129.3949 C   0  0  0  0  0  0  0  0  0  0  0  0
   11.6294   43.6226  128.3392 C   0  0  0  0  0  0  0  0  0  0  0  0
   10.7901   42.7533  127.6600 C   0  0  0  0  0  0  0  0  0  0  0  0
   11.2819   42.0267  126.5773 O   0  0  0  0  0  0  0  0  0  0  0  0
    9.4736   42.6274  128.0775 C   0  0  0  0  0  0  0  0  0  0  0  0
    8.9702   43.3369  129.1446 C   0  0  0  0  0  0  0  0  0  0  0  0
    9.8174   44.1958  129.8076 C   0  0  0  0  0  0  0  0  0  0  0  0
    6.3916   45.2121  135.8349 H   0  0  0  0  0  0  0  0  0  0  0  0
   11.2009   42.4596  125.6657 H   0  0  0  0  0  0  0  0  0  0  0  0
   12.6924   45.6631  132.5573 C   0  0  0  0  0  0  0  0  0  0  0  0
   12.3380   47.1384  132.6466 C   0  0  0  0  0  0  0  0  0  0  0  0
   11.6779   47.5111  133.9473 C   0  0  0  0  0  0  0  0  0  0  0  0
   10.2855   48.0295  133.7453 C   0  0  0  0  0  0  0  0  0  0  0  0
   10.2892   49.4730  133.3776 C   0  0  0  0  0  0  0  0  0  0  0  0
    9.4121   49.7979  132.1690 C   0  0  0  0  0  0  0  0  0  0  0  0
   10.2601   50.0181  130.9627 C   0  0  0  0  0  0  0  0  0  0  0  0
   10.4069   48.8523  130.0752 C   0  0  0  0  0  0  0  0  0  0  0  0
    9.4549   47.7080  130.2001 C   0  0  0  0  0  0  0  0  0  0  0  0
    8.7896   47.1850  128.7028 S   0  0  0  0  0  0  0  0  0  0  0  0
    9.9464   46.7742  127.6043 O   0  0  0  0  0  0  0  0  0  0  0  0
    7.2855   46.4137  128.5910 C   0  0  0  0  0  0  0  0  0  0  0  0
    6.0543   47.1529  129.0158 C   0  0  0  0  0  0  0  0  0  0  0  0
    6.0218   48.5689  128.6122 C   0  0  0  0  0  0  0  0  0  0  0  0
    6.5847   49.5577  129.5865 C   0  0  0  0  0  0  0  0  0  0  0  0
    7.7215   50.1656  128.9897 F   0  0  0  0  0  0  0  0  0  0  0  0
    7.0739   48.9078  130.7268 F   0  0  0  0  0  0  0  0  0  0  0  0
    5.6715   50.6679  129.9521 C   0  0  0  0  0  0  0  0  0  0  0  0
    4.4337   50.5619  129.3998 F   0  0  0  0  0  0  0  0  0  0  0  0
    6.2860   51.8749  129.6166 F   0  0  0  0  0  0  0  0  0  0  0  0
    5.5113   50.7305  131.3372 F   0  0  0  0  0  0  0  0  0  0  0  0
  2  1  1  0  0  0
  2  3  1  0  0  0
  3  4  1  0  0  0
  4  5  1  0  0  0
  5  6  1  0  0  0
  6  7  1  0  0  0
  7  8  1  0  0  0
  8  9  1  0  0  0
  9 10  1  0  0  0
 10 11  1  0  0  0
  6 12  1  0  0  0
 12 23  1  0  0  0
 23 24  1  0  0  0
 24 25  1  0  0  0
 25 26  1  0  0  0
 26 27  1  0  0  0
 27 28  1  0  0  0
 28 29  1  0  0  0
 29 30  1  0  0  0
 30 31  1  0  0  0
 31 32  1  0  0  0
 32 33  2  0  0  0
 32 34  1  0  0  0
 34 35  1  0  0  0
 35 36  1  0  0  0
 36 37  1  0  0  0
 37 38  1  0  0  0
 37 39  1  0  0  0
 37 40  1  0  0  0
 40 41  1  0  0  0
 40 42  1  0  0  0
 40 43  1  0  0  0
 12 13  1  0  0  0
 13 14  1  0  0  0
 14 15  2  0  0  0
 15 16  1  0  0  0
 16 17  1  0  0  0
 16 18  2  0  0  0
 18 19  1  0  0  0
 19 20  2  0  0  0
  7  2  1  0  0  0
 20 14  1  0  0  0
 10  2  1  0  0  0
 20  5  1  0  0  0
 11 21  1  0  0  0
 17 22  1  0  0  0
M  CHG 1  32   1
M  CHG 1  33  -1
M  END
> <minimizedAffinity>
7.58549

> <CNNscore>
0.2757152915

> <CNNaffinity>
7.9197716713

> <CNN_VS>
2.1836020947

> <CNNaffinity_variance>
0.3649651408

$$$$
[H]Oc1c([H])c([H])c2c(c1[H])C([H])([H])[C@@]([H])(C([H])([H])C([H])([H])C([H])([H])C([H])([H])C([H])([H])C([H])([H])C([H])([H])C([H])([H])C([H])([H])[S+]([O-])C([H])([H])C([H])([H])C([H])([H])C(F)(F)C(F)(F)F)[C@]1([H])[C@]2([H])C([H])([H])C([H])([H])[C@]2(C([H])([H])[H])[C@@]([H])(O[H])C([H])([H])C([H])([H])[C@]21[H]


 43 46  0  0  0  0  0  0  0  0999 V2000
   10.5197   44.3655  132.0426 C   0  0  0  0  0  0  0  0  0  0  0  0
   11.4418   45.4171  131.5396 C   0  0  0  0  0  0  0  0  0  0  0  0
   11.1744   46.8040  132.0388 C   0  0  0  0  0  0  0  0  0  0  0  0
    9.7355   47.1066  131.6889 C   0  0  0  0  0  0  0  0  0  0  0  0
    9.3807   46.8557  130.2952 C   0  0  0  0  0  0  0  0  0  0  0  0
   10.0073   45.6619  129.5976 C   0  0  0  0  0  0  0  0  0  0  0  0
   11.4407   45.5292  130.0064 C   0  0  0  0  0  0  0  0  0  0  0  0
   12.1262   44.2699  129.6386 C   0  0  0  0  0  0  0  0  0  0  0  0
   12.9738   43.8244  130.8353 C   0  0  0  0  0  0  0  0  0  0  0  0
   12.8549   44.9612  131.8345 C   0  0  0  0  0  0  0  0  0  0  0  0
   12.8946   44.4239  133.1066 O   0  0  0  0  0  0  0  0  0  0  0  0
    9.7017   45.7047  128.1516 C   0  0  0  0  0  0  0  0  0  0  0  0
    8.7538   46.8418  127.7343 C   0  0  0  0  0  0  0  0  0  0  0  0
    7.5852   46.8150  128.6856 C   0  0  0  0  0  0  0  0  0  0  0  0
    6.2877   46.7870  128.2715 C   0  0  0  0  0  0  0  0  0  0  0  0
    5.2841   46.7535  129.2269 C   0  0  0  0  0  0  0  0  0  0  0  0
    3.9505   46.7245  128.8237 O   0  0  0  0  0  0  0  0  0  0  0  0
    5.6342   46.7495  130.5688 C   0  0  0  0  0  0  0  0  0  0  0  0
    6.9461   46.7779  130.9859 C   0  0  0  0  0  0  0  0  0  0  0  0
    7.9299   46.8112  130.0237 C   0  0  0  0  0  0  0  0  0  0  0  0
   13.5755   44.8575  133.6855 H   0  0  0  0  0  0  0  0  0  0  0  0
    3.4938   47.6197  128.7007 H   0  0  0  0  0  0  0  0  0  0  0  0
   10.7921   45.5287  127.1702 C   0  0  0  0  0  0  0  0  0  0  0  0
   11.0723   46.7779  126.3510 C   0  0  0  0  0  0  0  0  0  0  0  0
    9.8238   47.4292  125.8185 C   0  0  0  0  0  0  0  0  0  0  0  0
   10.1304   48.6215  124.9625 C   0  0  0  0  0  0  0  0  0  0  0  0
    8.8854   49.2624  124.4545 C   0  0  0  0  0  0  0  0  0  0  0  0
    8.9109   49.5410  122.9520 C   0  0  0  0  0  0  0  0  0  0  0  0
    9.5908   50.8400  122.6815 C   0  0  0  0  0  0  0  0  0  0  0  0
    8.9159   52.0293  123.2277 C   0  0  0  0  0  0  0  0  0  0  0  0
    9.5847   52.8282  124.2983 C   0  0  0  0  0  0  0  0  0  0  0  0
    9.2186   54.5079  124.2495 S   0  0  0  0  0  0  0  0  0  0  0  0
   10.0017   55.2921  123.0307 O   0  0  0  0  0  0  0  0  0  0  0  0
    7.7308   55.1341  124.7634 C   0  0  0  0  0  0  0  0  0  0  0  0
    6.4801   54.7156  124.0539 C   0  0  0  0  0  0  0  0  0  0  0  0
    5.2349   55.2016  124.6722 C   0  0  0  0  0  0  0  0  0  0  0  0
    3.9526   54.6948  124.0867 C   0  0  0  0  0  0  0  0  0  0  0  0
    4.1847   53.3866  123.5842 F   0  0  0  0  0  0  0  0  0  0  0  0
    3.5819   55.4551  122.9702 F   0  0  0  0  0  0  0  0  0  0  0  0
    2.8298   54.5708  125.0480 C   0  0  0  0  0  0  0  0  0  0  0  0
    3.2246   54.2707  126.3138 F   0  0  0  0  0  0  0  0  0  0  0  0
    1.9246   53.6317  124.5521 F   0  0  0  0  0  0  0  0  0  0  0  0
    2.1029   55.7610  125.1039 F   0  0  0  0  0  0  0  0  0  0  0  0
  2  1  1  0  0  0
  2  3  1  0  0  0
  3  4  1  0  0  0
  4  5  1  0  0  0
  5  6  1  0  0  0
  6  7  1  0  0  0
  7  8  1  0  0  0
  8  9  1  0  0  0
  9 10  1  0  0  0
 10 11  1  0  0  0
  6 12  1  0  0  0
 12 23  1  0  0  0
 23 24  1  0  0  0
 24 25  1  0  0  0
 25 26  1  0  0  0
 26 27  1  0  0  0
 27 28  1  0  0  0
 28 29  1  0  0  0
 29 30  1  0  0  0
 30 31  1  0  0  0
 31 32  1  0  0  0
 32 33  2  0  0  0
 32 34  1  0  0  0
 34 35  1  0  0  0
 35 36  1  0  0  0
 36 37  1  0  0  0
 37 38  1  0  0  0
 37 39  1  0  0  0
 37 40  1  0  0  0
 40 41  1  0  0  0
 40 42  1  0  0  0
 40 43  1  0  0  0
 12 13  1  0  0  0
 13 14  1  0  0  0
 14 15  2  0  0  0
 15 16  1  0  0  0
 16 17  1  0  0  0
 16 18  2  0  0  0
 18 19  1  0  0  0
 19 20  2  0  0  0
  7  2  1  0  0  0
 20 14  1  0  0  0
 10  2  1  0  0  0
 20  5  1  0  0  0
 11 21  1  0  0  0
 17 22  1  0  0  0
M  CHG 1  32   1
M  CHG 1  33  -1
M  END
> <minimizedAffinity>
20.96941

> <CNNscore>
0.2669563293

> <CNNaffinity>
7.2895836830

> <CNN_VS>
1.9460004568

> <CNNaffinity_variance>
1.0781569481

$$$$
[H]Oc1c([H])c([H])c2c(c1[H])C([H])([H])[C@@]([H])(C([H])([H])C([H])([H])C([H])([H])C([H])([H])C([H])([H])C([H])([H])C([H])([H])C([H])([H])C([H])([H])[S+]([O-])C([H])([H])C([H])([H])C([H])([H])C(F)(F)C(F)(F)F)[C@]1([H])[C@]2([H])C([H])([H])C([H])([H])[C@]2(C([H])([H])[H])[C@@]([H])(O[H])C([H])([H])C([H])([H])[C@]21[H]


 43 46  0  0  0  0  0  0  0  0999 V2000
   10.1876   49.1916  133.7229 C   0  0  0  0  0  0  0  0  0  0  0  0
    9.4743   48.5612  132.5816 C   0  0  0  0  0  0  0  0  0  0  0  0
    8.1871   47.8751  132.9232 C   0  0  0  0  0  0  0  0  0  0  0  0
    8.5202   46.8686  134.0002 C   0  0  0  0  0  0  0  0  0  0  0  0
    9.6430   45.9894  133.6878 C   0  0  0  0  0  0  0  0  0  0  0  0
   10.8176   46.5686  132.9201 C   0  0  0  0  0  0  0  0  0  0  0  0
   10.3215   47.5008  131.8596 C   0  0  0  0  0  0  0  0  0  0  0  0
   11.3309   48.3588  131.1993 C   0  0  0  0  0  0  0  0  0  0  0  0
   10.7348   49.7628  131.0495 C   0  0  0  0  0  0  0  0  0  0  0  0
    9.2968   49.6212  131.5155 C   0  0  0  0  0  0  0  0  0  0  0  0
    8.9204   50.8047  132.1205 O   0  0  0  0  0  0  0  0  0  0  0  0
   11.7381   45.4855  132.5132 C   0  0  0  0  0  0  0  0  0  0  0  0
   11.3619   44.0945  133.0508 C   0  0  0  0  0  0  0  0  0  0  0  0
   11.0878   44.2492  134.5246 C   0  0  0  0  0  0  0  0  0  0  0  0
   11.6755   43.4730  135.4774 C   0  0  0  0  0  0  0  0  0  0  0  0
   11.3639   43.7018  136.8085 C   0  0  0  0  0  0  0  0  0  0  0  0
   11.9546   42.9186  137.7983 O   0  0  0  0  0  0  0  0  0  0  0  0
   10.4665   44.7109  137.1243 C   0  0  0  0  0  0  0  0  0  0  0  0
    9.8731   45.4945  136.1601 C   0  0  0  0  0  0  0  0  0  0  0  0
   10.1938   45.2534  134.8434 C   0  0  0  0  0  0  0  0  0  0  0  0
    8.0755   51.1733  131.7505 H   0  0  0  0  0  0  0  0  0  0  0  0
   11.4632   42.0736  138.0621 H   0  0  0  0  0  0  0  0  0  0  0  0
   12.2029   45.4110  131.1127 C   0  0  0  0  0  0  0  0  0  0  0  0
   13.1107   44.2225  130.8419 C   0  0  0  0  0  0  0  0  0  0  0  0
   13.2578   43.9115  129.3762 C   0  0  0  0  0  0  0  0  0  0  0  0
   12.7614   45.0298  128.5095 C   0  0  0  0  0  0  0  0  0  0  0  0
   11.5402   44.6334  127.7542 C   0  0  0  0  0  0  0  0  0  0  0  0
   10.2402   45.1096  128.4014 C   0  0  0  0  0  0  0  0  0  0  0  0
   10.3122   46.5717  128.6843 C   0  0  0  0  0  0  0  0  0  0  0  0
    9.2395   47.3824  128.0841 C   0  0  0  0  0  0  0  0  0  0  0  0
    7.8285   46.8954  128.1430 C   0  0  0  0  0  0  0  0  0  0  0  0
    6.9565   47.4428  129.5206 S   0  0  0  0  0  0  0  0  0  0  0  0
    6.2783   48.9266  129.2929 O   0  0  0  0  0  0  0  0  0  0  0  0
    6.1928   46.3829  130.5990 C   0  0  0  0  0  0  0  0  0  0  0  0
    7.0305   45.4648  131.4345 C   0  0  0  0  0  0  0  0  0  0  0  0
    8.2527   44.9795  130.7713 C   0  0  0  0  0  0  0  0  0  0  0  0
    8.7450   43.6249  131.1794 C   0  0  0  0  0  0  0  0  0  0  0  0
    7.9909   43.2038  132.3072 F   0  0  0  0  0  0  0  0  0  0  0  0
   10.0696   43.6928  131.6297 F   0  0  0  0  0  0  0  0  0  0  0  0
    8.5798   42.5631  130.1569 C   0  0  0  0  0  0  0  0  0  0  0  0
    7.6316   41.6418  130.4738 F   0  0  0  0  0  0  0  0  0  0  0  0
    9.8223   41.9697  129.9306 F   0  0  0  0  0  0  0  0  0  0  0  0
    8.2304   43.1220  128.9266 F   0  0  0  0  0  0  0  0  0  0  0  0
  2  1  1  0  0  0
  2  3  1  0  0  0
  3  4  1  0  0  0
  4  5  1  0  0  0
  5  6  1  0  0  0
  6  7  1  0  0  0
  7  8  1  0  0  0
  8  9  1  0  0  0
  9 10  1  0  0  0
 10 11  1  0  0  0
  6 12  1  0  0  0
 12 23  1  0  0  0
 23 24  1  0  0  0
 24 25  1  0  0  0
 25 26  1  0  0  0
 26 27  1  0  0  0
 27 28  1  0  0  0
 28 29  1  0  0  0
 29 30  1  0  0  0
 30 31  1  0  0  0
 31 32  1  0  0  0
 32 33  2  0  0  0
 32 34  1  0  0  0
 34 35  1  0  0  0
 35 36  1  0  0  0
 36 37  1  0  0  0
 37 38  1  0  0  0
 37 39  1  0  0  0
 37 40  1  0  0  0
 40 41  1  0  0  0
 40 42  1  0  0  0
 40 43  1  0  0  0
 12 13  1  0  0  0
 13 14  1  0  0  0
 14 15  2  0  0  0
 15 16  1  0  0  0
 16 17  1  0  0  0
 16 18  2  0  0  0
 18 19  1  0  0  0
 19 20  2  0  0  0
  7  2  1  0  0  0
 20 14  1  0  0  0
 10  2  1  0  0  0
 20  5  1  0  0  0
 11 21  1  0  0  0
 17 22  1  0  0  0
M  CHG 1  32   1
M  CHG 1  33  -1
M  END
> <minimizedAffinity>
4.97956

> <CNNscore>
0.2455670387

> <CNNaffinity>
7.8919229507

> <CNN_VS>
1.9379961491

> <CNNaffinity_variance>
0.1517407447

$$$$
[H]Oc1c([H])c([H])c([C@]2([H])OC([H])([H])[C@]3(C([H])([H])O[H])C([H])([H])C([H])=C(C([H])([H])[H])[C@@]2([H])C3([H])[H])c([H])c1F


 22 24  0  0  0  0  0  0  0  0999 V2000
    9.0303   47.8445  133.0373 C   0  0  0  0  0  0  0  0  0  0  0  0
    9.3524   46.4757  132.5015 C   0  0  0  0  0  0  0  0  0  0  0  0
    8.6722   45.4661  132.9851 C   0  0  0  0  0  0  0  0  0  0  0  0
    8.9064   44.0836  132.5310 C   0  0  0  0  0  0  0  0  0  0  0  0
   10.0133   43.9089  131.5405 C   0  0  0  0  0  0  0  0  0  0  0  0
    9.5206   43.9950  130.1183 C   0  0  0  0  0  0  0  0  0  0  0  0
    9.7809   45.1246  129.4429 O   0  0  0  0  0  0  0  0  0  0  0  0
    9.9225   46.3130  130.0776 C   0  0  0  0  0  0  0  0  0  0  0  0
   10.3772   46.2909  131.4919 C   0  0  0  0  0  0  0  0  0  0  0  0
   11.0589   44.9486  131.7552 C   0  0  0  0  0  0  0  0  0  0  0  0
    8.7410   47.2192  129.8573 C   0  0  0  0  0  0  0  0  0  0  0  0
    8.8650   48.5931  129.8020 C   0  0  0  0  0  0  0  0  0  0  0  0
    7.7858   49.4332  129.6005 C   0  0  0  0  0  0  0  0  0  0  0  0
    6.5204   48.9068  129.4448 C   0  0  0  0  0  0  0  0  0  0  0  0
    5.4140   49.7184  129.2409 O   0  0  0  0  0  0  0  0  0  0  0  0
    6.3683   47.5575  129.4947 C   0  0  0  0  0  0  0  0  0  0  0  0
    5.1153   47.0429  129.3403 F   0  0  0  0  0  0  0  0  0  0  0  0
    7.4602   46.7329  129.6972 C   0  0  0  0  0  0  0  0  0  0  0  0
    5.4468   50.7236  129.1920 H   0  0  0  0  0  0  0  0  0  0  0  0
   10.6713   42.5481  131.7882 C   0  0  0  0  0  0  0  0  0  0  0  0
   11.8188   42.6235  132.5323 O   0  0  0  0  0  0  0  0  0  0  0  0
   11.9474   43.5289  132.8538 H   0  0  0  0  0  0  0  0  0  0  0  0
  1  2  1  0  0  0
  2  3  2  0  0  0
  3  4  1  0  0  0
  4  5  1  0  0  0
  5 20  1  0  0  0
 20 21  1  0  0  0
  5  6  1  0  0  0
  6  7  1  0  0  0
  7  8  1  0  0  0
  8  9  1  0  0  0
  9 10  1  0  0  0
  8 11  1  0  0  0
 11 12  2  0  0  0
 12 13  1  0  0  0
 13 14  2  0  0  0
 14 15  1  0  0  0
 14 16  1  0  0  0
 16 17  1  0  0  0
 16 18  2  0  0  0
  9  2  1  0  0  0
 18 11  1  0  0  0
 10  5  1  0  0  0
 21 22  1  0  0  0
 15 19  1  0  0  0
M  END
> <minimizedAffinity>
-9.39456

> <CNNscore>
0.9063190818

> <CNNaffinity>
7.4961967468

> <CNN_VS>
6.7939462662

> <CNNaffinity_variance>
0.5647532940

$$$$
[H]Oc1c([H])c([H])c([C@]2([H])OC([H])([H])[C@]3(C([H])([H])O[H])C([H])([H])C([H])=C(C([H])([H])[H])[C@@]2([H])C3([H])[H])c([H])c1F


 22 24  0  0  0  0  0  0  0  0999 V2000
   10.1246   45.3393  128.8326 C   0  0  0  0  0  0  0  0  0  0  0  0
   10.3318   45.1372  130.3093 C   0  0  0  0  0  0  0  0  0  0  0  0
   11.4656   45.5505  130.8187 C   0  0  0  0  0  0  0  0  0  0  0  0
   11.7723   45.4024  132.2527 C   0  0  0  0  0  0  0  0  0  0  0  0
   10.7368   44.6899  133.0633 C   0  0  0  0  0  0  0  0  0  0  0  0
    9.7328   45.6410  133.6632 C   0  0  0  0  0  0  0  0  0  0  0  0
    8.5182   45.6942  133.0957 O   0  0  0  0  0  0  0  0  0  0  0  0
    8.3372   45.4167  131.7823 C   0  0  0  0  0  0  0  0  0  0  0  0
    9.3129   44.5077  131.1273 C   0  0  0  0  0  0  0  0  0  0  0  0
   10.0182   43.6979  132.2148 C   0  0  0  0  0  0  0  0  0  0  0  0
    8.0571   46.6548  130.9733 C   0  0  0  0  0  0  0  0  0  0  0  0
    7.1564   46.6645  129.9270 C   0  0  0  0  0  0  0  0  0  0  0  0
    6.8931   47.7965  129.1783 C   0  0  0  0  0  0  0  0  0  0  0  0
    7.5413   48.9799  129.4644 C   0  0  0  0  0  0  0  0  0  0  0  0
    7.3028   50.1356  128.7351 O   0  0  0  0  0  0  0  0  0  0  0  0
    8.4333   49.0000  130.4890 C   0  0  0  0  0  0  0  0  0  0  0  0
    9.0710   50.1724  130.7672 F   0  0  0  0  0  0  0  0  0  0  0  0
    8.6837   47.8571  131.2270 C   0  0  0  0  0  0  0  0  0  0  0  0
    6.6582   50.1993  127.9642 H   0  0  0  0  0  0  0  0  0  0  0  0
   11.4472   43.9065  134.1714 C   0  0  0  0  0  0  0  0  0  0  0  0
   12.7196   43.5230  133.8396 O   0  0  0  0  0  0  0  0  0  0  0  0
   12.9731   43.9130  132.9891 H   0  0  0  0  0  0  0  0  0  0  0  0
  1  2  1  0  0  0
  2  3  2  0  0  0
  3  4  1  0  0  0
  4  5  1  0  0  0
  5 20  1  0  0  0
 20 21  1  0  0  0
  5  6  1  0  0  0
  6  7  1  0  0  0
  7  8  1  0  0  0
  8  9  1  0  0  0
  9 10  1  0  0  0
  8 11  1  0  0  0
 11 12  2  0  0  0
 12 13  1  0  0  0
 13 14  2  0  0  0
 14 15  1  0  0  0
 14 16  1  0  0  0
 16 17  1  0  0  0
 16 18  2  0  0  0
  9  2  1  0  0  0
 18 11  1  0  0  0
 10  5  1  0  0  0
 21 22  1  0  0  0
 15 19  1  0  0  0
M  END
> <minimizedAffinity>
-9.15912

> <CNNscore>
0.8825416565

> <CNNaffinity>
7.6239309311

> <CNN_VS>
6.7284364700

> <CNNaffinity_variance>
0.7215728164

$$$$
[H]Oc1c([H])c([H])c([C@]2([H])OC([H])([H])[C@]3(C([H])([H])O[H])C([H])([H])C([H])=C(C([H])([H])[H])[C@@]2([H])C3([H])[H])c([H])c1F


 22 24  0  0  0  0  0  0  0  0999 V2000
    9.0030   44.1531  128.8058 C   0  0  0  0  0  0  0  0  0  0  0  0
    9.7724   44.2559  130.0950 C   0  0  0  0  0  0  0  0  0  0  0  0
   11.0609   44.4750  130.0094 C   0  0  0  0  0  0  0  0  0  0  0  0
   11.9097   44.5933  131.2086 C   0  0  0  0  0  0  0  0  0  0  0  0
   11.2140   44.3770  132.5148 C   0  0  0  0  0  0  0  0  0  0  0  0
   10.6927   45.6650  133.0998 C   0  0  0  0  0  0  0  0  0  0  0  0
    9.3729   45.8907  133.0158 O   0  0  0  0  0  0  0  0  0  0  0  0
    8.6273   45.3692  132.0122 C   0  0  0  0  0  0  0  0  0  0  0  0
    9.1062   44.1151  131.3756 C   0  0  0  0  0  0  0  0  0  0  0  0
   10.0772   43.4302  132.3368 C   0  0  0  0  0  0  0  0  0  0  0  0
    8.2142   46.4132  131.0097 C   0  0  0  0  0  0  0  0  0  0  0  0
    9.0416   47.4577  130.6484 C   0  0  0  0  0  0  0  0  0  0  0  0
    8.6707   48.4212  129.7290 C   0  0  0  0  0  0  0  0  0  0  0  0
    7.4292   48.3634  129.1310 C   0  0  0  0  0  0  0  0  0  0  0  0
    7.0224   49.3121  128.2043 O   0  0  0  0  0  0  0  0  0  0  0  0
    6.5935   47.3462  129.4673 C   0  0  0  0  0  0  0  0  0  0  0  0
    5.3677   47.2943  128.8731 F   0  0  0  0  0  0  0  0  0  0  0  0
    6.9823   46.3913  130.3895 C   0  0  0  0  0  0  0  0  0  0  0  0
    7.5838   50.0926  127.9048 H   0  0  0  0  0  0  0  0  0  0  0  0
   12.2017   43.7204  133.4839 C   0  0  0  0  0  0  0  0  0  0  0  0
   12.9559   42.7321  132.9091 O   0  0  0  0  0  0  0  0  0  0  0  0
   12.7913   42.7014  131.9542 H   0  0  0  0  0  0  0  0  0  0  0  0
  1  2  1  0  0  0
  2  3  2  0  0  0
  3  4  1  0  0  0
  4  5  1  0  0  0
  5 20  1  0  0  0
 20 21  1  0  0  0
  5  6  1  0  0  0
  6  7  1  0  0  0
  7  8  1  0  0  0
  8  9  1  0  0  0
  9 10  1  0  0  0
  8 11  1  0  0  0
 11 12  2  0  0  0
 12 13  1  0  0  0
 13 14  2  0  0  0
 14 15  1  0  0  0
 14 16  1  0  0  0
 16 17  1  0  0  0
 16 18  2  0  0  0
  9  2  1  0  0  0
 18 11  1  0  0  0
 10  5  1  0  0  0
 21 22  1  0  0  0
 15 19  1  0  0  0
M  END
> <minimizedAffinity>
-9.35630

> <CNNscore>
0.8624891043

> <CNNaffinity>
7.3989853859

> <CNN_VS>
6.3815441132

> <CNNaffinity_variance>
0.5139958262

$$$$
[H]Oc1c([H])c([H])c([C@]2([H])OC([H])([H])[C@]3(C([H])([H])O[H])C([H])([H])C([H])=C(C([H])([H])[H])[C@@]2([H])C3([H])[H])c([H])c1F


 22 24  0  0  0  0  0  0  0  0999 V2000
    8.9361   47.5511  133.1304 C   0  0  0  0  0  0  0  0  0  0  0  0
    9.4543   46.2268  132.6382 C   0  0  0  0  0  0  0  0  0  0  0  0
    8.8692   45.1466  133.0926 C   0  0  0  0  0  0  0  0  0  0  0  0
    9.2964   43.7987  132.6765 C   0  0  0  0  0  0  0  0  0  0  0  0
   10.4794   43.7507  131.7626 C   0  0  0  0  0  0  0  0  0  0  0  0
   10.0752   43.7657  130.3104 C   0  0  0  0  0  0  0  0  0  0  0  0
   10.2427   44.9131  129.6355 O   0  0  0  0  0  0  0  0  0  0  0  0
   10.1989   46.1148  130.2592 C   0  0  0  0  0  0  0  0  0  0  0  0
   10.5584   46.1588  131.7002 C   0  0  0  0  0  0  0  0  0  0  0  0
   11.3767   44.9103  132.0282 C   0  0  0  0  0  0  0  0  0  0  0  0
    8.9348   46.8705  129.9486 C   0  0  0  0  0  0  0  0  0  0  0  0
    7.7025   46.2516  129.8816 C   0  0  0  0  0  0  0  0  0  0  0  0
    6.5365   46.9373  129.5966 C   0  0  0  0  0  0  0  0  0  0  0  0
    6.5736   48.2965  129.3650 C   0  0  0  0  0  0  0  0  0  0  0  0
    5.4244   49.0177  129.0762 O   0  0  0  0  0  0  0  0  0  0  0  0
    7.7729   48.9324  129.4244 C   0  0  0  0  0  0  0  0  0  0  0  0
    7.8035   50.2758  129.1946 F   0  0  0  0  0  0  0  0  0  0  0  0
    8.9292   48.2293  129.7110 C   0  0  0  0  0  0  0  0  0  0  0  0
    4.5021   48.6183  129.0150 H   0  0  0  0  0  0  0  0  0  0  0  0
   11.2775   42.4809  132.0739 C   0  0  0  0  0  0  0  0  0  0  0  0
   12.5239   42.7304  132.5841 O   0  0  0  0  0  0  0  0  0  0  0  0
   12.6311   43.6795  132.7500 H   0  0  0  0  0  0  0  0  0  0  0  0
  1  2  1  0  0  0
  2  3  2  0  0  0
  3  4  1  0  0  0
  4  5  1  0  0  0
  5 20  1  0  0  0
 20 21  1  0  0  0
  5  6  1  0  0  0
  6  7  1  0  0  0
  7  8  1  0  0  0
  8  9  1  0  0  0
  9 10  1  0  0  0
  8 11  1  0  0  0
 11 12  2  0  0  0
 12 13  1  0  0  0
 13 14  2  0  0  0
 14 15  1  0  0  0
 14 16  1  0  0  0
 16 17  1  0  0  0
 16 18  2  0  0  0
  9  2  1  0  0  0
 18 11  1  0  0  0
 10  5  1  0  0  0
 21 22  1  0  0  0
 15 19  1  0  0  0
M  END
> <minimizedAffinity>
-9.33626

> <CNNscore>
0.8476660252

> <CNNaffinity>
7.4274168015

> <CNN_VS>
6.2959690094

> <CNNaffinity_variance>
0.7036039233

$$$$
[H]Oc1c([H])c([H])c([C@]2([H])OC([H])([H])[C@]3(C([H])([H])O[H])C([H])([H])C([H])=C(C([H])([H])[H])[C@@]2([H])C3([H])[H])c([H])c1F


 22 24  0  0  0  0  0  0  0  0999 V2000
    8.8471   47.2526  134.2735 C   0  0  0  0  0  0  0  0  0  0  0  0
    9.4250   46.0900  133.5126 C   0  0  0  0  0  0  0  0  0  0  0  0
    8.6873   45.0124  133.4115 C   0  0  0  0  0  0  0  0  0  0  0  0
    9.1554   43.8162  132.6884 C   0  0  0  0  0  0  0  0  0  0  0  0
   10.5464   43.8946  132.1447 C   0  0  0  0  0  0  0  0  0  0  0  0
   10.5741   44.4163  130.7306 C   0  0  0  0  0  0  0  0  0  0  0  0
   10.9776   45.6828  130.5483 O   0  0  0  0  0  0  0  0  0  0  0  0
   10.8111   46.6245  131.5077 C   0  0  0  0  0  0  0  0  0  0  0  0
   10.7465   46.1679  132.9201 C   0  0  0  0  0  0  0  0  0  0  0  0
   11.3812   44.7802  133.0046 C   0  0  0  0  0  0  0  0  0  0  0  0
    9.7227   47.6042  131.1595 C   0  0  0  0  0  0  0  0  0  0  0  0
    9.8195   48.9498  131.4530 C   0  0  0  0  0  0  0  0  0  0  0  0
    8.8250   49.8568  131.1375 C   0  0  0  0  0  0  0  0  0  0  0  0
    7.6770   49.4300  130.5031 C   0  0  0  0  0  0  0  0  0  0  0  0
    6.6581   50.3108  130.1709 O   0  0  0  0  0  0  0  0  0  0  0  0
    7.5543   48.1108  130.2018 C   0  0  0  0  0  0  0  0  0  0  0  0
    6.4175   47.6947  129.5748 F   0  0  0  0  0  0  0  0  0  0  0  0
    8.5602   47.2181  130.5255 C   0  0  0  0  0  0  0  0  0  0  0  0
    6.6761   51.2995  130.3608 H   0  0  0  0  0  0  0  0  0  0  0  0
   11.1657   42.4949  132.2016 C   0  0  0  0  0  0  0  0  0  0  0  0
   12.4813   42.4946  132.5824 O   0  0  0  0  0  0  0  0  0  0  0  0
   12.7509   43.3874  132.8467 H   0  0  0  0  0  0  0  0  0  0  0  0
  1  2  1  0  0  0
  2  3  2  0  0  0
  3  4  1  0  0  0
  4  5  1  0  0  0
  5 20  1  0  0  0
 20 21  1  0  0  0
  5  6  1  0  0  0
  6  7  1  0  0  0
  7  8  1  0  0  0
  8  9  1  0  0  0
  9 10  1  0  0  0
  8 11  1  0  0  0
 11 12  2  0  0  0
 12 13  1  0  0  0
 13 14  2  0  0  0
 14 15  1  0  0  0
 14 16  1  0  0  0
 16 17  1  0  0  0
 16 18  2  0  0  0
  9  2  1  0  0  0
 18 11  1  0  0  0
 10  5  1  0  0  0
 21 22  1  0  0  0
 15 19  1  0  0  0
M  END
> <minimizedAffinity>
-8.92964

> <CNNscore>
0.8364626765

> <CNNaffinity>
7.3455986977

> <CNN_VS>
6.1443190575

> <CNNaffinity_variance>
0.3509327769

$$$$
[H]Oc1c([H])c([H])c([C@]2([H])OC([H])([H])[C@]3(C([H])([H])O[H])C([H])([H])C([H])=C(C([H])([H])[H])[C@@]2([H])C3([H])[H])c([H])c1F


 22 24  0  0  0  0  0  0  0  0999 V2000
    9.3102   48.8507  132.7379 C   0  0  0  0  0  0  0  0  0  0  0  0
    9.7704   47.4368  132.9694 C   0  0  0  0  0  0  0  0  0  0  0  0
    9.2359   46.7883  133.9741 C   0  0  0  0  0  0  0  0  0  0  0  0
    9.6139   45.3992  134.2907 C   0  0  0  0  0  0  0  0  0  0  0  0
   10.6916   44.8132  133.4351 C   0  0  0  0  0  0  0  0  0  0  0  0
   10.1335   44.0917  132.2349 C   0  0  0  0  0  0  0  0  0  0  0  0
   10.2291   44.7065  131.0462 O   0  0  0  0  0  0  0  0  0  0  0  0
   10.2545   46.0573  130.9473 C   0  0  0  0  0  0  0  0  0  0  0  0
   10.7671   46.8258  132.1110 C   0  0  0  0  0  0  0  0  0  0  0  0
   11.6140   45.8870  132.9697 C   0  0  0  0  0  0  0  0  0  0  0  0
    8.9655   46.6115  130.4025 C   0  0  0  0  0  0  0  0  0  0  0  0
    7.7468   46.0036  130.6288 C   0  0  0  0  0  0  0  0  0  0  0  0
    6.5580   46.5050  130.1322 C   0  0  0  0  0  0  0  0  0  0  0  0
    6.5572   47.6585  129.3761 C   0  0  0  0  0  0  0  0  0  0  0  0
    5.3844   48.1911  128.8613 O   0  0  0  0  0  0  0  0  0  0  0  0
    7.7424   48.2785  129.1371 C   0  0  0  0  0  0  0  0  0  0  0  0
    7.7356   49.4183  128.3891 F   0  0  0  0  0  0  0  0  0  0  0  0
    8.9218   47.7618  129.6425 C   0  0  0  0  0  0  0  0  0  0  0  0
    4.4705   47.7902  128.9950 H   0  0  0  0  0  0  0  0  0  0  0  0
   11.5167   43.8488  134.2925 C   0  0  0  0  0  0  0  0  0  0  0  0
   12.6898   43.4599  133.7022 O   0  0  0  0  0  0  0  0  0  0  0  0
   12.8286   43.9556  132.8807 H   0  0  0  0  0  0  0  0  0  0  0  0
  1  2  1  0  0  0
  2  3  2  0  0  0
  3  4  1  0  0  0
  4  5  1  0  0  0
  5 20  1  0  0  0
 20 21  1  0  0  0
  5  6  1  0  0  0
  6  7  1  0  0  0
  7  8  1  0  0  0
  8  9  1  0  0  0
  9 10  1  0  0  0
  8 11  1  0  0  0
 11 12  2  0  0  0
 12 13  1  0  0  0
 13 14  2  0  0  0
 14 15  1  0  0  0
 14 16  1  0  0  0
 16 17  1  0  0  0
 16 18  2  0  0  0
  9  2  1  0  0  0
 18 11  1  0  0  0
 10  5  1  0  0  0
 21 22  1  0  0  0
 15 19  1  0  0  0
M  END
> <minimizedAffinity>
-9.48626

> <CNNscore>
0.6045870781

> <CNNaffinity>
6.8747711182

> <CNN_VS>
4.1563978195

> <CNNaffinity_variance>
0.1913813353

$$$$
[H]Oc1c([H])c([H])c([C@]2([H])OC([H])([H])[C@]3(C([H])([H])O[H])C([H])([H])C([H])=C(C([H])([H])[H])[C@@]2([H])C3([H])[H])c([H])c1F


 22 24  0  0  0  0  0  0  0  0999 V2000
    9.6790   43.6670  130.1907 C   0  0  0  0  0  0  0  0  0  0  0  0
    9.0566   45.0358  130.1319 C   0  0  0  0  0  0  0  0  0  0  0  0
    7.7654   45.1176  130.3365 C   0  0  0  0  0  0  0  0  0  0  0  0
    7.0541   46.4081  130.3019 C   0  0  0  0  0  0  0  0  0  0  0  0
    7.8911   47.5966  129.9502 C   0  0  0  0  0  0  0  0  0  0  0  0
    8.4676   48.2658  131.1719 C   0  0  0  0  0  0  0  0  0  0  0  0
    9.7689   48.0646  131.4291 O   0  0  0  0  0  0  0  0  0  0  0  0
   10.4013   46.9320  131.0389 C   0  0  0  0  0  0  0  0  0  0  0  0
    9.8611   46.2110  129.8575 C   0  0  0  0  0  0  0  0  0  0  0  0
    9.0060   47.1871  129.0502 C   0  0  0  0  0  0  0  0  0  0  0  0
   10.6957   46.0175  132.1978 C   0  0  0  0  0  0  0  0  0  0  0  0
    9.9414   46.0253  133.3540 C   0  0  0  0  0  0  0  0  0  0  0  0
   10.2044   45.1896  134.4234 C   0  0  0  0  0  0  0  0  0  0  0  0
   11.2571   44.3005  134.3624 C   0  0  0  0  0  0  0  0  0  0  0  0
   11.5513   43.4467  135.4154 O   0  0  0  0  0  0  0  0  0  0  0  0
   12.0169   44.2707  133.2363 C   0  0  0  0  0  0  0  0  0  0  0  0
   13.0561   43.3899  133.1817 F   0  0  0  0  0  0  0  0  0  0  0  0
   11.7383   45.1147  132.1764 C   0  0  0  0  0  0  0  0  0  0  0  0
   11.0357   43.4102  136.2795 H   0  0  0  0  0  0  0  0  0  0  0  0
    7.0200   48.5856  129.1698 C   0  0  0  0  0  0  0  0  0  0  0  0
    6.1942   47.9843  128.2574 O   0  0  0  0  0  0  0  0  0  0  0  0
    6.2438   47.0205  128.3489 H   0  0  0  0  0  0  0  0  0  0  0  0
  1  2  1  0  0  0
  2  3  2  0  0  0
  3  4  1  0  0  0
  4  5  1  0  0  0
  5 20  1  0  0  0
 20 21  1  0  0  0
  5  6  1  0  0  0
  6  7  1  0  0  0
  7  8  1  0  0  0
  8  9  1  0  0  0
  9 10  1  0  0  0
  8 11  1  0  0  0
 11 12  2  0  0  0
 12 13  1  0  0  0
 13 14  2  0  0  0
 14 15  1  0  0  0
 14 16  1  0  0  0
 16 17  1  0  0  0
 16 18  2  0  0  0
  9  2  1  0  0  0
 18 11  1  0  0  0
 10  5  1  0  0  0
 21 22  1  0  0  0
 15 19  1  0  0  0
M  END
> <minimizedAffinity>
-8.18735

> <CNNscore>
0.4900300503

> <CNNaffinity>
6.8568420410

> <CNN_VS>
3.3600585461

> <CNNaffinity_variance>
0.2311843634

$$$$
[H]Oc1c([H])c([H])c([C@]2([H])OC([H])([H])[C@]3(C([H])([H])O[H])C([H])([H])C([H])=C(C([H])([H])[H])[C@@]2([H])C3([H])[H])c([H])c1F


 22 24  0  0  0  0  0  0  0  0999 V2000
    9.9960   45.8094  129.0034 C   0  0  0  0  0  0  0  0  0  0  0  0
    9.2226   46.9958  129.5122 C   0  0  0  0  0  0  0  0  0  0  0  0
    7.9262   46.9925  129.3253 C   0  0  0  0  0  0  0  0  0  0  0  0
    7.0728   48.1035  129.7835 C   0  0  0  0  0  0  0  0  0  0  0  0
    7.7941   49.2556  130.4076 C   0  0  0  0  0  0  0  0  0  0  0  0
    7.9181   49.1045  131.9024 C   0  0  0  0  0  0  0  0  0  0  0  0
    9.1169   48.7497  132.3891 O   0  0  0  0  0  0  0  0  0  0  0  0
    9.9868   48.0101  131.6601 C   0  0  0  0  0  0  0  0  0  0  0  0
    9.8940   48.0946  130.1797 C   0  0  0  0  0  0  0  0  0  0  0  0
    9.1569   49.3838  129.8186 C   0  0  0  0  0  0  0  0  0  0  0  0
   10.0864   46.5937  132.1600 C   0  0  0  0  0  0  0  0  0  0  0  0
    8.9854   45.8885  132.6032 C   0  0  0  0  0  0  0  0  0  0  0  0
    9.0672   44.5878  133.0642 C   0  0  0  0  0  0  0  0  0  0  0  0
   10.2852   43.9412  133.0948 C   0  0  0  0  0  0  0  0  0  0  0  0
   10.4060   42.6367  133.5506 O   0  0  0  0  0  0  0  0  0  0  0  0
   11.3864   44.6110  132.6644 C   0  0  0  0  0  0  0  0  0  0  0  0
   12.5875   43.9669  132.6969 F   0  0  0  0  0  0  0  0  0  0  0  0
   11.2847   45.9123  132.2065 C   0  0  0  0  0  0  0  0  0  0  0  0
    9.6384   42.0770  133.8844 H   0  0  0  0  0  0  0  0  0  0  0  0
    7.0328   50.5409  130.0697 C   0  0  0  0  0  0  0  0  0  0  0  0
    7.1335   50.9055  128.7533 O   0  0  0  0  0  0  0  0  0  0  0  0
    7.5928   50.2149  128.2515 H   0  0  0  0  0  0  0  0  0  0  0  0
  1  2  1  0  0  0
  2  3  2  0  0  0
  3  4  1  0  0  0
  4  5  1  0  0  0
  5 20  1  0  0  0
 20 21  1  0  0  0
  5  6  1  0  0  0
  6  7  1  0  0  0
  7  8  1  0  0  0
  8  9  1  0  0  0
  9 10  1  0  0  0
  8 11  1  0  0  0
 11 12  2  0  0  0
 12 13  1  0  0  0
 13 14  2  0  0  0
 14 15  1  0  0  0
 14 16  1  0  0  0
 16 17  1  0  0  0
 16 18  2  0  0  0
  9  2  1  0  0  0
 18 11  1  0  0  0
 10  5  1  0  0  0
 21 22  1  0  0  0
 15 19  1  0  0  0
M  END
> <minimizedAffinity>
-8.08919

> <CNNscore>
0.3633144796

> <CNNaffinity>
6.6860718727

> <CNN_VS>
2.4291467667

> <CNNaffinity_variance>
0.1581632346

$$$$
[H]Oc1c([H])c([H])c([C@]2([H])OC([H])([H])[C@]3(C([H])([H])O[H])C([H])([H])C([H])=C(C([H])([H])[H])[C@@]2([H])C3([H])[H])c([H])c1F


 22 24  0  0  0  0  0  0  0  0999 V2000
    8.2044   45.4304  133.3424 C   0  0  0  0  0  0  0  0  0  0  0  0
    8.2607   46.3904  132.1849 C   0  0  0  0  0  0  0  0  0  0  0  0
    8.6703   47.6092  132.4351 C   0  0  0  0  0  0  0  0  0  0  0  0
    8.7639   48.6296  131.3755 C   0  0  0  0  0  0  0  0  0  0  0  0
    8.2954   48.1987  130.0221 C   0  0  0  0  0  0  0  0  0  0  0  0
    9.4162   47.6326  129.1877 C   0  0  0  0  0  0  0  0  0  0  0  0
    9.4595   46.3003  129.0356 O   0  0  0  0  0  0  0  0  0  0  0  0
    8.9609   45.4632  129.9767 C   0  0  0  0  0  0  0  0  0  0  0  0
    7.8736   45.9749  130.8504 C   0  0  0  0  0  0  0  0  0  0  0  0
    7.2242   47.1716  130.1561 C   0  0  0  0  0  0  0  0  0  0  0  0
   10.0478   44.7613  130.7460 C   0  0  0  0  0  0  0  0  0  0  0  0
   11.1627   45.4239  131.2192 C   0  0  0  0  0  0  0  0  0  0  0  0
   12.1660   44.7877  131.9262 C   0  0  0  0  0  0  0  0  0  0  0  0
   12.0778   43.4358  132.1853 C   0  0  0  0  0  0  0  0  0  0  0  0
   13.0647   42.7637  132.8913 O   0  0  0  0  0  0  0  0  0  0  0  0
   10.9912   42.7577  131.7316 C   0  0  0  0  0  0  0  0  0  0  0  0
   10.9094   41.4217  131.9906 F   0  0  0  0  0  0  0  0  0  0  0  0
    9.9974   43.4116  131.0258 C   0  0  0  0  0  0  0  0  0  0  0  0
   13.8965   43.1962  133.2586 H   0  0  0  0  0  0  0  0  0  0  0  0
    7.6753   49.4097  129.3187 C   0  0  0  0  0  0  0  0  0  0  0  0
    7.7901   50.5735  130.0316 O   0  0  0  0  0  0  0  0  0  0  0  0
    8.3411   50.4297  130.8161 H   0  0  0  0  0  0  0  0  0  0  0  0
  1  2  1  0  0  0
  2  3  2  0  0  0
  3  4  1  0  0  0
  4  5  1  0  0  0
  5 20  1  0  0  0
 20 21  1  0  0  0
  5  6  1  0  0  0
  6  7  1  0  0  0
  7  8  1  0  0  0
  8  9  1  0  0  0
  9 10  1  0  0  0
  8 11  1  0  0  0
 11 12  2  0  0  0
 12 13  1  0  0  0
 13 14  2  0  0  0
 14 15  1  0  0  0
 14 16  1  0  0  0
 16 17  1  0  0  0
 16 18  2  0  0  0
  9  2  1  0  0  0
 18 11  1  0  0  0
 10  5  1  0  0  0
 21 22  1  0  0  0
 15 19  1  0  0  0
M  END
> <minimizedAffinity>
-9.17215

> <CNNscore>
0.3445987105

> <CNNaffinity>
6.7349724770

> <CNN_VS>
2.3208627701

> <CNNaffinity_variance>
0.0463693142

$$$$
[H]Oc1c([H])c([H])c(-c2c([H])c([H])c(O[H])c(C([H])([H])N=O)c2[H])c([H])c1[H]


 19 20  0  0  0  0  0  0  0  0999 V2000
    9.6997   46.7305  130.7419 C   0  0  0  0  0  0  0  0  0  0  0  0
   10.4025   46.7976  131.9560 C   0  0  0  0  0  0  0  0  0  0  0  0
   11.1257   45.7246  132.4226 C   0  0  0  0  0  0  0  0  0  0  0  0
   11.1736   44.5465  131.6963 C   0  0  0  0  0  0  0  0  0  0  0  0
   11.8990   43.4761  132.1680 O   0  0  0  0  0  0  0  0  0  0  0  0
   10.4947   44.4445  130.5001 C   0  0  0  0  0  0  0  0  0  0  0  0
    9.7847   45.5427  130.0697 C   0  0  0  0  0  0  0  0  0  0  0  0
   11.9261   42.6232  131.6374 H   0  0  0  0  0  0  0  0  0  0  0  0
    6.7651   51.2151  129.0815 O   0  0  0  0  0  0  0  0  0  0  0  0
    7.4735   50.0748  129.4575 C   0  0  0  0  0  0  0  0  0  0  0  0
    8.3060   50.1522  130.5798 C   0  0  0  0  0  0  0  0  0  0  0  0
    9.0233   49.0595  130.9899 C   0  0  0  0  0  0  0  0  0  0  0  0
    8.9293   47.8592  130.2918 C   0  0  0  0  0  0  0  0  0  0  0  0
    8.1180   47.7667  129.1895 C   0  0  0  0  0  0  0  0  0  0  0  0
    7.3820   48.8806  128.7652 C   0  0  0  0  0  0  0  0  0  0  0  0
    6.1635   51.1500  128.2658 H   0  0  0  0  0  0  0  0  0  0  0  0
   10.5006   43.1921  129.6926 C   0  0  0  0  0  0  0  0  0  0  0  0
    9.1498   42.8693  129.3193 N   0  0  0  0  0  0  0  0  0  0  0  0
    8.3534   42.4287  130.0830 O   0  0  0  0  0  0  0  0  0  0  0  0
  9 10  1  0  0  0
 10 11  2  0  0  0
 11 12  1  0  0  0
 12 13  2  0  0  0
 13 14  1  0  0  0
 14 15  2  0  0  0
 13  1  1  0  0  0
  1  2  2  0  0  0
  2  3  1  0  0  0
  3  4  2  0  0  0
  4  5  1  0  0  0
  4  6  1  0  0  0
  6 17  1  0  0  0
 17 18  1  0  0  0
 18 19  2  0  0  0
  6  7  2  0  0  0
 15 10  1  0  0  0
  7  1  1  0  0  0
  9 16  1  0  0  0
  5  8  1  0  0  0
M  END
> <minimizedAffinity>
-8.32156

> <CNNscore>
0.8342674375

> <CNNaffinity>
6.6340966225

> <CNN_VS>
5.5346107483

> <CNNaffinity_variance>
0.6046046019

$$$$
[H]Oc1c([H])c([H])c(-c2c([H])c([H])c(O[H])c(C([H])([H])N=O)c2[H])c([H])c1[H]


 19 20  0  0  0  0  0  0  0  0999 V2000
    8.8990   46.5319  130.9923 C   0  0  0  0  0  0  0  0  0  0  0  0
    8.0312   45.4416  131.1680 C   0  0  0  0  0  0  0  0  0  0  0  0
    8.4845   44.2409  131.6629 C   0  0  0  0  0  0  0  0  0  0  0  0
    9.8186   44.0838  131.9996 C   0  0  0  0  0  0  0  0  0  0  0  0
   10.2665   42.8802  132.4946 O   0  0  0  0  0  0  0  0  0  0  0  0
   10.6994   45.1329  131.8394 C   0  0  0  0  0  0  0  0  0  0  0  0
   10.2034   46.3171  131.3423 C   0  0  0  0  0  0  0  0  0  0  0  0
   11.2366   42.7724  132.7332 H   0  0  0  0  0  0  0  0  0  0  0  0
    6.8975   51.2753  128.7620 O   0  0  0  0  0  0  0  0  0  0  0  0
    7.4123   50.1230  129.3541 C   0  0  0  0  0  0  0  0  0  0  0  0
    7.2644   48.9074  128.6767 C   0  0  0  0  0  0  0  0  0  0  0  0
    7.7528   47.7468  129.2165 C   0  0  0  0  0  0  0  0  0  0  0  0
    8.4027   47.7674  130.4470 C   0  0  0  0  0  0  0  0  0  0  0  0
    8.5558   48.9506  131.1241 C   0  0  0  0  0  0  0  0  0  0  0  0
    8.0585   50.1408  130.5772 C   0  0  0  0  0  0  0  0  0  0  0  0
    7.0091   52.1530  129.2607 H   0  0  0  0  0  0  0  0  0  0  0  0
   12.1471   45.0065  132.1696 C   0  0  0  0  0  0  0  0  0  0  0  0
   12.2866   44.7718  133.5815 N   0  0  0  0  0  0  0  0  0  0  0  0
   12.6444   43.7331  134.0342 O   0  0  0  0  0  0  0  0  0  0  0  0
  9 10  1  0  0  0
 10 11  2  0  0  0
 11 12  1  0  0  0
 12 13  2  0  0  0
 13 14  1  0  0  0
 14 15  2  0  0  0
 13  1  1  0  0  0
  1  2  2  0  0  0
  2  3  1  0  0  0
  3  4  2  0  0  0
  4  5  1  0  0  0
  4  6  1  0  0  0
  6 17  1  0  0  0
 17 18  1  0  0  0
 18 19  2  0  0  0
  6  7  2  0  0  0
 15 10  1  0  0  0
  7  1  1  0  0  0
  9 16  1  0  0  0
  5  8  1  0  0  0
M  END
> <minimizedAffinity>
-8.09601

> <CNNscore>
0.7728660107

> <CNNaffinity>
6.4153661728

> <CNN_VS>
4.9582185745

> <CNNaffinity_variance>
0.5923156738

$$$$
[H]Oc1c([H])c([H])c(-c2c([H])c([H])c(O[H])c(C([H])([H])N=O)c2[H])c([H])c1[H]


 19 20  0  0  0  0  0  0  0  0999 V2000
    9.4032   46.7377  131.7753 C   0  0  0  0  0  0  0  0  0  0  0  0
    9.3945   46.8265  133.1770 C   0  0  0  0  0  0  0  0  0  0  0  0
   10.3734   46.2286  133.9362 C   0  0  0  0  0  0  0  0  0  0  0  0
   11.3952   45.5207  133.3258 C   0  0  0  0  0  0  0  0  0  0  0  0
   12.3721   44.9247  134.0905 O   0  0  0  0  0  0  0  0  0  0  0  0
   11.4348   45.4120  131.9514 C   0  0  0  0  0  0  0  0  0  0  0  0
   10.4362   46.0267  131.2301 C   0  0  0  0  0  0  0  0  0  0  0  0
   13.1082   44.4095  133.6409 H   0  0  0  0  0  0  0  0  0  0  0  0
    5.3662   49.2525  128.7989 O   0  0  0  0  0  0  0  0  0  0  0  0
    6.3488   48.5840  129.5276 C   0  0  0  0  0  0  0  0  0  0  0  0
    7.3167   49.3475  130.1901 C   0  0  0  0  0  0  0  0  0  0  0  0
    8.3034   48.7380  130.9193 C   0  0  0  0  0  0  0  0  0  0  0  0
    8.3513   47.3500  131.0080 C   0  0  0  0  0  0  0  0  0  0  0  0
    7.4102   46.5870  130.3644 C   0  0  0  0  0  0  0  0  0  0  0  0
    6.3987   47.2044  129.6171 C   0  0  0  0  0  0  0  0  0  0  0  0
    4.6680   48.6906  128.3211 H   0  0  0  0  0  0  0  0  0  0  0  0
   12.5029   44.6452  131.2501 C   0  0  0  0  0  0  0  0  0  0  0  0
   12.1244   43.2590  131.1943 N   0  0  0  0  0  0  0  0  0  0  0  0
   11.5684   42.7020  132.0845 O   0  0  0  0  0  0  0  0  0  0  0  0
  9 10  1  0  0  0
 10 11  2  0  0  0
 11 12  1  0  0  0
 12 13  2  0  0  0
 13 14  1  0  0  0
 14 15  2  0  0  0
 13  1  1  0  0  0
  1  2  2  0  0  0
  2  3  1  0  0  0
  3  4  2  0  0  0
  4  5  1  0  0  0
  4  6  1  0  0  0
  6 17  1  0  0  0
 17 18  1  0  0  0
 18 19  2  0  0  0
  6  7  2  0  0  0
 15 10  1  0  0  0
  7  1  1  0  0  0
  9 16  1  0  0  0
  5  8  1  0  0  0
M  END
> <minimizedAffinity>
-6.90256

> <CNNscore>
0.7653774023

> <CNNaffinity>
6.5451798439

> <CNN_VS>
5.0095329285

> <CNNaffinity_variance>
0.6040593386

$$$$
[H]Oc1c([H])c([H])c(-c2c([H])c([H])c(O[H])c(C([H])([H])N=O)c2[H])c([H])c1[H]


 19 20  0  0  0  0  0  0  0  0999 V2000
    8.9617   46.6423  131.2844 C   0  0  0  0  0  0  0  0  0  0  0  0
    8.1000   45.6778  131.8320 C   0  0  0  0  0  0  0  0  0  0  0  0
    8.5904   44.5582  132.4629 C   0  0  0  0  0  0  0  0  0  0  0  0
    9.9567   44.3597  132.5701 C   0  0  0  0  0  0  0  0  0  0  0  0
   10.4418   43.2377  133.2028 O   0  0  0  0  0  0  0  0  0  0  0  0
   10.8325   45.2857  132.0432 C   0  0  0  0  0  0  0  0  0  0  0  0
   10.2991   46.3921  131.4214 C   0  0  0  0  0  0  0  0  0  0  0  0
   11.4343   43.0985  133.2734 H   0  0  0  0  0  0  0  0  0  0  0  0
    6.9086   51.2023  128.7404 O   0  0  0  0  0  0  0  0  0  0  0  0
    7.4034   50.0421  129.3343 C   0  0  0  0  0  0  0  0  0  0  0  0
    7.9915   50.1448  130.6000 C   0  0  0  0  0  0  0  0  0  0  0  0
    8.4928   49.0339  131.2258 C   0  0  0  0  0  0  0  0  0  0  0  0
    8.4206   47.7900  130.6060 C   0  0  0  0  0  0  0  0  0  0  0  0
    7.8475   47.6722  129.3652 C   0  0  0  0  0  0  0  0  0  0  0  0
    7.3331   48.8044  128.7202 C   0  0  0  0  0  0  0  0  0  0  0  0
    6.4837   51.1186  127.8218 H   0  0  0  0  0  0  0  0  0  0  0  0
   12.3102   45.1068  132.1169 C   0  0  0  0  0  0  0  0  0  0  0  0
   12.7171   44.1562  131.1174 N   0  0  0  0  0  0  0  0  0  0  0  0
   12.6979   44.3909  129.9529 O   0  0  0  0  0  0  0  0  0  0  0  0
  9 10  1  0  0  0
 10 11  2  0  0  0
 11 12  1  0  0  0
 12 13  2  0  0  0
 13 14  1  0  0  0
 14 15  2  0  0  0
 13  1  1  0  0  0
  1  2  2  0  0  0
  2  3  1  0  0  0
  3  4  2  0  0  0
  4  5  1  0  0  0
  4  6  1  0  0  0
  6 17  1  0  0  0
 17 18  1  0  0  0
 18 19  2  0  0  0
  6  7  2  0  0  0
 15 10  1  0  0  0
  7  1  1  0  0  0
  9 16  1  0  0  0
  5  8  1  0  0  0
M  END
> <minimizedAffinity>
-8.27047

> <CNNscore>
0.7470149398

> <CNNaffinity>
6.3481669426

> <CNN_VS>
4.7421755791

> <CNNaffinity_variance>
0.5186899900

$$$$
[H]Oc1c([H])c([H])c(-c2c([H])c([H])c(O[H])c(C([H])([H])N=O)c2[H])c([H])c1[H]


 19 20  0  0  0  0  0  0  0  0999 V2000
    8.5685   46.4791  131.2746 C   0  0  0  0  0  0  0  0  0  0  0  0
    8.0346   45.2362  130.8970 C   0  0  0  0  0  0  0  0  0  0  0  0
    8.4238   44.0731  131.5197 C   0  0  0  0  0  0  0  0  0  0  0  0
    9.3592   44.1072  132.5402 C   0  0  0  0  0  0  0  0  0  0  0  0
    9.7447   42.9402  133.1599 O   0  0  0  0  0  0  0  0  0  0  0  0
    9.9054   45.3100  132.9365 C   0  0  0  0  0  0  0  0  0  0  0  0
    9.4867   46.4497  132.2875 C   0  0  0  0  0  0  0  0  0  0  0  0
   10.4268   42.9723  133.8970 H   0  0  0  0  0  0  0  0  0  0  0  0
    7.0512   51.2262  128.6970 O   0  0  0  0  0  0  0  0  0  0  0  0
    7.4109   50.0212  129.2988 C   0  0  0  0  0  0  0  0  0  0  0  0
    7.9797   50.0629  130.5768 C   0  0  0  0  0  0  0  0  0  0  0  0
    8.3504   48.9064  131.2108 C   0  0  0  0  0  0  0  0  0  0  0  0
    8.1633   47.6764  130.5872 C   0  0  0  0  0  0  0  0  0  0  0  0
    7.6072   47.6181  129.3345 C   0  0  0  0  0  0  0  0  0  0  0  0
    7.2262   48.7973  128.6810 C   0  0  0  0  0  0  0  0  0  0  0  0
    6.6394   51.1866  127.7694 H   0  0  0  0  0  0  0  0  0  0  0  0
   10.9289   45.3954  134.0164 C   0  0  0  0  0  0  0  0  0  0  0  0
   12.1634   44.8352  133.5367 N   0  0  0  0  0  0  0  0  0  0  0  0
   12.5787   43.7804  133.8926 O   0  0  0  0  0  0  0  0  0  0  0  0
  9 10  1  0  0  0
 10 11  2  0  0  0
 11 12  1  0  0  0
 12 13  2  0  0  0
 13 14  1  0  0  0
 14 15  2  0  0  0
 13  1  1  0  0  0
  1  2  2  0  0  0
  2  3  1  0  0  0
  3  4  2  0  0  0
  4  5  1  0  0  0
  4  6  1  0  0  0
  6 17  1  0  0  0
 17 18  1  0  0  0
 18 19  2  0  0  0
  6  7  2  0  0  0
 15 10  1  0  0  0
  7  1  1  0  0  0
  9 16  1  0  0  0
  5  8  1  0  0  0
M  END
> <minimizedAffinity>
-8.03806

> <CNNscore>
0.7398605347

> <CNNaffinity>
6.3675713539

> <CNN_VS>
4.7111148834

> <CNNaffinity_variance>
0.3904832006

$$$$
[H]Oc1c([H])c([H])c(-c2c([H])c([H])c(O[H])c(C([H])([H])N=O)c2[H])c([H])c1[H]


 19 20  0  0  0  0  0  0  0  0999 V2000
    8.3098   46.3938  131.2179 C   0  0  0  0  0  0  0  0  0  0  0  0
    8.4032   46.3013  132.6163 C   0  0  0  0  0  0  0  0  0  0  0  0
    8.6536   45.0996  133.2371 C   0  0  0  0  0  0  0  0  0  0  0  0
    8.8191   43.9476  132.4867 C   0  0  0  0  0  0  0  0  0  0  0  0
    9.0697   42.7480  133.1133 O   0  0  0  0  0  0  0  0  0  0  0  0
    8.7330   44.0010  131.1112 C   0  0  0  0  0  0  0  0  0  0  0  0
    8.4824   45.2240  130.5310 C   0  0  0  0  0  0  0  0  0  0  0  0
    9.1849   41.9155  132.5626 H   0  0  0  0  0  0  0  0  0  0  0  0
    7.0992   51.2591  128.6993 O   0  0  0  0  0  0  0  0  0  0  0  0
    7.4225   50.0755  129.3610 C   0  0  0  0  0  0  0  0  0  0  0  0
    7.0552   48.8627  128.7670 C   0  0  0  0  0  0  0  0  0  0  0  0
    7.3500   47.6722  129.3774 C   0  0  0  0  0  0  0  0  0  0  0  0
    8.0198   47.6590  130.5972 C   0  0  0  0  0  0  0  0  0  0  0  0
    8.3868   48.8390  131.1929 C   0  0  0  0  0  0  0  0  0  0  0  0
    8.0882   50.0596  130.5737 C   0  0  0  0  0  0  0  0  0  0  0  0
    7.3693   52.1345  129.1377 H   0  0  0  0  0  0  0  0  0  0  0  0
    8.8849   42.7856  130.2624 C   0  0  0  0  0  0  0  0  0  0  0  0
    8.8025   43.1678  128.8784 N   0  0  0  0  0  0  0  0  0  0  0  0
    9.6438   42.9048  128.0816 O   0  0  0  0  0  0  0  0  0  0  0  0
  9 10  1  0  0  0
 10 11  2  0  0  0
 11 12  1  0  0  0
 12 13  2  0  0  0
 13 14  1  0  0  0
 14 15  2  0  0  0
 13  1  1  0  0  0
  1  2  2  0  0  0
  2  3  1  0  0  0
  3  4  2  0  0  0
  4  5  1  0  0  0
  4  6  1  0  0  0
  6 17  1  0  0  0
 17 18  1  0  0  0
 18 19  2  0  0  0
  6  7  2  0  0  0
 15 10  1  0  0  0
  7  1  1  0  0  0
  9 16  1  0  0  0
  5  8  1  0  0  0
M  END
> <minimizedAffinity>
-8.76563

> <CNNscore>
0.7350279093

> <CNNaffinity>
6.4426016808

> <CNN_VS>
4.7354922295

> <CNNaffinity_variance>
0.5512064099

$$$$
[H]Oc1c([H])c([H])c(-c2c([H])c([H])c(O[H])c(C([H])([H])N=O)c2[H])c([H])c1[H]


 19 20  0  0  0  0  0  0  0  0999 V2000
   10.0198   46.6413  130.5608 C   0  0  0  0  0  0  0  0  0  0  0  0
   10.4475   45.6890  129.6213 C   0  0  0  0  0  0  0  0  0  0  0  0
   11.3349   44.6957  129.9648 C   0  0  0  0  0  0  0  0  0  0  0  0
   11.8280   44.6166  131.2564 C   0  0  0  0  0  0  0  0  0  0  0  0
   12.7155   43.6203  131.5946 O   0  0  0  0  0  0  0  0  0  0  0  0
   11.4305   45.5356  132.2049 C   0  0  0  0  0  0  0  0  0  0  0  0
   10.5402   46.5121  131.8188 C   0  0  0  0  0  0  0  0  0  0  0  0
   13.0721   43.5715  132.5327 H   0  0  0  0  0  0  0  0  0  0  0  0
    6.5545   50.8063  129.1031 O   0  0  0  0  0  0  0  0  0  0  0  0
    7.3922   49.7421  129.4332 C   0  0  0  0  0  0  0  0  0  0  0  0
    8.3556   49.9413  130.4285 C   0  0  0  0  0  0  0  0  0  0  0  0
    9.2030   48.9269  130.7889 C   0  0  0  0  0  0  0  0  0  0  0  0
    9.1120   47.6856  130.1663 C   0  0  0  0  0  0  0  0  0  0  0  0
    8.1733   47.4738  129.1886 C   0  0  0  0  0  0  0  0  0  0  0  0
    7.3040   48.5072  128.8157 C   0  0  0  0  0  0  0  0  0  0  0  0
    5.8584   50.6529  128.3796 H   0  0  0  0  0  0  0  0  0  0  0  0
   11.9479   45.5030  133.6021 C   0  0  0  0  0  0  0  0  0  0  0  0
   11.1445   44.5969  134.3779 N   0  0  0  0  0  0  0  0  0  0  0  0
   11.0456   43.4399  134.1266 O   0  0  0  0  0  0  0  0  0  0  0  0
  9 10  1  0  0  0
 10 11  2  0  0  0
 11 12  1  0  0  0
 12 13  2  0  0  0
 13 14  1  0  0  0
 14 15  2  0  0  0
 13  1  1  0  0  0
  1  2  2  0  0  0
  2  3  1  0  0  0
  3  4  2  0  0  0
  4  5  1  0  0  0
  4  6  1  0  0  0
  6 17  1  0  0  0
 17 18  1  0  0  0
 18 19  2  0  0  0
  6  7  2  0  0  0
 15 10  1  0  0  0
  7  1  1  0  0  0
  9 16  1  0  0  0
  5  8  1  0  0  0
M  END
> <minimizedAffinity>
-8.09760

> <CNNscore>
0.7347479463

> <CNNaffinity>
6.3114385605

> <CNN_VS>
4.6373167038

> <CNNaffinity_variance>
0.4853740633

$$$$
[H]Oc1c([H])c([H])c(-c2c([H])c([H])c(O[H])c(C([H])([H])N=O)c2[H])c([H])c1[H]


 19 20  0  0  0  0  0  0  0  0999 V2000
    8.2721   46.3679  131.1736 C   0  0  0  0  0  0  0  0  0  0  0  0
    8.3633   46.2999  132.5735 C   0  0  0  0  0  0  0  0  0  0  0  0
    8.6402   45.1146  133.2141 C   0  0  0  0  0  0  0  0  0  0  0  0
    8.8353   43.9550  132.4827 C   0  0  0  0  0  0  0  0  0  0  0  0
    9.1124   42.7718  133.1292 O   0  0  0  0  0  0  0  0  0  0  0  0
    8.7523   43.9844  131.1064 C   0  0  0  0  0  0  0  0  0  0  0  0
    8.4745   45.1918  130.5059 C   0  0  0  0  0  0  0  0  0  0  0  0
    9.2490   41.9337  132.5921 H   0  0  0  0  0  0  0  0  0  0  0  0
    7.1134   51.3027  128.7682 O   0  0  0  0  0  0  0  0  0  0  0  0
    7.3776   50.0540  129.3289 C   0  0  0  0  0  0  0  0  0  0  0  0
    8.0608   50.0069  130.5493 C   0  0  0  0  0  0  0  0  0  0  0  0
    8.3446   48.8044  131.1413 C   0  0  0  0  0  0  0  0  0  0  0  0
    7.9541   47.6158  130.5319 C   0  0  0  0  0  0  0  0  0  0  0  0
    7.2838   47.6444  129.3353 C   0  0  0  0  0  0  0  0  0  0  0  0
    6.9907   48.8709  128.7250 C   0  0  0  0  0  0  0  0  0  0  0  0
    6.6174   51.3274  127.8823 H   0  0  0  0  0  0  0  0  0  0  0  0
    8.9356   42.7596  130.2775 C   0  0  0  0  0  0  0  0  0  0  0  0
    8.8053   43.1101  128.8888 N   0  0  0  0  0  0  0  0  0  0  0  0
    9.6493   42.8895  128.0821 O   0  0  0  0  0  0  0  0  0  0  0  0
  9 10  1  0  0  0
 10 11  2  0  0  0
 11 12  1  0  0  0
 12 13  2  0  0  0
 13 14  1  0  0  0
 14 15  2  0  0  0
 13  1  1  0  0  0
  1  2  2  0  0  0
  2  3  1  0  0  0
  3  4  2  0  0  0
  4  5  1  0  0  0
  4  6  1  0  0  0
  6 17  1  0  0  0
 17 18  1  0  0  0
 18 19  2  0  0  0
  6  7  2  0  0  0
 15 10  1  0  0  0
  7  1  1  0  0  0
  9 16  1  0  0  0
  5  8  1  0  0  0
M  END
> <minimizedAffinity>
-8.67994

> <CNNscore>
0.7257236242

> <CNNaffinity>
6.3969573975

> <CNN_VS>
4.6424231529

> <CNNaffinity_variance>
0.5055381060

$$$$
[H]Oc1c([H])c([H])c(-c2c([H])c([H])c(O[H])c(C([H])([H])N=O)c2[H])c([H])c1[H]


 19 20  0  0  0  0  0  0  0  0999 V2000
    8.9364   46.0982  130.7299 C   0  0  0  0  0  0  0  0  0  0  0  0
    7.7011   45.6051  130.2787 C   0  0  0  0  0  0  0  0  0  0  0  0
    6.7310   46.4489  129.7901 C   0  0  0  0  0  0  0  0  0  0  0  0
    6.9570   47.8141  129.7343 C   0  0  0  0  0  0  0  0  0  0  0  0
    5.9827   48.6537  129.2442 O   0  0  0  0  0  0  0  0  0  0  0  0
    8.1581   48.3335  130.1697 C   0  0  0  0  0  0  0  0  0  0  0  0
    9.1016   47.4533  130.6499 C   0  0  0  0  0  0  0  0  0  0  0  0
    6.1523   49.6434  129.2103 H   0  0  0  0  0  0  0  0  0  0  0  0
   12.8727   42.6861  132.8138 O   0  0  0  0  0  0  0  0  0  0  0  0
   11.8626   43.4964  132.2978 C   0  0  0  0  0  0  0  0  0  0  0  0
   12.1801   44.8169  131.9603 C   0  0  0  0  0  0  0  0  0  0  0  0
   11.2227   45.6534  131.4497 C   0  0  0  0  0  0  0  0  0  0  0  0
    9.9222   45.1950  131.2614 C   0  0  0  0  0  0  0  0  0  0  0  0
    9.5944   43.9034  131.5874 C   0  0  0  0  0  0  0  0  0  0  0  0
   10.5690   43.0433  132.1099 C   0  0  0  0  0  0  0  0  0  0  0  0
   12.6334   41.7293  133.0563 H   0  0  0  0  0  0  0  0  0  0  0  0
    8.4407   49.7966  130.1473 C   0  0  0  0  0  0  0  0  0  0  0  0
    9.5837   50.0655  130.9775 N   0  0  0  0  0  0  0  0  0  0  0  0
    9.5081   50.2309  132.1517 O   0  0  0  0  0  0  0  0  0  0  0  0
  9 10  1  0  0  0
 10 11  2  0  0  0
 11 12  1  0  0  0
 12 13  2  0  0  0
 13 14  1  0  0  0
 14 15  2  0  0  0
 13  1  1  0  0  0
  1  2  2  0  0  0
  2  3  1  0  0  0
  3  4  2  0  0  0
  4  5  1  0  0  0
  4  6  1  0  0  0
  6 17  1  0  0  0
 17 18  1  0  0  0
 18 19  2  0  0  0
  6  7  2  0  0  0
 15 10  1  0  0  0
  7  1  1  0  0  0
  9 16  1  0  0  0
  5  8  1  0  0  0
M  END
> <minimizedAffinity>
-7.51361

> <CNNscore>
0.6224027872

> <CNNaffinity>
6.3566961288

> <CNN_VS>
3.9564254284

> <CNNaffinity_variance>
0.4587091804

$$$$
[H]Oc1c([H])c([H])c2c(sc3c4c([H])c(O[H])c([H])c([H])c4n(C([H])([H])c4c([H])c([H])c(OC([H])([H])C([H])([H])N(C([H])([H])C([H])([H])[H])C([H])([H])C([H])([H])[H])c([H])c4[H])c32)c1[H]


 35 39  0  0  0  0  0  0  0  0999 V2000
    8.8954   46.0125  131.6741 N   0  0  0  0  0  0  0  0  0  0  0  0
    9.9143   45.6213  132.4949 C   0  0  0  0  0  0  0  0  0  0  0  0
   10.3424   44.3947  132.9890 C   0  0  0  0  0  0  0  0  0  0  0  0
   11.4440   44.2939  133.8179 C   0  0  0  0  0  0  0  0  0  0  0  0
   12.1552   45.4237  134.1784 C   0  0  0  0  0  0  0  0  0  0  0  0
   13.2724   45.3664  135.0135 O   0  0  0  0  0  0  0  0  0  0  0  0
   11.7370   46.6680  133.6870 C   0  0  0  0  0  0  0  0  0  0  0  0
   10.6367   46.6969  132.8701 C   0  0  0  0  0  0  0  0  0  0  0  0
   10.0185   47.7713  132.2393 C   0  0  0  0  0  0  0  0  0  0  0  0
   10.0904   49.4543  132.0096 S   0  0  0  0  0  0  0  0  0  0  0  0
    8.7582   49.6429  130.9694 C   0  0  0  0  0  0  0  0  0  0  0  0
    8.2024   50.7670  130.3426 C   0  0  0  0  0  0  0  0  0  0  0  0
    7.1091   50.6210  129.5224 C   0  0  0  0  0  0  0  0  0  0  0  0
    6.5375   51.7098  128.8919 O   0  0  0  0  0  0  0  0  0  0  0  0
    6.6252   49.3674  129.3668 C   0  0  0  0  0  0  0  0  0  0  0  0
    7.1535   48.2580  129.9701 C   0  0  0  0  0  0  0  0  0  0  0  0
    8.2778   48.3736  130.8210 C   0  0  0  0  0  0  0  0  0  0  0  0
    8.9394   47.3741  131.4917 C   0  0  0  0  0  0  0  0  0  0  0  0
   14.1591   45.2389  134.5109 H   0  0  0  0  0  0  0  0  0  0  0  0
    6.8542   52.6537  128.9728 H   0  0  0  0  0  0  0  0  0  0  0  0
    7.9817   45.0308  131.1370 C   0  0  0  0  0  0  0  0  0  0  0  0
    9.4887   42.4868  127.9896 C   0  0  0  0  0  0  0  0  0  0  0  0
    9.1982   43.8099  127.7498 C   0  0  0  0  0  0  0  0  0  0  0  0
    8.6984   44.6480  128.7573 C   0  0  0  0  0  0  0  0  0  0  0  0
    8.4700   44.2018  130.0368 C   0  0  0  0  0  0  0  0  0  0  0  0
    8.7755   42.8507  130.2491 C   0  0  0  0  0  0  0  0  0  0  0  0
    9.2652   42.0221  129.2684 C   0  0  0  0  0  0  0  0  0  0  0  0
    9.9841   41.6600  126.9895 O   0  0  0  0  0  0  0  0  0  0  0  0
   11.3292   41.1867  127.0075 C   0  0  0  0  0  0  0  0  0  0  0  0
   11.6606   40.4910  125.7237 C   0  0  0  0  0  0  0  0  0  0  0  0
   11.5655   39.1160  125.6619 N   0  0  0  0  0  0  0  0  0  0  0  0
   10.2692   38.8230  123.5895 C   0  0  0  0  0  0  0  0  0  0  0  0
   10.5689   38.4062  125.0099 C   0  0  0  0  0  0  0  0  0  0  0  0
   12.5576   38.4316  126.4017 C   0  0  0  0  0  0  0  0  0  0  0  0
   13.6233   37.7878  125.5605 C   0  0  0  0  0  0  0  0  0  0  0  0
 32 33  1  0  0  0
 33 31  1  0  0  0
 31 34  1  0  0  0
 34 35  1  0  0  0
 31 30  1  0  0  0
 30 29  1  0  0  0
 29 28  1  0  0  0
 28 22  1  0  0  0
 22 23  2  0  0  0
 23 24  1  0  0  0
 24 25  2  0  0  0
 25 21  1  0  0  0
 21  1  1  0  0  0
  1  2  1  0  0  0
  2  3  2  0  0  0
  3  4  1  0  0  0
  4  5  2  0  0  0
  5  6  1  0  0  0
  5  7  1  0  0  0
  7  8  2  0  0  0
  8  9  1  0  0  0
  9 10  1  0  0  0
 10 11  1  0  0  0
 11 12  2  0  0  0
 12 13  1  0  0  0
 13 14  1  0  0  0
 13 15  2  0  0  0
 15 16  1  0  0  0
 16 17  2  0  0  0
 17 18  1  0  0  0
 25 26  1  0  0  0
 26 27  2  0  0  0
 27 22  1  0  0  0
 18  1  1  0  0  0
  8  2  1  0  0  0
 18  9  2  0  0  0
 17 11  1  0  0  0
  6 19  1  0  0  0
 14 20  1  0  0  0
M  END
> <minimizedAffinity>
12.07969

> <CNNscore>
0.4228423238

> <CNNaffinity>
7.9684057236

> <CNN_VS>
3.3693792820

> <CNNaffinity_variance>
1.4991228580

$$$$
[H]Oc1c([H])c([H])c2c(sc3c4c([H])c(O[H])c([H])c([H])c4n(C([H])([H])c4c([H])c([H])c(OC([H])([H])C([H])([H])N(C([H])([H])C([H])([H])[H])C([H])([H])C([H])([H])[H])c([H])c4[H])c32)c1[H]


 35 39  0  0  0  0  0  0  0  0999 V2000
    9.6544   46.6017  131.3929 N   0  0  0  0  0  0  0  0  0  0  0  0
    9.0679   47.0476  130.2431 C   0  0  0  0  0  0  0  0  0  0  0  0
    9.1724   46.6934  128.9031 C   0  0  0  0  0  0  0  0  0  0  0  0
    8.4281   47.3293  127.9272 C   0  0  0  0  0  0  0  0  0  0  0  0
    7.5510   48.3437  128.2647 C   0  0  0  0  0  0  0  0  0  0  0  0
    6.7816   49.0121  127.3108 O   0  0  0  0  0  0  0  0  0  0  0  0
    7.4331   48.7114  129.6121 C   0  0  0  0  0  0  0  0  0  0  0  0
    8.2004   48.0404  130.5285 C   0  0  0  0  0  0  0  0  0  0  0  0
    8.2755   48.1847  131.9098 C   0  0  0  0  0  0  0  0  0  0  0  0
    7.6557   49.0512  133.2347 S   0  0  0  0  0  0  0  0  0  0  0  0
    8.5257   48.2938  134.4846 C   0  0  0  0  0  0  0  0  0  0  0  0
    8.5304   48.4749  135.8748 C   0  0  0  0  0  0  0  0  0  0  0  0
    9.3413   47.6932  136.6627 C   0  0  0  0  0  0  0  0  0  0  0  0
    9.3696   47.8487  138.0355 O   0  0  0  0  0  0  0  0  0  0  0  0
   10.1043   46.7727  136.0299 C   0  0  0  0  0  0  0  0  0  0  0  0
   10.1139   46.5812  134.6745 C   0  0  0  0  0  0  0  0  0  0  0  0
    9.2922   47.3694  133.8349 C   0  0  0  0  0  0  0  0  0  0  0  0
    9.1669   47.3048  132.4687 C   0  0  0  0  0  0  0  0  0  0  0  0
    5.8662   48.5787  127.1392 H   0  0  0  0  0  0  0  0  0  0  0  0
    8.8284   48.5113  138.5512 H   0  0  0  0  0  0  0  0  0  0  0  0
   10.6237   45.5318  131.3427 C   0  0  0  0  0  0  0  0  0  0  0  0
    9.9710   42.3682  128.4765 C   0  0  0  0  0  0  0  0  0  0  0  0
    8.9548   42.7965  129.2990 C   0  0  0  0  0  0  0  0  0  0  0  0
    9.1517   43.8155  130.2426 C   0  0  0  0  0  0  0  0  0  0  0  0
   10.3633   44.4440  130.4019 C   0  0  0  0  0  0  0  0  0  0  0  0
   11.3773   43.9856  129.5502 C   0  0  0  0  0  0  0  0  0  0  0  0
   11.1939   42.9881  128.6232 C   0  0  0  0  0  0  0  0  0  0  0  0
    9.7722   41.3593  127.5429 O   0  0  0  0  0  0  0  0  0  0  0  0
   10.1602   40.0120  127.8026 C   0  0  0  0  0  0  0  0  0  0  0  0
    9.7120   39.1110  126.6938 C   0  0  0  0  0  0  0  0  0  0  0  0
   10.2875   39.2444  125.4469 N   0  0  0  0  0  0  0  0  0  0  0  0
   10.3544   37.7869  123.4638 C   0  0  0  0  0  0  0  0  0  0  0  0
    9.6920   38.8978  124.2439 C   0  0  0  0  0  0  0  0  0  0  0  0
   11.6209   39.7150  125.4702 C   0  0  0  0  0  0  0  0  0  0  0  0
   12.5506   38.9872  124.5408 C   0  0  0  0  0  0  0  0  0  0  0  0
 32 33  1  0  0  0
 33 31  1  0  0  0
 31 34  1  0  0  0
 34 35  1  0  0  0
 31 30  1  0  0  0
 30 29  1  0  0  0
 29 28  1  0  0  0
 28 22  1  0  0  0
 22 23  2  0  0  0
 23 24  1  0  0  0
 24 25  2  0  0  0
 25 21  1  0  0  0
 21  1  1  0  0  0
  1  2  1  0  0  0
  2  3  2  0  0  0
  3  4  1  0  0  0
  4  5  2  0  0  0
  5  6  1  0  0  0
  5  7  1  0  0  0
  7  8  2  0  0  0
  8  9  1  0  0  0
  9 10  1  0  0  0
 10 11  1  0  0  0
 11 12  2  0  0  0
 12 13  1  0  0  0
 13 14  1  0  0  0
 13 15  2  0  0  0
 15 16  1  0  0  0
 16 17  2  0  0  0
 17 18  1  0  0  0
 25 26  1  0  0  0
 26 27  2  0  0  0
 27 22  1  0  0  0
 18  1  1  0  0  0
  8  2  1  0  0  0
 18  9  2  0  0  0
 17 11  1  0  0  0
  6 19  1  0  0  0
 14 20  1  0  0  0
M  END
> <minimizedAffinity>
26.32289

> <CNNscore>
0.4159648120

> <CNNaffinity>
7.4398260117

> <CNN_VS>
3.0947058201

> <CNNaffinity_variance>
1.9047311544

$$$$
[H]Oc1c([H])c([H])c2c(sc3c4c([H])c(O[H])c([H])c([H])c4n(C([H])([H])c4c([H])c([H])c(OC([H])([H])C([H])([H])N(C([H])([H])C([H])([H])[H])C([H])([H])C([H])([H])[H])c([H])c4[H])c32)c1[H]


 35 39  0  0  0  0  0  0  0  0999 V2000
    8.0960   44.8283  130.5684 N   0  0  0  0  0  0  0  0  0  0  0  0
    8.6771   43.7915  129.8957 C   0  0  0  0  0  0  0  0  0  0  0  0
    8.8480   42.4385  130.1640 C   0  0  0  0  0  0  0  0  0  0  0  0
    9.4854   41.5991  129.2697 C   0  0  0  0  0  0  0  0  0  0  0  0
    9.9726   42.0907  128.0726 C   0  0  0  0  0  0  0  0  0  0  0  0
   10.6228   41.2781  127.1423 O   0  0  0  0  0  0  0  0  0  0  0  0
    9.8065   43.4528  127.7865 C   0  0  0  0  0  0  0  0  0  0  0  0
    9.1658   44.2291  128.7170 C   0  0  0  0  0  0  0  0  0  0  0  0
    8.8562   45.5848  128.6911 C   0  0  0  0  0  0  0  0  0  0  0  0
    8.9691   47.0005  127.7566 S   0  0  0  0  0  0  0  0  0  0  0  0
    8.1752   48.0802  128.8038 C   0  0  0  0  0  0  0  0  0  0  0  0
    7.8714   49.4448  128.6987 C   0  0  0  0  0  0  0  0  0  0  0  0
    7.1907   50.0733  129.7141 C   0  0  0  0  0  0  0  0  0  0  0  0
    6.8781   51.4173  129.6409 O   0  0  0  0  0  0  0  0  0  0  0  0
    6.8468   49.3147  130.7800 C   0  0  0  0  0  0  0  0  0  0  0  0
    7.1345   47.9818  130.9011 C   0  0  0  0  0  0  0  0  0  0  0  0
    7.8345   47.3051  129.8748 C   0  0  0  0  0  0  0  0  0  0  0  0
    8.1925   45.9800  129.8245 C   0  0  0  0  0  0  0  0  0  0  0  0
    9.9920   40.8492  126.4544 H   0  0  0  0  0  0  0  0  0  0  0  0
    7.1082   52.0214  128.8792 H   0  0  0  0  0  0  0  0  0  0  0  0
    7.4948   44.6043  131.8627 C   0  0  0  0  0  0  0  0  0  0  0  0
    9.4568   46.3260  135.3030 C   0  0  0  0  0  0  0  0  0  0  0  0
    8.3847   46.9549  134.7133 C   0  0  0  0  0  0  0  0  0  0  0  0
    7.7420   46.4154  133.5894 C   0  0  0  0  0  0  0  0  0  0  0  0
    8.1411   45.2338  133.0125 C   0  0  0  0  0  0  0  0  0  0  0  0
    9.2348   44.6180  133.6357 C   0  0  0  0  0  0  0  0  0  0  0  0
    9.8708   45.1389  134.7367 C   0  0  0  0  0  0  0  0  0  0  0  0
   10.0904   46.8629  136.4163 O   0  0  0  0  0  0  0  0  0  0  0  0
   11.0788   47.8835  136.2954 C   0  0  0  0  0  0  0  0  0  0  0  0
   11.8013   47.7658  134.9892 C   0  0  0  0  0  0  0  0  0  0  0  0
   11.1744   48.1891  133.8353 N   0  0  0  0  0  0  0  0  0  0  0  0
    9.9357   49.6829  132.3202 C   0  0  0  0  0  0  0  0  0  0  0  0
   10.3891   49.3254  133.7159 C   0  0  0  0  0  0  0  0  0  0  0  0
   11.3276   47.3124  132.7362 C   0  0  0  0  0  0  0  0  0  0  0  0
   12.4184   46.2929  132.9050 C   0  0  0  0  0  0  0  0  0  0  0  0
 32 33  1  0  0  0
 33 31  1  0  0  0
 31 34  1  0  0  0
 34 35  1  0  0  0
 31 30  1  0  0  0
 30 29  1  0  0  0
 29 28  1  0  0  0
 28 22  1  0  0  0
 22 23  2  0  0  0
 23 24  1  0  0  0
 24 25  2  0  0  0
 25 21  1  0  0  0
 21  1  1  0  0  0
  1  2  1  0  0  0
  2  3  2  0  0  0
  3  4  1  0  0  0
  4  5  2  0  0  0
  5  6  1  0  0  0
  5  7  1  0  0  0
  7  8  2  0  0  0
  8  9  1  0  0  0
  9 10  1  0  0  0
 10 11  1  0  0  0
 11 12  2  0  0  0
 12 13  1  0  0  0
 13 14  1  0  0  0
 13 15  2  0  0  0
 15 16  1  0  0  0
 16 17  2  0  0  0
 17 18  1  0  0  0
 25 26  1  0  0  0
 26 27  2  0  0  0
 27 22  1  0  0  0
 18  1  1  0  0  0
  8  2  1  0  0  0
 18  9  2  0  0  0
 17 11  1  0  0  0
  6 19  1  0  0  0
 14 20  1  0  0  0
M  END
> <minimizedAffinity>
10.57099

> <CNNscore>
0.4014751315

> <CNNaffinity>
7.4839658737

> <CNN_VS>
3.0046262741

> <CNNaffinity_variance>
0.5631755590

$$$$
[H]Oc1c([H])c([H])c2c(sc3c4c([H])c(O[H])c([H])c([H])c4n(C([H])([H])c4c([H])c([H])c(OC([H])([H])C([H])([H])N(C([H])([H])C([H])([H])[H])C([H])([H])C([H])([H])[H])c([H])c4[H])c32)c1[H]


 35 39  0  0  0  0  0  0  0  0999 V2000
   10.7612   44.8871  130.9536 N   0  0  0  0  0  0  0  0  0  0  0  0
   11.7968   44.6109  130.1073 C   0  0  0  0  0  0  0  0  0  0  0  0
   11.9555   44.6502  128.7270 C   0  0  0  0  0  0  0  0  0  0  0  0
   13.1555   44.3165  128.1275 C   0  0  0  0  0  0  0  0  0  0  0  0
   14.2394   43.9323  128.8955 C   0  0  0  0  0  0  0  0  0  0  0  0
   15.4682   43.5866  128.3306 O   0  0  0  0  0  0  0  0  0  0  0  0
   14.0958   43.8893  130.2891 C   0  0  0  0  0  0  0  0  0  0  0  0
   12.8788   44.2323  130.8184 C   0  0  0  0  0  0  0  0  0  0  0  0
   12.4642   44.2910  132.1447 C   0  0  0  0  0  0  0  0  0  0  0  0
   12.9700   44.0638  133.7519 S   0  0  0  0  0  0  0  0  0  0  0  0
   11.5286   44.4833  134.5513 C   0  0  0  0  0  0  0  0  0  0  0  0
   11.1872   44.5466  135.9095 C   0  0  0  0  0  0  0  0  0  0  0  0
    9.9237   44.9427  136.2785 C   0  0  0  0  0  0  0  0  0  0  0  0
    9.5563   45.0134  137.6088 O   0  0  0  0  0  0  0  0  0  0  0  0
    9.0658   45.2556  135.2806 C   0  0  0  0  0  0  0  0  0  0  0  0
    9.3802   45.1997  133.9494 C   0  0  0  0  0  0  0  0  0  0  0  0
   10.6711   44.7952  133.5357 C   0  0  0  0  0  0  0  0  0  0  0  0
   11.1583   44.6953  132.2554 C   0  0  0  0  0  0  0  0  0  0  0  0
   16.1106   44.3802  128.2186 H   0  0  0  0  0  0  0  0  0  0  0  0
   10.1490   44.7938  138.3823 H   0  0  0  0  0  0  0  0  0  0  0  0
    9.4889   45.3191  130.4229 C   0  0  0  0  0  0  0  0  0  0  0  0
    8.5225   49.4907  130.9823 C   0  0  0  0  0  0  0  0  0  0  0  0
    8.0571   48.5349  131.8554 C   0  0  0  0  0  0  0  0  0  0  0  0
    8.3525   47.1745  131.6833 C   0  0  0  0  0  0  0  0  0  0  0  0
    9.1197   46.7166  130.6393 C   0  0  0  0  0  0  0  0  0  0  0  0
    9.5783   47.7138  129.7681 C   0  0  0  0  0  0  0  0  0  0  0  0
    9.2940   49.0485  129.9285 C   0  0  0  0  0  0  0  0  0  0  0  0
    8.2284   50.8369  131.1563 O   0  0  0  0  0  0  0  0  0  0  0  0
    6.9946   51.3971  130.7120 C   0  0  0  0  0  0  0  0  0  0  0  0
    6.0873   50.3266  130.1896 C   0  0  0  0  0  0  0  0  0  0  0  0
    6.2801   49.8495  128.9094 N   0  0  0  0  0  0  0  0  0  0  0  0
    5.5794   47.5434  129.4116 C   0  0  0  0  0  0  0  0  0  0  0  0
    5.7795   48.6568  128.4107 C   0  0  0  0  0  0  0  0  0  0  0  0
    7.1234   50.6558  128.1103 C   0  0  0  0  0  0  0  0  0  0  0  0
    6.8855   52.1325  128.2535 C   0  0  0  0  0  0  0  0  0  0  0  0
 32 33  1  0  0  0
 33 31  1  0  0  0
 31 34  1  0  0  0
 34 35  1  0  0  0
 31 30  1  0  0  0
 30 29  1  0  0  0
 29 28  1  0  0  0
 28 22  1  0  0  0
 22 23  2  0  0  0
 23 24  1  0  0  0
 24 25  2  0  0  0
 25 21  1  0  0  0
 21  1  1  0  0  0
  1  2  1  0  0  0
  2  3  2  0  0  0
  3  4  1  0  0  0
  4  5  2  0  0  0
  5  6  1  0  0  0
  5  7  1  0  0  0
  7  8  2  0  0  0
  8  9  1  0  0  0
  9 10  1  0  0  0
 10 11  1  0  0  0
 11 12  2  0  0  0
 12 13  1  0  0  0
 13 14  1  0  0  0
 13 15  2  0  0  0
 15 16  1  0  0  0
 16 17  2  0  0  0
 17 18  1  0  0  0
 25 26  1  0  0  0
 26 27  2  0  0  0
 27 22  1  0  0  0
 18  1  1  0  0  0
  8  2  1  0  0  0
 18  9  2  0  0  0
 17 11  1  0  0  0
  6 19  1  0  0  0
 14 20  1  0  0  0
M  END
> <minimizedAffinity>
7.70300

> <CNNscore>
0.3966495097

> <CNNaffinity>
7.6535873413

> <CNN_VS>
3.0357916355

> <CNNaffinity_variance>
0.8719032407

$$$$
[H]Oc1c([H])c([H])c2c(sc3c4c([H])c(O[H])c([H])c([H])c4n(C([H])([H])c4c([H])c([H])c(OC([H])([H])C([H])([H])N(C([H])([H])C([H])([H])[H])C([H])([H])C([H])([H])[H])c([H])c4[H])c32)c1[H]


 35 39  0  0  0  0  0  0  0  0999 V2000
    8.7435   49.3589  130.7520 N   0  0  0  0  0  0  0  0  0  0  0  0
    8.1771   50.4292  130.1205 C   0  0  0  0  0  0  0  0  0  0  0  0
    8.1051   51.7893  130.3976 C   0  0  0  0  0  0  0  0  0  0  0  0
    7.4551   52.6663  129.5495 C   0  0  0  0  0  0  0  0  0  0  0  0
    6.8553   52.2064  128.3916 C   0  0  0  0  0  0  0  0  0  0  0  0
    6.1885   53.0575  127.5087 O   0  0  0  0  0  0  0  0  0  0  0  0
    6.9207   50.8375  128.0972 C   0  0  0  0  0  0  0  0  0  0  0  0
    7.5803   50.0233  128.9810 C   0  0  0  0  0  0  0  0  0  0  0  0
    7.8075   48.6519  128.9358 C   0  0  0  0  0  0  0  0  0  0  0  0
    7.5455   47.2470  128.0149 S   0  0  0  0  0  0  0  0  0  0  0  0
    8.3482   46.1207  129.0046 C   0  0  0  0  0  0  0  0  0  0  0  0
    8.5636   44.7410  128.8809 C   0  0  0  0  0  0  0  0  0  0  0  0
    9.2776   44.0718  129.8462 C   0  0  0  0  0  0  0  0  0  0  0  0
    9.5052   42.7120  129.7536 O   0  0  0  0  0  0  0  0  0  0  0  0
    9.7409   44.8069  130.8830 C   0  0  0  0  0  0  0  0  0  0  0  0
    9.5409   46.1540  131.0216 C   0  0  0  0  0  0  0  0  0  0  0  0
    8.8096   46.8725  130.0468 C   0  0  0  0  0  0  0  0  0  0  0  0
    8.5268   48.2163  130.0194 C   0  0  0  0  0  0  0  0  0  0  0  0
    6.7921   53.4502  126.7762 H   0  0  0  0  0  0  0  0  0  0  0  0
    9.1861   42.1239  129.0117 H   0  0  0  0  0  0  0  0  0  0  0  0
    9.4482   49.5448  131.9993 C   0  0  0  0  0  0  0  0  0  0  0  0
    9.6459   46.1365  134.6438 C   0  0  0  0  0  0  0  0  0  0  0  0
   10.7929   46.7471  134.1920 C   0  0  0  0  0  0  0  0  0  0  0  0
   10.7477   47.8485  133.3246 C   0  0  0  0  0  0  0  0  0  0  0  0
    9.5630   48.3814  132.8764 C   0  0  0  0  0  0  0  0  0  0  0  0
    8.4135   47.7378  133.3540 C   0  0  0  0  0  0  0  0  0  0  0  0
    8.4479   46.6584  134.2035 C   0  0  0  0  0  0  0  0  0  0  0  0
    9.6946   45.0464  135.5031 O   0  0  0  0  0  0  0  0  0  0  0  0
    9.0772   43.8043  135.1724 C   0  0  0  0  0  0  0  0  0  0  0  0
   10.0053   42.9534  134.3622 C   0  0  0  0  0  0  0  0  0  0  0  0
   11.2605   43.4360  134.0533 N   0  0  0  0  0  0  0  0  0  0  0  0
   12.1478   43.1130  136.3270 C   0  0  0  0  0  0  0  0  0  0  0  0
   12.2416   43.7746  134.9724 C   0  0  0  0  0  0  0  0  0  0  0  0
   11.4784   43.6448  132.6717 C   0  0  0  0  0  0  0  0  0  0  0  0
   12.7249   42.9983  132.1370 C   0  0  0  0  0  0  0  0  0  0  0  0
 32 33  1  0  0  0
 33 31  1  0  0  0
 31 34  1  0  0  0
 34 35  1  0  0  0
 31 30  1  0  0  0
 30 29  1  0  0  0
 29 28  1  0  0  0
 28 22  1  0  0  0
 22 23  2  0  0  0
 23 24  1  0  0  0
 24 25  2  0  0  0
 25 21  1  0  0  0
 21  1  1  0  0  0
  1  2  1  0  0  0
  2  3  2  0  0  0
  3  4  1  0  0  0
  4  5  2  0  0  0
  5  6  1  0  0  0
  5  7  1  0  0  0
  7  8  2  0  0  0
  8  9  1  0  0  0
  9 10  1  0  0  0
 10 11  1  0  0  0
 11 12  2  0  0  0
 12 13  1  0  0  0
 13 14  1  0  0  0
 13 15  2  0  0  0
 15 16  1  0  0  0
 16 17  2  0  0  0
 17 18  1  0  0  0
 25 26  1  0  0  0
 26 27  2  0  0  0
 27 22  1  0  0  0
 18  1  1  0  0  0
  8  2  1  0  0  0
 18  9  2  0  0  0
 17 11  1  0  0  0
  6 19  1  0  0  0
 14 20  1  0  0  0
M  END
> <minimizedAffinity>
9.27979

> <CNNscore>
0.3732701540

> <CNNaffinity>
7.6994147301

> <CNN_VS>
2.8739616871

> <CNNaffinity_variance>
0.7164192200

$$$$
[H]Oc1c([H])c([H])c2c(sc3c4c([H])c(O[H])c([H])c([H])c4n(C([H])([H])c4c([H])c([H])c(OC([H])([H])C([H])([H])N(C([H])([H])C([H])([H])[H])C([H])([H])C([H])([H])[H])c([H])c4[H])c32)c1[H]


 35 39  0  0  0  0  0  0  0  0999 V2000
    7.7972   46.6120  132.0148 N   0  0  0  0  0  0  0  0  0  0  0  0
    8.3627   46.2942  133.2165 C   0  0  0  0  0  0  0  0  0  0  0  0
    8.4999   45.1153  133.9399 C   0  0  0  0  0  0  0  0  0  0  0  0
    9.1474   45.0876  135.1608 C   0  0  0  0  0  0  0  0  0  0  0  0
    9.6812   46.2450  135.6973 C   0  0  0  0  0  0  0  0  0  0  0  0
   10.3417   46.2611  136.9269 O   0  0  0  0  0  0  0  0  0  0  0  0
    9.5524   47.4418  134.9790 C   0  0  0  0  0  0  0  0  0  0  0  0
    8.8986   47.3989  133.7751 C   0  0  0  0  0  0  0  0  0  0  0  0
    8.6408   48.4142  132.8602 C   0  0  0  0  0  0  0  0  0  0  0  0
    8.8623   50.0712  132.5504 S   0  0  0  0  0  0  0  0  0  0  0  0
    8.0976   50.1679  131.0344 C   0  0  0  0  0  0  0  0  0  0  0  0
    7.8966   51.2331  130.1454 C   0  0  0  0  0  0  0  0  0  0  0  0
    7.2442   51.0157  128.9552 C   0  0  0  0  0  0  0  0  0  0  0  0
    7.0292   52.0454  128.0590 O   0  0  0  0  0  0  0  0  0  0  0  0
    6.8262   49.7529  128.7094 C   0  0  0  0  0  0  0  0  0  0  0  0
    7.0126   48.7002  129.5645 C   0  0  0  0  0  0  0  0  0  0  0  0
    7.6791   48.8900  130.7978 C   0  0  0  0  0  0  0  0  0  0  0  0
    7.9620   47.9528  131.7612 C   0  0  0  0  0  0  0  0  0  0  0  0
   11.3523   46.0915  136.8566 H   0  0  0  0  0  0  0  0  0  0  0  0
    7.3160   52.9931  128.1911 H   0  0  0  0  0  0  0  0  0  0  0  0
    7.1592   45.5868  131.2218 C   0  0  0  0  0  0  0  0  0  0  0  0
    9.6717   43.4061  128.4684 C   0  0  0  0  0  0  0  0  0  0  0  0
    9.3365   44.7189  128.2302 C   0  0  0  0  0  0  0  0  0  0  0  0
    8.5133   45.4393  129.1082 C   0  0  0  0  0  0  0  0  0  0  0  0
    7.9951   44.8816  130.2522 C   0  0  0  0  0  0  0  0  0  0  0  0
    8.3545   43.5442  130.4665 C   0  0  0  0  0  0  0  0  0  0  0  0
    9.1600   42.8305  129.6122 C   0  0  0  0  0  0  0  0  0  0  0  0
   10.4877   42.6962  127.5970 O   0  0  0  0  0  0  0  0  0  0  0  0
   11.8558   43.0465  127.3996 C   0  0  0  0  0  0  0  0  0  0  0  0
   12.1701   44.3457  128.0743 C   0  0  0  0  0  0  0  0  0  0  0  0
   12.8624   44.3316  129.2677 N   0  0  0  0  0  0  0  0  0  0  0  0
   15.1749   43.6685  128.7440 C   0  0  0  0  0  0  0  0  0  0  0  0
   14.2110   44.6151  129.4196 C   0  0  0  0  0  0  0  0  0  0  0  0
   12.0929   43.9199  130.3805 C   0  0  0  0  0  0  0  0  0  0  0  0
   11.7589   45.0231  131.3444 C   0  0  0  0  0  0  0  0  0  0  0  0
 32 33  1  0  0  0
 33 31  1  0  0  0
 31 34  1  0  0  0
 34 35  1  0  0  0
 31 30  1  0  0  0
 30 29  1  0  0  0
 29 28  1  0  0  0
 28 22  1  0  0  0
 22 23  2  0  0  0
 23 24  1  0  0  0
 24 25  2  0  0  0
 25 21  1  0  0  0
 21  1  1  0  0  0
  1  2  1  0  0  0
  2  3  2  0  0  0
  3  4  1  0  0  0
  4  5  2  0  0  0
  5  6  1  0  0  0
  5  7  1  0  0  0
  7  8  2  0  0  0
  8  9  1  0  0  0
  9 10  1  0  0  0
 10 11  1  0  0  0
 11 12  2  0  0  0
 12 13  1  0  0  0
 13 14  1  0  0  0
 13 15  2  0  0  0
 15 16  1  0  0  0
 16 17  2  0  0  0
 17 18  1  0  0  0
 25 26  1  0  0  0
 26 27  2  0  0  0
 27 22  1  0  0  0
 18  1  1  0  0  0
  8  2  1  0  0  0
 18  9  2  0  0  0
 17 11  1  0  0  0
  6 19  1  0  0  0
 14 20  1  0  0  0
M  END
> <minimizedAffinity>
4.32902

> <CNNscore>
0.3662007451

> <CNNaffinity>
7.6089582443

> <CNN_VS>
2.7864062786

> <CNNaffinity_variance>
0.3896828294

$$$$
[H]Oc1c([H])c([H])c2c(sc3c4c([H])c(O[H])c([H])c([H])c4n(C([H])([H])c4c([H])c([H])c(OC([H])([H])C([H])([H])N(C([H])([H])C([H])([H])[H])C([H])([H])C([H])([H])[H])c([H])c4[H])c32)c1[H]


 35 39  0  0  0  0  0  0  0  0999 V2000
    8.7157   46.0376  131.5976 N   0  0  0  0  0  0  0  0  0  0  0  0
    8.7951   46.2411  132.9457 C   0  0  0  0  0  0  0  0  0  0  0  0
    7.9227   46.7497  133.9006 C   0  0  0  0  0  0  0  0  0  0  0  0
    8.2779   46.8309  135.2340 C   0  0  0  0  0  0  0  0  0  0  0  0
    9.5234   46.4020  135.6547 C   0  0  0  0  0  0  0  0  0  0  0  0
    9.9222   46.4670  136.9908 O   0  0  0  0  0  0  0  0  0  0  0  0
   10.4141   45.8849  134.7038 C   0  0  0  0  0  0  0  0  0  0  0  0
    9.9984   45.8332  133.3987 C   0  0  0  0  0  0  0  0  0  0  0  0
   10.6580   45.3644  132.2674 C   0  0  0  0  0  0  0  0  0  0  0  0
   12.1033   44.6600  131.7148 S   0  0  0  0  0  0  0  0  0  0  0  0
   11.7191   44.5129  130.0645 C   0  0  0  0  0  0  0  0  0  0  0  0
   12.4318   43.9989  128.9721 C   0  0  0  0  0  0  0  0  0  0  0  0
   11.8565   43.9910  127.7238 C   0  0  0  0  0  0  0  0  0  0  0  0
   12.5340   43.4929  126.6272 O   0  0  0  0  0  0  0  0  0  0  0  0
   10.6042   44.4930  127.6251 C   0  0  0  0  0  0  0  0  0  0  0  0
    9.8926   44.9993  128.6792 C   0  0  0  0  0  0  0  0  0  0  0  0
   10.4558   45.0232  129.9768 C   0  0  0  0  0  0  0  0  0  0  0  0
    9.8849   45.4782  131.1402 C   0  0  0  0  0  0  0  0  0  0  0  0
    9.6944   45.6246  137.5326 H   0  0  0  0  0  0  0  0  0  0  0  0
   13.4574   43.1123  126.6450 H   0  0  0  0  0  0  0  0  0  0  0  0
    7.5130   46.3952  130.8817 C   0  0  0  0  0  0  0  0  0  0  0  0
    7.2282   50.5073  129.5935 C   0  0  0  0  0  0  0  0  0  0  0  0
    6.7387   49.4868  128.8114 C   0  0  0  0  0  0  0  0  0  0  0  0
    6.8319   48.1450  129.2092 C   0  0  0  0  0  0  0  0  0  0  0  0
    7.4136   47.7703  130.3965 C   0  0  0  0  0  0  0  0  0  0  0  0
    7.9021   48.8318  131.1700 C   0  0  0  0  0  0  0  0  0  0  0  0
    7.8155   50.1490  130.7885 C   0  0  0  0  0  0  0  0  0  0  0  0
    7.1336   51.8349  129.1966 O   0  0  0  0  0  0  0  0  0  0  0  0
    7.0486   52.2006  127.8209 C   0  0  0  0  0  0  0  0  0  0  0  0
    7.1469   53.6863  127.6632 C   0  0  0  0  0  0  0  0  0  0  0  0
    7.0982   54.2312  126.3966 N   0  0  0  0  0  0  0  0  0  0  0  0
    8.9391   53.5962  124.8901 C   0  0  0  0  0  0  0  0  0  0  0  0
    8.1930   54.6591  125.6614 C   0  0  0  0  0  0  0  0  0  0  0  0
    5.7897   54.4042  125.8889 C   0  0  0  0  0  0  0  0  0  0  0  0
    5.7280   54.6548  124.4086 C   0  0  0  0  0  0  0  0  0  0  0  0
 32 33  1  0  0  0
 33 31  1  0  0  0
 31 34  1  0  0  0
 34 35  1  0  0  0
 31 30  1  0  0  0
 30 29  1  0  0  0
 29 28  1  0  0  0
 28 22  1  0  0  0
 22 23  2  0  0  0
 23 24  1  0  0  0
 24 25  2  0  0  0
 25 21  1  0  0  0
 21  1  1  0  0  0
  1  2  1  0  0  0
  2  3  2  0  0  0
  3  4  1  0  0  0
  4  5  2  0  0  0
  5  6  1  0  0  0
  5  7  1  0  0  0
  7  8  2  0  0  0
  8  9  1  0  0  0
  9 10  1  0  0  0
 10 11  1  0  0  0
 11 12  2  0  0  0
 12 13  1  0  0  0
 13 14  1  0  0  0
 13 15  2  0  0  0
 15 16  1  0  0  0
 16 17  2  0  0  0
 17 18  1  0  0  0
 25 26  1  0  0  0
 26 27  2  0  0  0
 27 22  1  0  0  0
 18  1  1  0  0  0
  8  2  1  0  0  0
 18  9  2  0  0  0
 17 11  1  0  0  0
  6 19  1  0  0  0
 14 20  1  0  0  0
M  END
> <minimizedAffinity>
2.39447

> <CNNscore>
0.3585079312

> <CNNaffinity>
7.3000745773

> <CNN_VS>
2.6171345711

> <CNNaffinity_variance>
0.6865803003

$$$$
[H]Oc1c([H])c([H])c2c(sc3c4c([H])c(O[H])c([H])c([H])c4n(C([H])([H])c4c([H])c([H])c(OC([H])([H])C([H])([H])N(C([H])([H])C([H])([H])[H])C([H])([H])C([H])([H])[H])c([H])c4[H])c32)c1[H]


 35 39  0  0  0  0  0  0  0  0999 V2000
   10.5341   45.3541  132.2882 N   0  0  0  0  0  0  0  0  0  0  0  0
   10.8507   44.9543  133.5551 C   0  0  0  0  0  0  0  0  0  0  0  0
   11.0764   45.6226  134.7528 C   0  0  0  0  0  0  0  0  0  0  0  0
   11.3783   44.9396  135.9159 C   0  0  0  0  0  0  0  0  0  0  0  0
   11.4630   43.5593  135.9160 C   0  0  0  0  0  0  0  0  0  0  0  0
   11.7660   42.8311  137.0678 O   0  0  0  0  0  0  0  0  0  0  0  0
   11.2364   42.8707  134.7164 C   0  0  0  0  0  0  0  0  0  0  0  0
   10.9418   43.6092  133.5999 C   0  0  0  0  0  0  0  0  0  0  0  0
   10.6630   43.1959  132.3015 C   0  0  0  0  0  0  0  0  0  0  0  0
   10.4929   41.8307  131.3026 S   0  0  0  0  0  0  0  0  0  0  0  0
   10.0959   42.6102  129.8440 C   0  0  0  0  0  0  0  0  0  0  0  0
    9.7971   42.1217  128.5643 C   0  0  0  0  0  0  0  0  0  0  0  0
    9.4896   42.9999  127.5526 C   0  0  0  0  0  0  0  0  0  0  0  0
    9.1925   42.5497  126.2804 O   0  0  0  0  0  0  0  0  0  0  0  0
    9.4940   44.3163  127.8639 C   0  0  0  0  0  0  0  0  0  0  0  0
    9.7832   44.8124  129.1066 C   0  0  0  0  0  0  0  0  0  0  0  0
   10.1048   43.9361  130.1695 C   0  0  0  0  0  0  0  0  0  0  0  0
   10.4055   44.2566  131.4708 C   0  0  0  0  0  0  0  0  0  0  0  0
   10.9405   42.5593  137.6152 H   0  0  0  0  0  0  0  0  0  0  0  0
    9.1755   41.5916  125.9979 H   0  0  0  0  0  0  0  0  0  0  0  0
   10.3772   46.7590  131.9910 C   0  0  0  0  0  0  0  0  0  0  0  0
    7.0866   47.7320  129.3691 C   0  0  0  0  0  0  0  0  0  0  0  0
    8.3692   48.1301  129.0702 C   0  0  0  0  0  0  0  0  0  0  0  0
    9.4481   47.8318  129.9153 C   0  0  0  0  0  0  0  0  0  0  0  0
    9.2912   47.1285  131.0853 C   0  0  0  0  0  0  0  0  0  0  0  0
    7.9742   46.7375  131.3615 C   0  0  0  0  0  0  0  0  0  0  0  0
    6.9111   47.0251  130.5399 C   0  0  0  0  0  0  0  0  0  0  0  0
    6.0207   48.0286  128.5294 O   0  0  0  0  0  0  0  0  0  0  0  0
    5.1790   49.1566  128.7583 C   0  0  0  0  0  0  0  0  0  0  0  0
    5.7189   50.0003  129.8713 C   0  0  0  0  0  0  0  0  0  0  0  0
    6.7824   50.8425  129.6194 N   0  0  0  0  0  0  0  0  0  0  0  0
    8.3003   50.3203  131.4861 C   0  0  0  0  0  0  0  0  0  0  0  0
    7.6604   51.3376  130.5712 C   0  0  0  0  0  0  0  0  0  0  0  0
    6.8912   51.2528  128.2704 C   0  0  0  0  0  0  0  0  0  0  0  0
    7.0410   52.7363  128.0846 C   0  0  0  0  0  0  0  0  0  0  0  0
 32 33  1  0  0  0
 33 31  1  0  0  0
 31 34  1  0  0  0
 34 35  1  0  0  0
 31 30  1  0  0  0
 30 29  1  0  0  0
 29 28  1  0  0  0
 28 22  1  0  0  0
 22 23  2  0  0  0
 23 24  1  0  0  0
 24 25  2  0  0  0
 25 21  1  0  0  0
 21  1  1  0  0  0
  1  2  1  0  0  0
  2  3  2  0  0  0
  3  4  1  0  0  0
  4  5  2  0  0  0
  5  6  1  0  0  0
  5  7  1  0  0  0
  7  8  2  0  0  0
  8  9  1  0  0  0
  9 10  1  0  0  0
 10 11  1  0  0  0
 11 12  2  0  0  0
 12 13  1  0  0  0
 13 14  1  0  0  0
 13 15  2  0  0  0
 15 16  1  0  0  0
 16 17  2  0  0  0
 17 18  1  0  0  0
 25 26  1  0  0  0
 26 27  2  0  0  0
 27 22  1  0  0  0
 18  1  1  0  0  0
  8  2  1  0  0  0
 18  9  2  0  0  0
 17 11  1  0  0  0
  6 19  1  0  0  0
 14 20  1  0  0  0
M  END
> <minimizedAffinity>
6.21630

> <CNNscore>
0.3417159617

> <CNNaffinity>
7.6910066605

> <CNN_VS>
2.6281397343

> <CNNaffinity_variance>
0.9051756859

$$$$
[H]Oc1c([H])c([H])c2c(sc3c4c([H])c(O[H])c([H])c([H])c4n(C([H])([H])c4c([H])c([H])c(OC([H])([H])C([H])([H])N(C([H])([H])C([H])([H])[H])C([H])([H])C([H])([H])[H])c([H])c4[H])c32)c1[H]


 35 39  0  0  0  0  0  0  0  0999 V2000
    8.8690   44.3286  132.0825 N   0  0  0  0  0  0  0  0  0  0  0  0
    9.4951   43.1196  131.9756 C   0  0  0  0  0  0  0  0  0  0  0  0
    9.1081   41.8667  131.5149 C   0  0  0  0  0  0  0  0  0  0  0  0
    9.9808   40.7948  131.5159 C   0  0  0  0  0  0  0  0  0  0  0  0
   11.2749   40.9454  131.9794 C   0  0  0  0  0  0  0  0  0  0  0  0
   12.1876   39.8894  131.9985 O   0  0  0  0  0  0  0  0  0  0  0  0
   11.6810   42.2033  132.4458 C   0  0  0  0  0  0  0  0  0  0  0  0
   10.7655   43.2230  132.4174 C   0  0  0  0  0  0  0  0  0  0  0  0
   10.8963   44.5540  132.7991 C   0  0  0  0  0  0  0  0  0  0  0  0
   11.9827   45.7011  133.4272 S   0  0  0  0  0  0  0  0  0  0  0  0
   10.9651   47.0638  133.4316 C   0  0  0  0  0  0  0  0  0  0  0  0
   11.1757   48.3973  133.8098 C   0  0  0  0  0  0  0  0  0  0  0  0
   10.1556   49.3107  133.6894 C   0  0  0  0  0  0  0  0  0  0  0  0
   10.3316   50.6316  134.0553 O   0  0  0  0  0  0  0  0  0  0  0  0
    8.9806   48.8532  133.1998 C   0  0  0  0  0  0  0  0  0  0  0  0
    8.7555   47.5558  132.8256 C   0  0  0  0  0  0  0  0  0  0  0  0
    9.7836   46.5905  132.9376 C   0  0  0  0  0  0  0  0  0  0  0  0
    9.7373   45.2599  132.6001 C   0  0  0  0  0  0  0  0  0  0  0  0
   12.7417   39.8050  131.1378 H   0  0  0  0  0  0  0  0  0  0  0  0
   11.1759   51.0201  134.4216 H   0  0  0  0  0  0  0  0  0  0  0  0
    7.4932   44.4700  131.6652 C   0  0  0  0  0  0  0  0  0  0  0  0
    6.4736   47.5586  128.8245 C   0  0  0  0  0  0  0  0  0  0  0  0
    7.6756   46.8943  128.7441 C   0  0  0  0  0  0  0  0  0  0  0  0
    8.0276   45.8958  129.6641 C   0  0  0  0  0  0  0  0  0  0  0  0
    7.1989   45.5226  130.6948 C   0  0  0  0  0  0  0  0  0  0  0  0
    5.9831   46.2172  130.7497 C   0  0  0  0  0  0  0  0  0  0  0  0
    5.6298   47.1967  129.8532 C   0  0  0  0  0  0  0  0  0  0  0  0
    6.1282   48.5464  127.9112 O   0  0  0  0  0  0  0  0  0  0  0  0
    7.1170   49.3286  127.2449 C   0  0  0  0  0  0  0  0  0  0  0  0
    7.9817   50.0422  128.2375 C   0  0  0  0  0  0  0  0  0  0  0  0
    7.4403   50.4213  129.4486 N   0  0  0  0  0  0  0  0  0  0  0  0
    5.2314   50.5533  130.5278 C   0  0  0  0  0  0  0  0  0  0  0  0
    6.2752   51.1537  129.6159 C   0  0  0  0  0  0  0  0  0  0  0  0
    8.2213   50.0619  130.5715 C   0  0  0  0  0  0  0  0  0  0  0  0
    9.6192   49.6230  130.2385 C   0  0  0  0  0  0  0  0  0  0  0  0
 32 33  1  0  0  0
 33 31  1  0  0  0
 31 34  1  0  0  0
 34 35  1  0  0  0
 31 30  1  0  0  0
 30 29  1  0  0  0
 29 28  1  0  0  0
 28 22  1  0  0  0
 22 23  2  0  0  0
 23 24  1  0  0  0
 24 25  2  0  0  0
 25 21  1  0  0  0
 21  1  1  0  0  0
  1  2  1  0  0  0
  2  3  2  0  0  0
  3  4  1  0  0  0
  4  5  2  0  0  0
  5  6  1  0  0  0
  5  7  1  0  0  0
  7  8  2  0  0  0
  8  9  1  0  0  0
  9 10  1  0  0  0
 10 11  1  0  0  0
 11 12  2  0  0  0
 12 13  1  0  0  0
 13 14  1  0  0  0
 13 15  2  0  0  0
 15 16  1  0  0  0
 16 17  2  0  0  0
 17 18  1  0  0  0
 25 26  1  0  0  0
 26 27  2  0  0  0
 27 22  1  0  0  0
 18  1  1  0  0  0
  8  2  1  0  0  0
 18  9  2  0  0  0
 17 11  1  0  0  0
  6 19  1  0  0  0
 14 20  1  0  0  0
M  END
> <minimizedAffinity>
9.84847

> <CNNscore>
0.3149811327

> <CNNaffinity>
7.5822763443

> <CNN_VS>
2.3882739544

> <CNNaffinity_variance>
0.7605460882

$$$$
[H]Oc1c([H])c([H])c(C2=C(c3c([H])c([H])c(/C([H])=C(\[H])C(=O)N4C([H])([H])C([H])([H])N(C([H])([H])c5c([H])c([H])c([H])c([H])c5[H])C([H])([H])C4([H])[H])c([H])c3[H])c3c([H])c([H])c(F)c([H])c3OC([H])([H])C2([H])[H])c([H])c1[H]


 43 48  0  0  0  0  0  0  0  0999 V2000
    9.2763   45.1223  131.1828 C   0  0  0  0  0  0  0  0  0  0  0  0
   10.2840   46.0774  130.9915 C   0  0  0  0  0  0  0  0  0  0  0  0
    9.9421   47.3777  130.6039 C   0  0  0  0  0  0  0  0  0  0  0  0
    8.6695   47.7802  130.3975 C   0  0  0  0  0  0  0  0  0  0  0  0
    7.6709   46.8146  130.5919 C   0  0  0  0  0  0  0  0  0  0  0  0
    7.9736   45.5344  130.9708 C   0  0  0  0  0  0  0  0  0  0  0  0
   10.7753   43.2145  131.1070 C   0  0  0  0  0  0  0  0  0  0  0  0
    9.6591   43.7787  131.5362 C   0  0  0  0  0  0  0  0  0  0  0  0
    8.7153   43.0708  132.4443 C   0  0  0  0  0  0  0  0  0  0  0  0
    8.0019   43.9662  133.2511 C   0  0  0  0  0  0  0  0  0  0  0  0
    7.0893   43.4624  134.1457 C   0  0  0  0  0  0  0  0  0  0  0  0
    6.8883   42.0961  134.2387 C   0  0  0  0  0  0  0  0  0  0  0  0
    5.9880   41.5866  135.1199 F   0  0  0  0  0  0  0  0  0  0  0  0
    7.5763   41.1965  133.4586 C   0  0  0  0  0  0  0  0  0  0  0  0
    8.5058   41.7144  132.5477 C   0  0  0  0  0  0  0  0  0  0  0  0
    9.1376   40.7198  131.8197 O   0  0  0  0  0  0  0  0  0  0  0  0
   10.2590   40.7872  131.0104 C   0  0  0  0  0  0  0  0  0  0  0  0
   11.2823   41.8262  131.3829 C   0  0  0  0  0  0  0  0  0  0  0  0
   14.5623   45.9063  127.8969 O   0  0  0  0  0  0  0  0  0  0  0  0
   13.6004   45.2613  128.6719 C   0  0  0  0  0  0  0  0  0  0  0  0
   13.9520   44.7044  129.8892 C   0  0  0  0  0  0  0  0  0  0  0  0
   12.9935   44.0696  130.6475 C   0  0  0  0  0  0  0  0  0  0  0  0
   11.6578   43.9565  130.2438 C   0  0  0  0  0  0  0  0  0  0  0  0
   11.3257   44.5036  129.0529 C   0  0  0  0  0  0  0  0  0  0  0  0
   12.2897   45.1477  128.2799 C   0  0  0  0  0  0  0  0  0  0  0  0
   15.1291   45.4543  127.2041 H   0  0  0  0  0  0  0  0  0  0  0  0
    8.2500   49.1208  130.0099 C   0  0  0  0  0  0  0  0  0  0  0  0
    7.0975   49.6284  130.3455 C   0  0  0  0  0  0  0  0  0  0  0  0
    6.5291   50.9080  130.0555 C   0  0  0  0  0  0  0  0  0  0  0  0
    6.0773   51.5022  131.1651 O   0  0  0  0  0  0  0  0  0  0  0  0
    6.3642   51.6202  128.8989 N   0  0  0  0  0  0  0  0  0  0  0  0
    5.7657   52.9968  129.0401 C   0  0  0  0  0  0  0  0  0  0  0  0
    6.8830   53.9159  128.6269 C   0  0  0  0  0  0  0  0  0  0  0  0
    7.5862   53.5718  127.4481 N   0  0  0  0  0  0  0  0  0  0  0  0
    7.8387   52.2117  127.1741 C   0  0  0  0  0  0  0  0  0  0  0  0
    6.6474   51.3137  127.5540 C   0  0  0  0  0  0  0  0  0  0  0  0
    7.4519   54.4700  126.3603 C   0  0  0  0  0  0  0  0  0  0  0  0
    8.1070   53.9087  125.1515 C   0  0  0  0  0  0  0  0  0  0  0  0
    7.5023   52.8358  124.4858 C   0  0  0  0  0  0  0  0  0  0  0  0
    8.0248   52.2502  123.3717 C   0  0  0  0  0  0  0  0  0  0  0  0
    9.2281   52.7725  122.8957 C   0  0  0  0  0  0  0  0  0  0  0  0
    9.8529   53.8141  123.5093 C   0  0  0  0  0  0  0  0  0  0  0  0
    9.2867   54.3847  124.6451 C   0  0  0  0  0  0  0  0  0  0  0  0
 19 20  1  0  0  0
 20 21  2  0  0  0
 21 22  1  0  0  0
 22 23  2  0  0  0
 23 24  1  0  0  0
 24 25  2  0  0  0
 23  7  1  0  0  0
  7  8  2  0  0  0
  8  1  1  0  0  0
  1  2  2  0  0  0
  2  3  1  0  0  0
  3  4  2  0  0  0
  4 27  1  0  0  0
 27 28  2  0  0  0
 28 29  1  0  0  0
 29 30  2  0  0  0
 29 31  1  0  0  0
 31 32  1  0  0  0
 32 33  1  0  0  0
 33 34  1  0  0  0
 34 37  1  0  0  0
 37 38  1  0  0  0
 38 39  2  0  0  0
 39 40  1  0  0  0
 40 41  2  0  0  0
 41 42  1  0  0  0
 42 43  2  0  0  0
 34 35  1  0  0  0
 35 36  1  0  0  0
  4  5  1  0  0  0
  5  6  2  0  0  0
  8  9  1  0  0  0
  9 10  2  0  0  0
 10 11  1  0  0  0
 11 12  2  0  0  0
 12 13  1  0  0  0
 12 14  1  0  0  0
 14 15  2  0  0  0
 15 16  1  0  0  0
 16 17  1  0  0  0
 17 18  1  0  0  0
 25 20  1  0  0  0
 18  7  1  0  0  0
  6  1  1  0  0  0
 15  9  1  0  0  0
 36 31  1  0  0  0
 43 38  1  0  0  0
 19 26  1  0  0  0
M  END
> <minimizedAffinity>
42.57804

> <CNNscore>
0.4748469293

> <CNNaffinity>
7.4888315201

> <CNN_VS>
3.5560486317

> <CNNaffinity_variance>
1.5197312832

$$$$
[H]Oc1c([H])c([H])c(C2=C(c3c([H])c([H])c(/C([H])=C(\[H])C(=O)N4C([H])([H])C([H])([H])N(C([H])([H])c5c([H])c([H])c([H])c([H])c5[H])C([H])([H])C4([H])[H])c([H])c3[H])c3c([H])c([H])c(F)c([H])c3OC([H])([H])C2([H])[H])c([H])c1[H]


 43 48  0  0  0  0  0  0  0  0999 V2000
    9.9815   44.7151  131.7792 C   0  0  0  0  0  0  0  0  0  0  0  0
   10.6165   45.1931  130.6248 C   0  0  0  0  0  0  0  0  0  0  0  0
   10.2352   46.4260  130.0840 C   0  0  0  0  0  0  0  0  0  0  0  0
    9.2690   47.2039  130.6184 C   0  0  0  0  0  0  0  0  0  0  0  0
    8.6413   46.7135  131.7730 C   0  0  0  0  0  0  0  0  0  0  0  0
    8.9920   45.5113  132.3257 C   0  0  0  0  0  0  0  0  0  0  0  0
   11.5724   42.9153  132.1299 C   0  0  0  0  0  0  0  0  0  0  0  0
   10.3610   43.4213  132.2881 C   0  0  0  0  0  0  0  0  0  0  0  0
    9.2935   42.6966  133.0310 C   0  0  0  0  0  0  0  0  0  0  0  0
    8.3791   43.5800  133.6182 C   0  0  0  0  0  0  0  0  0  0  0  0
    7.3331   43.0601  134.3411 C   0  0  0  0  0  0  0  0  0  0  0  0
    7.1969   41.6896  134.4794 C   0  0  0  0  0  0  0  0  0  0  0  0
    6.1660   41.1642  135.1920 F   0  0  0  0  0  0  0  0  0  0  0  0
    8.0813   40.8016  133.9134 C   0  0  0  0  0  0  0  0  0  0  0  0
    9.1464   41.3359  133.1771 C   0  0  0  0  0  0  0  0  0  0  0  0
    9.9707   40.3520  132.6569 O   0  0  0  0  0  0  0  0  0  0  0  0
   11.2285   40.4561  132.0876 C   0  0  0  0  0  0  0  0  0  0  0  0
   12.0915   41.5818  132.5909 C   0  0  0  0  0  0  0  0  0  0  0  0
   15.4377   45.6013  129.0096 O   0  0  0  0  0  0  0  0  0  0  0  0
   14.4880   44.9647  129.8062 C   0  0  0  0  0  0  0  0  0  0  0  0
   14.2201   43.6194  129.6223 C   0  0  0  0  0  0  0  0  0  0  0  0
   13.2800   42.9997  130.4154 C   0  0  0  0  0  0  0  0  0  0  0  0
   12.5686   43.6721  131.4163 C   0  0  0  0  0  0  0  0  0  0  0  0
   12.8380   44.9860  131.5868 C   0  0  0  0  0  0  0  0  0  0  0  0
   13.7878   45.6200  130.7886 C   0  0  0  0  0  0  0  0  0  0  0  0
   15.2358   46.0524  128.1371 H   0  0  0  0  0  0  0  0  0  0  0  0
    8.8395   48.5011  130.1123 C   0  0  0  0  0  0  0  0  0  0  0  0
    7.5871   48.8532  130.0344 C   0  0  0  0  0  0  0  0  0  0  0  0
    6.9935   50.0678  129.5692 C   0  0  0  0  0  0  0  0  0  0  0  0
    7.9117   50.8908  129.0514 O   0  0  0  0  0  0  0  0  0  0  0  0
    5.7079   50.5360  129.5507 N   0  0  0  0  0  0  0  0  0  0  0  0
    5.4922   51.8740  128.8901 C   0  0  0  0  0  0  0  0  0  0  0  0
    4.6525   51.5462  127.6855 C   0  0  0  0  0  0  0  0  0  0  0  0
    3.5539   50.6787  127.8934 N   0  0  0  0  0  0  0  0  0  0  0  0
    3.6900   49.6070  128.7996 C   0  0  0  0  0  0  0  0  0  0  0  0
    4.5025   50.0023  130.0460 C   0  0  0  0  0  0  0  0  0  0  0  0
    2.2696   51.2458  127.7004 C   0  0  0  0  0  0  0  0  0  0  0  0
    2.3101   52.2352  126.5937 C   0  0  0  0  0  0  0  0  0  0  0  0
    2.2166   53.5989  126.8962 C   0  0  0  0  0  0  0  0  0  0  0  0
    2.2414   54.5828  125.9535 C   0  0  0  0  0  0  0  0  0  0  0  0
    2.3676   54.1739  124.6252 C   0  0  0  0  0  0  0  0  0  0  0  0
    2.4613   52.8603  124.2828 C   0  0  0  0  0  0  0  0  0  0  0  0
    2.4320   51.8857  125.2755 C   0  0  0  0  0  0  0  0  0  0  0  0
 19 20  1  0  0  0
 20 21  2  0  0  0
 21 22  1  0  0  0
 22 23  2  0  0  0
 23 24  1  0  0  0
 24 25  2  0  0  0
 23  7  1  0  0  0
  7  8  2  0  0  0
  8  1  1  0  0  0
  1  2  2  0  0  0
  2  3  1  0  0  0
  3  4  2  0  0  0
  4 27  1  0  0  0
 27 28  2  0  0  0
 28 29  1  0  0  0
 29 30  2  0  0  0
 29 31  1  0  0  0
 31 32  1  0  0  0
 32 33  1  0  0  0
 33 34  1  0  0  0
 34 37  1  0  0  0
 37 38  1  0  0  0
 38 39  2  0  0  0
 39 40  1  0  0  0
 40 41  2  0  0  0
 41 42  1  0  0  0
 42 43  2  0  0  0
 34 35  1  0  0  0
 35 36  1  0  0  0
  4  5  1  0  0  0
  5  6  2  0  0  0
  8  9  1  0  0  0
  9 10  2  0  0  0
 10 11  1  0  0  0
 11 12  2  0  0  0
 12 13  1  0  0  0
 12 14  1  0  0  0
 14 15  2  0  0  0
 15 16  1  0  0  0
 16 17  1  0  0  0
 17 18  1  0  0  0
 25 20  1  0  0  0
 18  7  1  0  0  0
  6  1  1  0  0  0
 15  9  1  0  0  0
 36 31  1  0  0  0
 43 38  1  0  0  0
 19 26  1  0  0  0
M  END
> <minimizedAffinity>
45.83366

> <CNNscore>
0.4135566950

> <CNNaffinity>
7.4249086380

> <CNN_VS>
3.0706207752

> <CNNaffinity_variance>
1.7158247232

$$$$
[H]Oc1c([H])c([H])c(C2=C(c3c([H])c([H])c(/C([H])=C(\[H])C(=O)N4C([H])([H])C([H])([H])N(C([H])([H])c5c([H])c([H])c([H])c([H])c5[H])C([H])([H])C4([H])[H])c([H])c3[H])c3c([H])c([H])c(F)c([H])c3OC([H])([H])C2([H])[H])c([H])c1[H]


 43 48  0  0  0  0  0  0  0  0999 V2000
    9.4074   46.1634  131.5820 C   0  0  0  0  0  0  0  0  0  0  0  0
   10.0029   47.4316  131.5446 C   0  0  0  0  0  0  0  0  0  0  0  0
    9.3046   48.5092  130.9890 C   0  0  0  0  0  0  0  0  0  0  0  0
    8.0609   48.4011  130.4734 C   0  0  0  0  0  0  0  0  0  0  0  0
    7.4768   47.1266  130.5165 C   0  0  0  0  0  0  0  0  0  0  0  0
    8.1346   46.0528  131.0535 C   0  0  0  0  0  0  0  0  0  0  0  0
   10.8032   44.1907  131.3522 C   0  0  0  0  0  0  0  0  0  0  0  0
   10.1667   45.0616  132.1170 C   0  0  0  0  0  0  0  0  0  0  0  0
   10.2053   44.9833  133.6033 C   0  0  0  0  0  0  0  0  0  0  0  0
   10.0505   46.2440  134.1932 C   0  0  0  0  0  0  0  0  0  0  0  0
   10.0655   46.3356  135.5637 C   0  0  0  0  0  0  0  0  0  0  0  0
   10.2313   45.1981  136.3347 C   0  0  0  0  0  0  0  0  0  0  0  0
   10.2474   45.2768  137.6913 F   0  0  0  0  0  0  0  0  0  0  0  0
   10.3858   43.9493  135.7798 C   0  0  0  0  0  0  0  0  0  0  0  0
   10.3699   43.8604  134.3820 C   0  0  0  0  0  0  0  0  0  0  0  0
   10.5353   42.5594  133.9370 O   0  0  0  0  0  0  0  0  0  0  0  0
   10.8092   42.0832  132.6660 C   0  0  0  0  0  0  0  0  0  0  0  0
   11.6103   42.9952  131.7762 C   0  0  0  0  0  0  0  0  0  0  0  0
   10.1996   44.5103  125.7464 O   0  0  0  0  0  0  0  0  0  0  0  0
   10.3799   44.4519  127.1269 C   0  0  0  0  0  0  0  0  0  0  0  0
    9.7968   43.4320  127.8585 C   0  0  0  0  0  0  0  0  0  0  0  0
    9.9818   43.3833  129.2224 C   0  0  0  0  0  0  0  0  0  0  0  0
   10.7430   44.3288  129.9199 C   0  0  0  0  0  0  0  0  0  0  0  0
   11.3076   45.3209  129.1953 C   0  0  0  0  0  0  0  0  0  0  0  0
   11.1252   45.3770  127.8150 C   0  0  0  0  0  0  0  0  0  0  0  0
    9.4501   44.9978  125.2924 H   0  0  0  0  0  0  0  0  0  0  0  0
    7.2778   49.4865  129.8972 C   0  0  0  0  0  0  0  0  0  0  0  0
    7.7221   50.7079  129.7996 C   0  0  0  0  0  0  0  0  0  0  0  0
    7.0986   51.8809  129.2708 C   0  0  0  0  0  0  0  0  0  0  0  0
    6.6361   52.6683  130.2478 O   0  0  0  0  0  0  0  0  0  0  0  0
    6.8911   52.3398  127.9986 N   0  0  0  0  0  0  0  0  0  0  0  0
    6.2387   53.6933  127.8734 C   0  0  0  0  0  0  0  0  0  0  0  0
    7.3126   54.5521  127.2626 C   0  0  0  0  0  0  0  0  0  0  0  0
    8.0152   54.0050  126.1627 N   0  0  0  0  0  0  0  0  0  0  0  0
    8.3196   52.6281  126.1615 C   0  0  0  0  0  0  0  0  0  0  0  0
    7.1705   51.7805  126.7368 C   0  0  0  0  0  0  0  0  0  0  0  0
    7.8314   54.6610  124.9201 C   0  0  0  0  0  0  0  0  0  0  0  0
    6.4066   54.5843  124.5087 C   0  0  0  0  0  0  0  0  0  0  0  0
    5.4101   54.6612  125.4890 C   0  0  0  0  0  0  0  0  0  0  0  0
    4.0768   54.5983  125.2140 C   0  0  0  0  0  0  0  0  0  0  0  0
    3.7207   54.4488  123.8729 C   0  0  0  0  0  0  0  0  0  0  0  0
    4.6536   54.3692  122.8856 C   0  0  0  0  0  0  0  0  0  0  0  0
    6.0055   54.4375  123.2078 C   0  0  0  0  0  0  0  0  0  0  0  0
 19 20  1  0  0  0
 20 21  2  0  0  0
 21 22  1  0  0  0
 22 23  2  0  0  0
 23 24  1  0  0  0
 24 25  2  0  0  0
 23  7  1  0  0  0
  7  8  2  0  0  0
  8  1  1  0  0  0
  1  2  2  0  0  0
  2  3  1  0  0  0
  3  4  2  0  0  0
  4 27  1  0  0  0
 27 28  2  0  0  0
 28 29  1  0  0  0
 29 30  2  0  0  0
 29 31  1  0  0  0
 31 32  1  0  0  0
 32 33  1  0  0  0
 33 34  1  0  0  0
 34 37  1  0  0  0
 37 38  1  0  0  0
 38 39  2  0  0  0
 39 40  1  0  0  0
 40 41  2  0  0  0
 41 42  1  0  0  0
 42 43  2  0  0  0
 34 35  1  0  0  0
 35 36  1  0  0  0
  4  5  1  0  0  0
  5  6  2  0  0  0
  8  9  1  0  0  0
  9 10  2  0  0  0
 10 11  1  0  0  0
 11 12  2  0  0  0
 12 13  1  0  0  0
 12 14  1  0  0  0
 14 15  2  0  0  0
 15 16  1  0  0  0
 16 17  1  0  0  0
 17 18  1  0  0  0
 25 20  1  0  0  0
 18  7  1  0  0  0
  6  1  1  0  0  0
 15  9  1  0  0  0
 36 31  1  0  0  0
 43 38  1  0  0  0
 19 26  1  0  0  0
M  END
> <minimizedAffinity>
12.92099

> <CNNscore>
0.3877317905

> <CNNaffinity>
7.6678071022

> <CNN_VS>
2.9730525017

> <CNNaffinity_variance>
0.8609369993

$$$$
[H]Oc1c([H])c([H])c(C2=C(c3c([H])c([H])c(/C([H])=C(\[H])C(=O)N4C([H])([H])C([H])([H])N(C([H])([H])c5c([H])c([H])c([H])c([H])c5[H])C([H])([H])C4([H])[H])c([H])c3[H])c3c([H])c([H])c(F)c([H])c3OC([H])([H])C2([H])[H])c([H])c1[H]


 43 48  0  0  0  0  0  0  0  0999 V2000
    9.8864   44.5929  131.1685 C   0  0  0  0  0  0  0  0  0  0  0  0
    9.4857   44.8538  129.8511 C   0  0  0  0  0  0  0  0  0  0  0  0
    8.4718   45.7866  129.6068 C   0  0  0  0  0  0  0  0  0  0  0  0
    7.8390   46.4685  130.5859 C   0  0  0  0  0  0  0  0  0  0  0  0
    8.2492   46.1975  131.8996 C   0  0  0  0  0  0  0  0  0  0  0  0
    9.2381   45.2906  132.1707 C   0  0  0  0  0  0  0  0  0  0  0  0
   10.7178   42.5551  132.1927 C   0  0  0  0  0  0  0  0  0  0  0  0
   10.9000   43.5938  131.3949 C   0  0  0  0  0  0  0  0  0  0  0  0
   12.1693   43.8000  130.6447 C   0  0  0  0  0  0  0  0  0  0  0  0
   11.9596   44.5099  129.4558 C   0  0  0  0  0  0  0  0  0  0  0  0
   13.0396   44.7789  128.6507 C   0  0  0  0  0  0  0  0  0  0  0  0
   14.3039   44.3512  129.0176 C   0  0  0  0  0  0  0  0  0  0  0  0
   15.3795   44.6118  128.2289 F   0  0  0  0  0  0  0  0  0  0  0  0
   14.5358   43.6522  130.1790 C   0  0  0  0  0  0  0  0  0  0  0  0
   13.4319   43.3802  130.9970 C   0  0  0  0  0  0  0  0  0  0  0  0
   13.7832   42.6722  132.1344 O   0  0  0  0  0  0  0  0  0  0  0  0
   12.9836   42.0169  133.0554 C   0  0  0  0  0  0  0  0  0  0  0  0
   11.6892   41.4579  132.5286 C   0  0  0  0  0  0  0  0  0  0  0  0
    5.5940   42.0587  134.5149 O   0  0  0  0  0  0  0  0  0  0  0  0
    6.8736   42.1703  133.9744 C   0  0  0  0  0  0  0  0  0  0  0  0
    7.0942   42.9901  132.8814 C   0  0  0  0  0  0  0  0  0  0  0  0
    8.3628   43.0937  132.3553 C   0  0  0  0  0  0  0  0  0  0  0  0
    9.4608   42.4003  132.8784 C   0  0  0  0  0  0  0  0  0  0  0  0
    9.2337   41.6020  133.9458 C   0  0  0  0  0  0  0  0  0  0  0  0
    7.9531   41.4921  134.4838 C   0  0  0  0  0  0  0  0  0  0  0  0
    4.9141   41.3800  134.2276 H   0  0  0  0  0  0  0  0  0  0  0  0
    6.7898   47.4615  130.3945 C   0  0  0  0  0  0  0  0  0  0  0  0
    7.0174   48.7447  130.4012 C   0  0  0  0  0  0  0  0  0  0  0  0
    6.1207   49.8455  130.2330 C   0  0  0  0  0  0  0  0  0  0  0  0
    6.7020   51.0021  130.5688 O   0  0  0  0  0  0  0  0  0  0  0  0
    4.8239   49.9417  129.8073 N   0  0  0  0  0  0  0  0  0  0  0  0
    4.2538   51.3338  129.7070 C   0  0  0  0  0  0  0  0  0  0  0  0
    4.0204   51.5186  128.2321 C   0  0  0  0  0  0  0  0  0  0  0  0
    3.3924   50.4501  127.5491 N   0  0  0  0  0  0  0  0  0  0  0  0
    3.7097   49.1250  127.9125 C   0  0  0  0  0  0  0  0  0  0  0  0
    3.8788   48.9666  129.4344 C   0  0  0  0  0  0  0  0  0  0  0  0
    2.1042   50.7203  127.0241 C   0  0  0  0  0  0  0  0  0  0  0  0
    2.0696   52.0825  126.4337 C   0  0  0  0  0  0  0  0  0  0  0  0
    1.3050   53.0754  127.0578 C   0  0  0  0  0  0  0  0  0  0  0  0
    1.2066   54.3530  126.5936 C   0  0  0  0  0  0  0  0  0  0  0  0
    1.9188   54.6535  125.4317 C   0  0  0  0  0  0  0  0  0  0  0  0
    2.6749   53.7215  124.7902 C   0  0  0  0  0  0  0  0  0  0  0  0
    2.7494   52.4276  125.2964 C   0  0  0  0  0  0  0  0  0  0  0  0
 19 20  1  0  0  0
 20 21  2  0  0  0
 21 22  1  0  0  0
 22 23  2  0  0  0
 23 24  1  0  0  0
 24 25  2  0  0  0
 23  7  1  0  0  0
  7  8  2  0  0  0
  8  1  1  0  0  0
  1  2  2  0  0  0
  2  3  1  0  0  0
  3  4  2  0  0  0
  4 27  1  0  0  0
 27 28  2  0  0  0
 28 29  1  0  0  0
 29 30  2  0  0  0
 29 31  1  0  0  0
 31 32  1  0  0  0
 32 33  1  0  0  0
 33 34  1  0  0  0
 34 37  1  0  0  0
 37 38  1  0  0  0
 38 39  2  0  0  0
 39 40  1  0  0  0
 40 41  2  0  0  0
 41 42  1  0  0  0
 42 43  2  0  0  0
 34 35  1  0  0  0
 35 36  1  0  0  0
  4  5  1  0  0  0
  5  6  2  0  0  0
  8  9  1  0  0  0
  9 10  2  0  0  0
 10 11  1  0  0  0
 11 12  2  0  0  0
 12 13  1  0  0  0
 12 14  1  0  0  0
 14 15  2  0  0  0
 15 16  1  0  0  0
 16 17  1  0  0  0
 17 18  1  0  0  0
 25 20  1  0  0  0
 18  7  1  0  0  0
  6  1  1  0  0  0
 15  9  1  0  0  0
 36 31  1  0  0  0
 43 38  1  0  0  0
 19 26  1  0  0  0
M  END
> <minimizedAffinity>
41.99057

> <CNNscore>
0.3347297311

> <CNNaffinity>
7.2008438110

> <CNN_VS>
2.4103364944

> <CNNaffinity_variance>
1.0692495108

$$$$
[H]Oc1c([H])c([H])c(C2=C(c3c([H])c([H])c(/C([H])=C(\[H])C(=O)N4C([H])([H])C([H])([H])N(C([H])([H])c5c([H])c([H])c([H])c([H])c5[H])C([H])([H])C4([H])[H])c([H])c3[H])c3c([H])c([H])c(F)c([H])c3OC([H])([H])C2([H])[H])c([H])c1[H]


 43 48  0  0  0  0  0  0  0  0999 V2000
    9.0671   47.1881  131.0767 C   0  0  0  0  0  0  0  0  0  0  0  0
   10.0616   46.2005  131.0880 C   0  0  0  0  0  0  0  0  0  0  0  0
    9.7378   44.8867  130.7317 C   0  0  0  0  0  0  0  0  0  0  0  0
    8.4955   44.5009  130.3683 C   0  0  0  0  0  0  0  0  0  0  0  0
    7.5098   45.4988  130.3619 C   0  0  0  0  0  0  0  0  0  0  0  0
    7.7953   46.7928  130.7054 C   0  0  0  0  0  0  0  0  0  0  0  0
   10.3501   48.7705  132.3968 C   0  0  0  0  0  0  0  0  0  0  0  0
    9.4172   48.5226  131.4930 C   0  0  0  0  0  0  0  0  0  0  0  0
    8.6665   49.6140  130.8134 C   0  0  0  0  0  0  0  0  0  0  0  0
    8.2401   49.2321  129.5352 C   0  0  0  0  0  0  0  0  0  0  0  0
    7.5323   50.1355  128.7803 C   0  0  0  0  0  0  0  0  0  0  0  0
    7.2532   51.3944  129.2836 C   0  0  0  0  0  0  0  0  0  0  0  0
    6.5537   52.2961  128.5458 F   0  0  0  0  0  0  0  0  0  0  0  0
    7.6612   51.7936  130.5347 C   0  0  0  0  0  0  0  0  0  0  0  0
    8.3825   50.8693  131.3011 C   0  0  0  0  0  0  0  0  0  0  0  0
    8.7412   51.3792  132.5379 O   0  0  0  0  0  0  0  0  0  0  0  0
    9.6373   50.8917  133.4740 C   0  0  0  0  0  0  0  0  0  0  0  0
   10.7981   50.1027  132.9306 C   0  0  0  0  0  0  0  0  0  0  0  0
   13.3652   44.4558  134.4423 O   0  0  0  0  0  0  0  0  0  0  0  0
   12.6009   45.5207  133.9692 C   0  0  0  0  0  0  0  0  0  0  0  0
   12.5115   45.7576  132.6086 C   0  0  0  0  0  0  0  0  0  0  0  0
   11.7530   46.8124  132.1515 C   0  0  0  0  0  0  0  0  0  0  0  0
   11.0548   47.6728  133.0072 C   0  0  0  0  0  0  0  0  0  0  0  0
   11.1496   47.4322  134.3343 C   0  0  0  0  0  0  0  0  0  0  0  0
   11.9149   46.3670  134.8045 C   0  0  0  0  0  0  0  0  0  0  0  0
   14.3381   44.5163  134.6773 H   0  0  0  0  0  0  0  0  0  0  0  0
    8.1007   43.1554  129.9721 C   0  0  0  0  0  0  0  0  0  0  0  0
    8.9533   42.1815  129.8198 C   0  0  0  0  0  0  0  0  0  0  0  0
    8.7451   40.8190  129.4399 C   0  0  0  0  0  0  0  0  0  0  0  0
    7.7543   40.2632  130.1456 O   0  0  0  0  0  0  0  0  0  0  0  0
    9.3439   39.9997  128.5221 N   0  0  0  0  0  0  0  0  0  0  0  0
    8.7636   38.6152  128.3814 C   0  0  0  0  0  0  0  0  0  0  0  0
    8.1973   38.6055  126.9875 C   0  0  0  0  0  0  0  0  0  0  0  0
    9.0204   39.1309  125.9633 N   0  0  0  0  0  0  0  0  0  0  0  0
    9.8258   40.2545  126.2414 C   0  0  0  0  0  0  0  0  0  0  0  0
   10.4352   40.1947  127.6538 C   0  0  0  0  0  0  0  0  0  0  0  0
    9.4602   38.2058  124.9841 C   0  0  0  0  0  0  0  0  0  0  0  0
   10.9392   38.2575  124.8614 C   0  0  0  0  0  0  0  0  0  0  0  0
   11.7198   38.2322  126.0233 C   0  0  0  0  0  0  0  0  0  0  0  0
   13.0818   38.2778  126.0165 C   0  0  0  0  0  0  0  0  0  0  0  0
   13.6994   38.3536  124.7674 C   0  0  0  0  0  0  0  0  0  0  0  0
   12.9826   38.3811  123.6111 C   0  0  0  0  0  0  0  0  0  0  0  0
   11.5929   38.3327  123.6607 C   0  0  0  0  0  0  0  0  0  0  0  0
 19 20  1  0  0  0
 20 21  2  0  0  0
 21 22  1  0  0  0
 22 23  2  0  0  0
 23 24  1  0  0  0
 24 25  2  0  0  0
 23  7  1  0  0  0
  7  8  2  0  0  0
  8  1  1  0  0  0
  1  2  2  0  0  0
  2  3  1  0  0  0
  3  4  2  0  0  0
  4 27  1  0  0  0
 27 28  2  0  0  0
 28 29  1  0  0  0
 29 30  2  0  0  0
 29 31  1  0  0  0
 31 32  1  0  0  0
 32 33  1  0  0  0
 33 34  1  0  0  0
 34 37  1  0  0  0
 37 38  1  0  0  0
 38 39  2  0  0  0
 39 40  1  0  0  0
 40 41  2  0  0  0
 41 42  1  0  0  0
 42 43  2  0  0  0
 34 35  1  0  0  0
 35 36  1  0  0  0
  4  5  1  0  0  0
  5  6  2  0  0  0
  8  9  1  0  0  0
  9 10  2  0  0  0
 10 11  1  0  0  0
 11 12  2  0  0  0
 12 13  1  0  0  0
 12 14  1  0  0  0
 14 15  2  0  0  0
 15 16  1  0  0  0
 16 17  1  0  0  0
 17 18  1  0  0  0
 25 20  1  0  0  0
 18  7  1  0  0  0
  6  1  1  0  0  0
 15  9  1  0  0  0
 36 31  1  0  0  0
 43 38  1  0  0  0
 19 26  1  0  0  0
M  END
> <minimizedAffinity>
55.58689

> <CNNscore>
0.2810473442

> <CNNaffinity>
7.2858786583

> <CNN_VS>
2.0476768017

> <CNNaffinity_variance>
0.8638717532

$$$$
[H]Oc1c([H])c([H])c(C2=C(c3c([H])c([H])c(/C([H])=C(\[H])C(=O)N4C([H])([H])C([H])([H])N(C([H])([H])c5c([H])c([H])c([H])c([H])c5[H])C([H])([H])C4([H])[H])c([H])c3[H])c3c([H])c([H])c(F)c([H])c3OC([H])([H])C2([H])[H])c([H])c1[H]


 43 48  0  0  0  0  0  0  0  0999 V2000
   10.5262   46.5712  131.6524 C   0  0  0  0  0  0  0  0  0  0  0  0
   10.8535   47.3663  130.5456 C   0  0  0  0  0  0  0  0  0  0  0  0
    9.9864   48.3893  130.1464 C   0  0  0  0  0  0  0  0  0  0  0  0
    8.8243   48.6655  130.7767 C   0  0  0  0  0  0  0  0  0  0  0  0
    8.5085   47.8619  131.8822 C   0  0  0  0  0  0  0  0  0  0  0  0
    9.3361   46.8535  132.2971 C   0  0  0  0  0  0  0  0  0  0  0  0
   11.4425   44.3414  131.3675 C   0  0  0  0  0  0  0  0  0  0  0  0
   11.4137   45.4948  132.0135 C   0  0  0  0  0  0  0  0  0  0  0  0
   12.3204   45.7807  133.1592 C   0  0  0  0  0  0  0  0  0  0  0  0
   12.5908   47.1498  133.2774 C   0  0  0  0  0  0  0  0  0  0  0  0
   13.4163   47.5725  134.2907 C   0  0  0  0  0  0  0  0  0  0  0  0
   13.9639   46.6544  135.1700 C   0  0  0  0  0  0  0  0  0  0  0  0
   14.7817   47.0612  136.1763 F   0  0  0  0  0  0  0  0  0  0  0  0
   13.7145   45.3053  135.0749 C   0  0  0  0  0  0  0  0  0  0  0  0
   12.8722   44.8786  134.0402 C   0  0  0  0  0  0  0  0  0  0  0  0
   12.6945   43.5051  134.0408 O   0  0  0  0  0  0  0  0  0  0  0  0
   12.1464   42.6797  133.0736 C   0  0  0  0  0  0  0  0  0  0  0  0
   12.2994   43.1384  131.6483 C   0  0  0  0  0  0  0  0  0  0  0  0
    8.2940   43.5468  126.7471 O   0  0  0  0  0  0  0  0  0  0  0  0
    9.0401   43.7385  127.9083 C   0  0  0  0  0  0  0  0  0  0  0  0
   10.2433   44.4203  127.8532 C   0  0  0  0  0  0  0  0  0  0  0  0
   10.9726   44.6048  129.0069 C   0  0  0  0  0  0  0  0  0  0  0  0
   10.5524   44.1300  130.2551 C   0  0  0  0  0  0  0  0  0  0  0  0
    9.3760   43.4650  130.2970 C   0  0  0  0  0  0  0  0  0  0  0  0
    8.6322   43.2745  129.1343 C   0  0  0  0  0  0  0  0  0  0  0  0
    8.3876   42.7568  126.1367 H   0  0  0  0  0  0  0  0  0  0  0  0
    7.8896   49.7248  130.4196 C   0  0  0  0  0  0  0  0  0  0  0  0
    8.1130   50.5731  129.4557 C   0  0  0  0  0  0  0  0  0  0  0  0
    7.3183   51.6605  128.9760 C   0  0  0  0  0  0  0  0  0  0  0  0
    6.7632   52.3397  129.9854 O   0  0  0  0  0  0  0  0  0  0  0  0
    7.0260   52.1269  127.7233 N   0  0  0  0  0  0  0  0  0  0  0  0
    6.1833   53.3752  127.6535 C   0  0  0  0  0  0  0  0  0  0  0  0
    7.1120   54.4002  127.0614 C   0  0  0  0  0  0  0  0  0  0  0  0
    7.8680   53.9976  125.9349 N   0  0  0  0  0  0  0  0  0  0  0  0
    8.3678   52.6801  125.8814 C   0  0  0  0  0  0  0  0  0  0  0  0
    7.3625   51.6564  126.4394 C   0  0  0  0  0  0  0  0  0  0  0  0
    7.5713   54.6613  124.7185 C   0  0  0  0  0  0  0  0  0  0  0  0
    6.1325   54.5009  124.3878 C   0  0  0  0  0  0  0  0  0  0  0  0
    5.1794   54.6615  125.4006 C   0  0  0  0  0  0  0  0  0  0  0  0
    3.8377   54.5325  125.1993 C   0  0  0  0  0  0  0  0  0  0  0  0
    3.4262   54.2233  123.9022 C   0  0  0  0  0  0  0  0  0  0  0  0
    4.3156   54.0576  122.8857 C   0  0  0  0  0  0  0  0  0  0  0  0
    5.6778   54.1977  123.1324 C   0  0  0  0  0  0  0  0  0  0  0  0
 19 20  1  0  0  0
 20 21  2  0  0  0
 21 22  1  0  0  0
 22 23  2  0  0  0
 23 24  1  0  0  0
 24 25  2  0  0  0
 23  7  1  0  0  0
  7  8  2  0  0  0
  8  1  1  0  0  0
  1  2  2  0  0  0
  2  3  1  0  0  0
  3  4  2  0  0  0
  4 27  1  0  0  0
 27 28  2  0  0  0
 28 29  1  0  0  0
 29 30  2  0  0  0
 29 31  1  0  0  0
 31 32  1  0  0  0
 32 33  1  0  0  0
 33 34  1  0  0  0
 34 37  1  0  0  0
 37 38  1  0  0  0
 38 39  2  0  0  0
 39 40  1  0  0  0
 40 41  2  0  0  0
 41 42  1  0  0  0
 42 43  2  0  0  0
 34 35  1  0  0  0
 35 36  1  0  0  0
  4  5  1  0  0  0
  5  6  2  0  0  0
  8  9  1  0  0  0
  9 10  2  0  0  0
 10 11  1  0  0  0
 11 12  2  0  0  0
 12 13  1  0  0  0
 12 14  1  0  0  0
 14 15  2  0  0  0
 15 16  1  0  0  0
 16 17  1  0  0  0
 17 18  1  0  0  0
 25 20  1  0  0  0
 18  7  1  0  0  0
  6  1  1  0  0  0
 15  9  1  0  0  0
 36 31  1  0  0  0
 43 38  1  0  0  0
 19 26  1  0  0  0
M  END
> <minimizedAffinity>
20.13477

> <CNNscore>
0.2610020936

> <CNNaffinity>
7.3831992149

> <CNN_VS>
1.9270304441

> <CNNaffinity_variance>
0.8504413366

$$$$
[H]Oc1c([H])c([H])c(C2=C(c3c([H])c([H])c(/C([H])=C(\[H])C(=O)N4C([H])([H])C([H])([H])N(C([H])([H])c5c([H])c([H])c([H])c([H])c5[H])C([H])([H])C4([H])[H])c([H])c3[H])c3c([H])c([H])c(F)c([H])c3OC([H])([H])C2([H])[H])c([H])c1[H]


 43 48  0  0  0  0  0  0  0  0999 V2000
   11.6132   45.4899  132.9390 C   0  0  0  0  0  0  0  0  0  0  0  0
   11.0760   45.6688  131.6570 C   0  0  0  0  0  0  0  0  0  0  0  0
   11.7471   45.1477  130.5453 C   0  0  0  0  0  0  0  0  0  0  0  0
   12.9097   44.4658  130.6326 C   0  0  0  0  0  0  0  0  0  0  0  0
   13.4366   44.2945  131.9212 C   0  0  0  0  0  0  0  0  0  0  0  0
   12.8037   44.7924  133.0281 C   0  0  0  0  0  0  0  0  0  0  0  0
    9.6940   45.7408  134.4041 C   0  0  0  0  0  0  0  0  0  0  0  0
   10.9262   46.0770  134.0616 C   0  0  0  0  0  0  0  0  0  0  0  0
   11.7135   47.0798  134.8303 C   0  0  0  0  0  0  0  0  0  0  0  0
   13.0902   46.8403  134.7371 C   0  0  0  0  0  0  0  0  0  0  0  0
   13.9510   47.6838  135.3963 C   0  0  0  0  0  0  0  0  0  0  0  0
   13.4556   48.7448  136.1344 C   0  0  0  0  0  0  0  0  0  0  0  0
   14.2978   49.5857  136.7903 F   0  0  0  0  0  0  0  0  0  0  0  0
   12.1087   49.0008  136.2419 C   0  0  0  0  0  0  0  0  0  0  0  0
   11.2345   48.1383  135.5682 C   0  0  0  0  0  0  0  0  0  0  0  0
    9.9072   48.4905  135.7485 O   0  0  0  0  0  0  0  0  0  0  0  0
    8.7530   47.7825  135.4593 C   0  0  0  0  0  0  0  0  0  0  0  0
    8.8608   46.2831  135.5320 C   0  0  0  0  0  0  0  0  0  0  0  0
    6.9846   42.1111  131.0312 O   0  0  0  0  0  0  0  0  0  0  0  0
    7.6484   42.9829  131.8922 C   0  0  0  0  0  0  0  0  0  0  0  0
    7.7231   44.3313  131.5894 C   0  0  0  0  0  0  0  0  0  0  0  0
    8.3810   45.1844  132.4473 C   0  0  0  0  0  0  0  0  0  0  0  0
    8.9890   44.7507  133.6315 C   0  0  0  0  0  0  0  0  0  0  0  0
    8.9103   43.4315  133.9170 C   0  0  0  0  0  0  0  0  0  0  0  0
    8.2462   42.5621  133.0542 C   0  0  0  0  0  0  0  0  0  0  0  0
    7.4198   41.6250  130.2698 H   0  0  0  0  0  0  0  0  0  0  0  0
   13.6460   43.8865  129.5165 C   0  0  0  0  0  0  0  0  0  0  0  0
   13.1874   43.8686  128.2967 C   0  0  0  0  0  0  0  0  0  0  0  0
   13.7657   43.3483  127.0971 C   0  0  0  0  0  0  0  0  0  0  0  0
   15.0493   43.7054  126.9813 O   0  0  0  0  0  0  0  0  0  0  0  0
   13.2758   42.5789  126.0773 N   0  0  0  0  0  0  0  0  0  0  0  0
   14.2598   42.1814  125.0063 C   0  0  0  0  0  0  0  0  0  0  0  0
   14.3637   40.6877  125.1535 C   0  0  0  0  0  0  0  0  0  0  0  0
   13.1480   39.9764  125.2913 N   0  0  0  0  0  0  0  0  0  0  0  0
   12.1009   40.5497  126.0418 C   0  0  0  0  0  0  0  0  0  0  0  0
   11.9899   42.0683  125.8148 C   0  0  0  0  0  0  0  0  0  0  0  0
   12.8201   39.0959  124.2305 C   0  0  0  0  0  0  0  0  0  0  0  0
   11.3505   38.8895  124.1749 C   0  0  0  0  0  0  0  0  0  0  0  0
   10.6477   38.6757  125.3666 C   0  0  0  0  0  0  0  0  0  0  0  0
    9.3010   38.4740  125.4208 C   0  0  0  0  0  0  0  0  0  0  0  0
    8.6166   38.4873  124.2046 C   0  0  0  0  0  0  0  0  0  0  0  0
    9.2568   38.6908  123.0213 C   0  0  0  0  0  0  0  0  0  0  0  0
   10.6334   38.8930  123.0085 C   0  0  0  0  0  0  0  0  0  0  0  0
 19 20  1  0  0  0
 20 21  2  0  0  0
 21 22  1  0  0  0
 22 23  2  0  0  0
 23 24  1  0  0  0
 24 25  2  0  0  0
 23  7  1  0  0  0
  7  8  2  0  0  0
  8  1  1  0  0  0
  1  2  2  0  0  0
  2  3  1  0  0  0
  3  4  2  0  0  0
  4 27  1  0  0  0
 27 28  2  0  0  0
 28 29  1  0  0  0
 29 30  2  0  0  0
 29 31  1  0  0  0
 31 32  1  0  0  0
 32 33  1  0  0  0
 33 34  1  0  0  0
 34 37  1  0  0  0
 37 38  1  0  0  0
 38 39  2  0  0  0
 39 40  1  0  0  0
 40 41  2  0  0  0
 41 42  1  0  0  0
 42 43  2  0  0  0
 34 35  1  0  0  0
 35 36  1  0  0  0
  4  5  1  0  0  0
  5  6  2  0  0  0
  8  9  1  0  0  0
  9 10  2  0  0  0
 10 11  1  0  0  0
 11 12  2  0  0  0
 12 13  1  0  0  0
 12 14  1  0  0  0
 14 15  2  0  0  0
 15 16  1  0  0  0
 16 17  1  0  0  0
 17 18  1  0  0  0
 25 20  1  0  0  0
 18  7  1  0  0  0
  6  1  1  0  0  0
 15  9  1  0  0  0
 36 31  1  0  0  0
 43 38  1  0  0  0
 19 26  1  0  0  0
M  END
> <minimizedAffinity>
59.06650

> <CNNscore>
0.2591311634

> <CNNaffinity>
7.0228447914

> <CNN_VS>
1.8198379278

> <CNNaffinity_variance>
0.6625977755

$$$$
[H]Oc1c([H])c([H])c(C2=C(c3c([H])c([H])c(/C([H])=C(\[H])C(=O)N4C([H])([H])C([H])([H])N(C([H])([H])c5c([H])c([H])c([H])c([H])c5[H])C([H])([H])C4([H])[H])c([H])c3[H])c3c([H])c([H])c(F)c([H])c3OC([H])([H])C2([H])[H])c([H])c1[H]


 43 48  0  0  0  0  0  0  0  0999 V2000
    8.4937   46.4711  130.5164 C   0  0  0  0  0  0  0  0  0  0  0  0
    8.1950   47.6967  131.1272 C   0  0  0  0  0  0  0  0  0  0  0  0
    7.1586   48.4889  130.6213 C   0  0  0  0  0  0  0  0  0  0  0  0
    6.4089   48.1376  129.5541 C   0  0  0  0  0  0  0  0  0  0  0  0
    6.7187   46.9091  128.9520 C   0  0  0  0  0  0  0  0  0  0  0  0
    7.7266   46.1119  129.4236 C   0  0  0  0  0  0  0  0  0  0  0  0
    9.9230   45.6748  132.3096 C   0  0  0  0  0  0  0  0  0  0  0  0
    9.5961   45.6971  131.0285 C   0  0  0  0  0  0  0  0  0  0  0  0
   10.3342   44.8988  130.0115 C   0  0  0  0  0  0  0  0  0  0  0  0
    9.5159   44.5551  128.9282 C   0  0  0  0  0  0  0  0  0  0  0  0
   10.0555   43.8148  127.9046 C   0  0  0  0  0  0  0  0  0  0  0  0
   11.3819   43.4223  127.9548 C   0  0  0  0  0  0  0  0  0  0  0  0
   11.9263   42.6899  126.9478 F   0  0  0  0  0  0  0  0  0  0  0  0
   12.2057   43.7463  129.0072 C   0  0  0  0  0  0  0  0  0  0  0  0
   11.6514   44.5013  130.0487 C   0  0  0  0  0  0  0  0  0  0  0  0
   12.5695   44.7657  131.0514 O   0  0  0  0  0  0  0  0  0  0  0  0
   12.3717   45.2613  132.3291 C   0  0  0  0  0  0  0  0  0  0  0  0
   11.0505   44.9308  132.9697 C   0  0  0  0  0  0  0  0  0  0  0  0
    7.2549   48.6875  136.2716 O   0  0  0  0  0  0  0  0  0  0  0  0
    7.8845   47.9502  135.2706 C   0  0  0  0  0  0  0  0  0  0  0  0
    8.8450   47.0109  135.6031 C   0  0  0  0  0  0  0  0  0  0  0  0
    9.4607   46.2872  134.6061 C   0  0  0  0  0  0  0  0  0  0  0  0
    9.1598   46.4552  133.2492 C   0  0  0  0  0  0  0  0  0  0  0  0
    8.2204   47.3758  132.9359 C   0  0  0  0  0  0  0  0  0  0  0  0
    7.5929   48.1118  133.9389 C   0  0  0  0  0  0  0  0  0  0  0  0
    7.5856   49.5671  136.6214 H   0  0  0  0  0  0  0  0  0  0  0  0
    5.3086   48.9099  128.9917 C   0  0  0  0  0  0  0  0  0  0  0  0
    4.0792   48.8022  129.4105 C   0  0  0  0  0  0  0  0  0  0  0  0
    2.8916   49.4713  128.9791 C   0  0  0  0  0  0  0  0  0  0  0  0
    1.8897   49.2920  129.8466 O   0  0  0  0  0  0  0  0  0  0  0  0
    2.5915   50.2366  127.8852 N   0  0  0  0  0  0  0  0  0  0  0  0
    1.2054   50.8282  127.8420 C   0  0  0  0  0  0  0  0  0  0  0  0
    1.4462   52.3098  127.9456 C   0  0  0  0  0  0  0  0  0  0  0  0
    2.4665   52.8468  127.1251 N   0  0  0  0  0  0  0  0  0  0  0  0
    3.6396   52.0943  126.9108 C   0  0  0  0  0  0  0  0  0  0  0  0
    3.3425   50.5925  126.7483 C   0  0  0  0  0  0  0  0  0  0  0  0
    2.0423   53.7457  126.1150 C   0  0  0  0  0  0  0  0  0  0  0  0
    3.1685   54.0477  125.1952 C   0  0  0  0  0  0  0  0  0  0  0  0
    2.9555   53.9794  123.8133 C   0  0  0  0  0  0  0  0  0  0  0  0
    3.9235   54.2354  122.8887 C   0  0  0  0  0  0  0  0  0  0  0  0
    5.1830   54.5810  123.3803 C   0  0  0  0  0  0  0  0  0  0  0  0
    5.4374   54.6598  124.7148 C   0  0  0  0  0  0  0  0  0  0  0  0
    4.4217   54.3908  125.6269 C   0  0  0  0  0  0  0  0  0  0  0  0
 19 20  1  0  0  0
 20 21  2  0  0  0
 21 22  1  0  0  0
 22 23  2  0  0  0
 23 24  1  0  0  0
 24 25  2  0  0  0
 23  7  1  0  0  0
  7  8  2  0  0  0
  8  1  1  0  0  0
  1  2  2  0  0  0
  2  3  1  0  0  0
  3  4  2  0  0  0
  4 27  1  0  0  0
 27 28  2  0  0  0
 28 29  1  0  0  0
 29 30  2  0  0  0
 29 31  1  0  0  0
 31 32  1  0  0  0
 32 33  1  0  0  0
 33 34  1  0  0  0
 34 37  1  0  0  0
 37 38  1  0  0  0
 38 39  2  0  0  0
 39 40  1  0  0  0
 40 41  2  0  0  0
 41 42  1  0  0  0
 42 43  2  0  0  0
 34 35  1  0  0  0
 35 36  1  0  0  0
  4  5  1  0  0  0
  5  6  2  0  0  0
  8  9  1  0  0  0
  9 10  2  0  0  0
 10 11  1  0  0  0
 11 12  2  0  0  0
 12 13  1  0  0  0
 12 14  1  0  0  0
 14 15  2  0  0  0
 15 16  1  0  0  0
 16 17  1  0  0  0
 17 18  1  0  0  0
 25 20  1  0  0  0
 18  7  1  0  0  0
  6  1  1  0  0  0
 15  9  1  0  0  0
 36 31  1  0  0  0
 43 38  1  0  0  0
 19 26  1  0  0  0
M  END
> <minimizedAffinity>
32.20069

> <CNNscore>
0.2578368783

> <CNNaffinity>
7.0255446434

> <CNN_VS>
1.8114445210

> <CNNaffinity_variance>
0.6951681972

$$$$
[H]Oc1c([H])c([H])c(C2=C(c3c([H])c([H])c(/C([H])=C(\[H])C(=O)N4C([H])([H])C([H])([H])N(C([H])([H])c5c([H])c([H])c([H])c([H])c5[H])C([H])([H])C4([H])[H])c([H])c3[H])c3c([H])c([H])c(F)c([H])c3OC([H])([H])C2([H])[H])c([H])c1[H]


 43 48  0  0  0  0  0  0  0  0999 V2000
    9.7934   45.0476  131.6847 C   0  0  0  0  0  0  0  0  0  0  0  0
   10.0397   45.4458  130.3637 C   0  0  0  0  0  0  0  0  0  0  0  0
    9.2327   46.4242  129.7727 C   0  0  0  0  0  0  0  0  0  0  0  0
    8.2052   47.0242  130.4118 C   0  0  0  0  0  0  0  0  0  0  0  0
    7.9692   46.6160  131.7329 C   0  0  0  0  0  0  0  0  0  0  0  0
    8.7410   45.6613  132.3385 C   0  0  0  0  0  0  0  0  0  0  0  0
   11.4620   44.2195  133.2412 C   0  0  0  0  0  0  0  0  0  0  0  0
   10.6097   44.0049  132.2532 C   0  0  0  0  0  0  0  0  0  0  0  0
   10.4097   42.6529  131.6628 C   0  0  0  0  0  0  0  0  0  0  0  0
    9.1186   42.5004  131.1419 C   0  0  0  0  0  0  0  0  0  0  0  0
    8.7803   41.3020  130.5619 C   0  0  0  0  0  0  0  0  0  0  0  0
    9.7050   40.2739  130.5002 C   0  0  0  0  0  0  0  0  0  0  0  0
    9.3814   39.0842  129.9286 F   0  0  0  0  0  0  0  0  0  0  0  0
   10.9783   40.3984  131.0047 C   0  0  0  0  0  0  0  0  0  0  0  0
   11.3191   41.6220  131.5951 C   0  0  0  0  0  0  0  0  0  0  0  0
   12.6209   41.6321  132.0680 O   0  0  0  0  0  0  0  0  0  0  0  0
   13.2552   42.5345  132.9049 C   0  0  0  0  0  0  0  0  0  0  0  0
   12.3793   43.2335  133.9097 C   0  0  0  0  0  0  0  0  0  0  0  0
   11.5892   49.3971  135.4923 O   0  0  0  0  0  0  0  0  0  0  0  0
   11.5940   48.1232  134.9275 C   0  0  0  0  0  0  0  0  0  0  0  0
   10.4076   47.5485  134.5060 C   0  0  0  0  0  0  0  0  0  0  0  0
   10.4236   46.2892  133.9486 C   0  0  0  0  0  0  0  0  0  0  0  0
   11.5989   45.5468  133.7831 C   0  0  0  0  0  0  0  0  0  0  0  0
   12.7519   46.1178  134.1988 C   0  0  0  0  0  0  0  0  0  0  0  0
   12.7440   47.3915  134.7635 C   0  0  0  0  0  0  0  0  0  0  0  0
   11.4819   49.5829  136.4718 H   0  0  0  0  0  0  0  0  0  0  0  0
    7.3413   48.0582  129.8571 C   0  0  0  0  0  0  0  0  0  0  0  0
    7.6771   49.3169  129.8164 C   0  0  0  0  0  0  0  0  0  0  0  0
    6.9632   50.4503  129.3164 C   0  0  0  0  0  0  0  0  0  0  0  0
    7.7830   51.3078  128.6990 O   0  0  0  0  0  0  0  0  0  0  0  0
    5.6449   50.8155  129.3455 N   0  0  0  0  0  0  0  0  0  0  0  0
    5.2868   52.0887  128.6217 C   0  0  0  0  0  0  0  0  0  0  0  0
    4.4133   51.6220  127.4891 C   0  0  0  0  0  0  0  0  0  0  0  0
    3.4010   50.6868  127.8109 N   0  0  0  0  0  0  0  0  0  0  0  0
    3.6715   49.6878  128.7686 C   0  0  0  0  0  0  0  0  0  0  0  0
    4.5148   50.2223  129.9404 C   0  0  0  0  0  0  0  0  0  0  0  0
    2.0667   51.1396  127.6602 C   0  0  0  0  0  0  0  0  0  0  0  0
    2.0220   52.2932  126.7261 C   0  0  0  0  0  0  0  0  0  0  0  0
    1.5899   53.5372  127.2012 C   0  0  0  0  0  0  0  0  0  0  0  0
    1.5111   54.6540  126.4241 C   0  0  0  0  0  0  0  0  0  0  0  0
    1.8886   54.5147  125.0878 C   0  0  0  0  0  0  0  0  0  0  0  0
    2.3146   53.3259  124.5809 C   0  0  0  0  0  0  0  0  0  0  0  0
    2.3809   52.2086  125.4075 C   0  0  0  0  0  0  0  0  0  0  0  0
 19 20  1  0  0  0
 20 21  2  0  0  0
 21 22  1  0  0  0
 22 23  2  0  0  0
 23 24  1  0  0  0
 24 25  2  0  0  0
 23  7  1  0  0  0
  7  8  2  0  0  0
  8  1  1  0  0  0
  1  2  2  0  0  0
  2  3  1  0  0  0
  3  4  2  0  0  0
  4 27  1  0  0  0
 27 28  2  0  0  0
 28 29  1  0  0  0
 29 30  2  0  0  0
 29 31  1  0  0  0
 31 32  1  0  0  0
 32 33  1  0  0  0
 33 34  1  0  0  0
 34 37  1  0  0  0
 37 38  1  0  0  0
 38 39  2  0  0  0
 39 40  1  0  0  0
 40 41  2  0  0  0
 41 42  1  0  0  0
 42 43  2  0  0  0
 34 35  1  0  0  0
 35 36  1  0  0  0
  4  5  1  0  0  0
  5  6  2  0  0  0
  8  9  1  0  0  0
  9 10  2  0  0  0
 10 11  1  0  0  0
 11 12  2  0  0  0
 12 13  1  0  0  0
 12 14  1  0  0  0
 14 15  2  0  0  0
 15 16  1  0  0  0
 16 17  1  0  0  0
 17 18  1  0  0  0
 25 20  1  0  0  0
 18  7  1  0  0  0
  6  1  1  0  0  0
 15  9  1  0  0  0
 36 31  1  0  0  0
 43 38  1  0  0  0
 19 26  1  0  0  0
M  END
> <minimizedAffinity>
39.52409

> <CNNscore>
0.2296089530

> <CNNaffinity>
7.4033341408

> <CNN_VS>
1.6998717785

> <CNNaffinity_variance>
1.2189528942

$$$$
[H]Oc1c([H])c([H])c2c(c1[H])C([H])([H])C([H])([H])C([H])([H])C(c1c([H])c([H])c(OC([H])([H])C([H])([H])[H])c([H])c1F)=C2c1c([H])c([H])c(O[C@]2([H])C([H])([H])N(C([H])([H])C([H])([H])C([H])([H])F)C([H])([H])C2([H])[H])c([H])c1[H]


 39 43  0  0  0  0  0  0  0  0999 V2000
    9.0624   46.7513  133.6922 C   0  0  0  0  0  0  0  0  0  0  0  0
    9.9668   45.8318  133.6652 C   0  0  0  0  0  0  0  0  0  0  0  0
   10.4512   45.0014  134.8161 C   0  0  0  0  0  0  0  0  0  0  0  0
   10.9241   43.7847  134.4181 C   0  0  0  0  0  0  0  0  0  0  0  0
   11.4223   42.9516  135.4031 C   0  0  0  0  0  0  0  0  0  0  0  0
   11.4383   43.3291  136.7130 C   0  0  0  0  0  0  0  0  0  0  0  0
   11.9558   42.4439  137.6688 O   0  0  0  0  0  0  0  0  0  0  0  0
   10.9481   44.5809  137.1172 C   0  0  0  0  0  0  0  0  0  0  0  0
   10.4600   45.3951  136.1464 C   0  0  0  0  0  0  0  0  0  0  0  0
    9.8924   46.6701  136.7034 C   0  0  0  0  0  0  0  0  0  0  0  0
    8.4644   46.7012  136.1663 C   0  0  0  0  0  0  0  0  0  0  0  0
    8.2654   47.3223  134.8710 C   0  0  0  0  0  0  0  0  0  0  0  0
   11.9572   42.7441  138.6231 H   0  0  0  0  0  0  0  0  0  0  0  0
    8.3681   48.9729  130.1081 C   0  0  0  0  0  0  0  0  0  0  0  0
    9.0530   49.4806  131.1909 C   0  0  0  0  0  0  0  0  0  0  0  0
    9.2152   48.7274  132.3186 C   0  0  0  0  0  0  0  0  0  0  0  0
    8.7098   47.4176  132.4528 C   0  0  0  0  0  0  0  0  0  0  0  0
    8.0441   46.9366  131.3816 C   0  0  0  0  0  0  0  0  0  0  0  0
    7.5767   45.6932  131.3274 F   0  0  0  0  0  0  0  0  0  0  0  0
    7.8758   47.7122  130.2211 C   0  0  0  0  0  0  0  0  0  0  0  0
    8.2117   49.7561  128.9653 O   0  0  0  0  0  0  0  0  0  0  0  0
    7.0161   51.8367  128.6355 C   0  0  0  0  0  0  0  0  0  0  0  0
    6.9951   50.3316  128.6074 C   0  0  0  0  0  0  0  0  0  0  0  0
   10.6287   45.4545  132.4368 C   0  0  0  0  0  0  0  0  0  0  0  0
   10.4038   44.1238  132.0032 C   0  0  0  0  0  0  0  0  0  0  0  0
   10.8986   43.6284  130.8401 C   0  0  0  0  0  0  0  0  0  0  0  0
   11.6696   44.4690  130.0249 C   0  0  0  0  0  0  0  0  0  0  0  0
   11.8877   45.7631  130.4473 C   0  0  0  0  0  0  0  0  0  0  0  0
   11.3777   46.2512  131.6315 C   0  0  0  0  0  0  0  0  0  0  0  0
   12.1398   43.9219  128.8699 O   0  0  0  0  0  0  0  0  0  0  0  0
   11.3825   43.6609  127.7360 C   0  0  0  0  0  0  0  0  0  0  0  0
   10.1637   42.8756  128.1348 C   0  0  0  0  0  0  0  0  0  0  0  0
    9.0282   43.8924  127.9702 C   0  0  0  0  0  0  0  0  0  0  0  0
    9.6861   45.1279  128.1322 N   0  0  0  0  0  0  0  0  0  0  0  0
   10.8069   44.9845  127.1868 C   0  0  0  0  0  0  0  0  0  0  0  0
    8.9630   46.3092  127.9217 C   0  0  0  0  0  0  0  0  0  0  0  0
    9.3445   47.1554  126.7839 C   0  0  0  0  0  0  0  0  0  0  0  0
   10.0145   46.5612  125.6157 C   0  0  0  0  0  0  0  0  0  0  0  0
    9.9857   47.5663  124.6039 F   0  0  0  0  0  0  0  0  0  0  0  0
 22 23  1  0  0  0
 23 21  1  0  0  0
 21 14  1  0  0  0
 14 15  2  0  0  0
 15 16  1  0  0  0
 16 17  2  0  0  0
 17 18  1  0  0  0
 18 19  1  0  0  0
 18 20  2  0  0  0
 17  1  1  0  0  0
  1  2  2  0  0  0
  2 24  1  0  0  0
 24 25  2  0  0  0
 25 26  1  0  0  0
 26 27  2  0  0  0
 27 30  1  0  0  0
 30 31  1  0  0  0
 31 32  1  0  0  0
 32 33  1  0  0  0
 33 34  1  0  0  0
 34 36  1  0  0  0
 36 37  1  0  0  0
 37 38  1  0  0  0
 38 39  1  0  0  0
 34 35  1  0  0  0
 27 28  1  0  0  0
 28 29  2  0  0  0
  2  3  1  0  0  0
  3  4  2  0  0  0
  4  5  1  0  0  0
  5  6  2  0  0  0
  6  7  1  0  0  0
  6  8  1  0  0  0
  8  9  2  0  0  0
  9 10  1  0  0  0
 10 11  1  0  0  0
 11 12  1  0  0  0
 20 14  1  0  0  0
 12  1  1  0  0  0
 29 24  1  0  0  0
  9  3  1  0  0  0
 35 31  1  0  0  0
  7 13  1  0  0  0
M  END
> <minimizedAffinity>
15.49778

> <CNNscore>
0.4500405788

> <CNNaffinity>
8.0572080612

> <CNN_VS>
3.6260704994

> <CNNaffinity_variance>
0.6081067920

$$$$
[H]Oc1c([H])c([H])c2c(c1[H])C([H])([H])C([H])([H])C([H])([H])C(c1c([H])c([H])c(OC([H])([H])C([H])([H])[H])c([H])c1F)=C2c1c([H])c([H])c(O[C@]2([H])C([H])([H])N(C([H])([H])C([H])([H])C([H])([H])F)C([H])([H])C2([H])[H])c([H])c1[H]


 39 43  0  0  0  0  0  0  0  0999 V2000
   10.7997   44.9493  131.8781 C   0  0  0  0  0  0  0  0  0  0  0  0
   10.5198   45.0821  130.6258 C   0  0  0  0  0  0  0  0  0  0  0  0
   11.2722   44.5090  129.4621 C   0  0  0  0  0  0  0  0  0  0  0  0
   10.4728   44.3028  128.3754 C   0  0  0  0  0  0  0  0  0  0  0  0
   11.0773   43.8021  127.2369 C   0  0  0  0  0  0  0  0  0  0  0  0
   12.4118   43.5255  127.2031 C   0  0  0  0  0  0  0  0  0  0  0  0
   12.9711   43.0200  126.0214 O   0  0  0  0  0  0  0  0  0  0  0  0
   13.2290   43.7370  128.3248 C   0  0  0  0  0  0  0  0  0  0  0  0
   12.6308   44.2286  129.4401 C   0  0  0  0  0  0  0  0  0  0  0  0
   13.5833   44.3388  130.5970 C   0  0  0  0  0  0  0  0  0  0  0  0
   12.9092   43.5347  131.7049 C   0  0  0  0  0  0  0  0  0  0  0  0
   11.9808   44.2487  132.5600 C   0  0  0  0  0  0  0  0  0  0  0  0
   13.9525   42.8256  126.0213 H   0  0  0  0  0  0  0  0  0  0  0  0
    8.2780   47.1195  134.5605 C   0  0  0  0  0  0  0  0  0  0  0  0
    9.3104   47.7012  133.8566 C   0  0  0  0  0  0  0  0  0  0  0  0
   10.0980   46.9443  133.0368 C   0  0  0  0  0  0  0  0  0  0  0  0
    9.9181   45.5571  132.8568 C   0  0  0  0  0  0  0  0  0  0  0  0
    8.9012   45.0057  133.5522 C   0  0  0  0  0  0  0  0  0  0  0  0
    8.5589   43.7270  133.4285 F   0  0  0  0  0  0  0  0  0  0  0  0
    8.0910   45.7843  134.3972 C   0  0  0  0  0  0  0  0  0  0  0  0
    7.4845   47.9074  135.3930 O   0  0  0  0  0  0  0  0  0  0  0  0
    9.2749   47.8377  137.0230 C   0  0  0  0  0  0  0  0  0  0  0  0
    7.9143   48.3558  136.6394 C   0  0  0  0  0  0  0  0  0  0  0  0
    9.3562   45.8160  130.1822 C   0  0  0  0  0  0  0  0  0  0  0  0
    8.1157   45.3724  130.7055 C   0  0  0  0  0  0  0  0  0  0  0  0
    6.9354   45.9888  130.4410 C   0  0  0  0  0  0  0  0  0  0  0  0
    6.9379   47.1188  129.6111 C   0  0  0  0  0  0  0  0  0  0  0  0
    8.1448   47.5497  129.1028 C   0  0  0  0  0  0  0  0  0  0  0  0
    9.3352   46.9125  129.3813 C   0  0  0  0  0  0  0  0  0  0  0  0
    5.7275   47.6986  129.3798 O   0  0  0  0  0  0  0  0  0  0  0  0
    5.5302   48.9862  128.8998 C   0  0  0  0  0  0  0  0  0  0  0  0
    4.7971   49.7867  129.9404 C   0  0  0  0  0  0  0  0  0  0  0  0
    5.8722   50.7504  130.4561 C   0  0  0  0  0  0  0  0  0  0  0  0
    7.0698   50.0558  130.1931 N   0  0  0  0  0  0  0  0  0  0  0  0
    6.8927   49.7020  128.7739 C   0  0  0  0  0  0  0  0  0  0  0  0
    8.2898   50.7023  130.4299 C   0  0  0  0  0  0  0  0  0  0  0  0
    9.2088   50.1011  131.4045 C   0  0  0  0  0  0  0  0  0  0  0  0
    9.5215   50.8090  132.6566 C   0  0  0  0  0  0  0  0  0  0  0  0
   10.5301   50.0298  133.2970 F   0  0  0  0  0  0  0  0  0  0  0  0
 22 23  1  0  0  0
 23 21  1  0  0  0
 21 14  1  0  0  0
 14 15  2  0  0  0
 15 16  1  0  0  0
 16 17  2  0  0  0
 17 18  1  0  0  0
 18 19  1  0  0  0
 18 20  2  0  0  0
 17  1  1  0  0  0
  1  2  2  0  0  0
  2 24  1  0  0  0
 24 25  2  0  0  0
 25 26  1  0  0  0
 26 27  2  0  0  0
 27 30  1  0  0  0
 30 31  1  0  0  0
 31 32  1  0  0  0
 32 33  1  0  0  0
 33 34  1  0  0  0
 34 36  1  0  0  0
 36 37  1  0  0  0
 37 38  1  0  0  0
 38 39  1  0  0  0
 34 35  1  0  0  0
 27 28  1  0  0  0
 28 29  2  0  0  0
  2  3  1  0  0  0
  3  4  2  0  0  0
  4  5  1  0  0  0
  5  6  2  0  0  0
  6  7  1  0  0  0
  6  8  1  0  0  0
  8  9  2  0  0  0
  9 10  1  0  0  0
 10 11  1  0  0  0
 11 12  1  0  0  0
 20 14  1  0  0  0
 12  1  1  0  0  0
 29 24  1  0  0  0
  9  3  1  0  0  0
 35 31  1  0  0  0
  7 13  1  0  0  0
M  END
> <minimizedAffinity>
8.83102

> <CNNscore>
0.4247969985

> <CNNaffinity>
8.0985765457

> <CNN_VS>
3.4402511120

> <CNNaffinity_variance>
0.4247618616

$$$$
[H]Oc1c([H])c([H])c2c(c1[H])C([H])([H])C([H])([H])C([H])([H])C(c1c([H])c([H])c(OC([H])([H])C([H])([H])[H])c([H])c1F)=C2c1c([H])c([H])c(O[C@]2([H])C([H])([H])N(C([H])([H])C([H])([H])C([H])([H])F)C([H])([H])C2([H])[H])c([H])c1[H]


 39 43  0  0  0  0  0  0  0  0999 V2000
   11.4791   45.0890  131.5991 C   0  0  0  0  0  0  0  0  0  0  0  0
   10.9917   45.0466  130.4054 C   0  0  0  0  0  0  0  0  0  0  0  0
   11.6338   44.4607  129.1835 C   0  0  0  0  0  0  0  0  0  0  0  0
   10.7171   44.0308  128.2685 C   0  0  0  0  0  0  0  0  0  0  0  0
   11.2077   43.4986  127.0901 C   0  0  0  0  0  0  0  0  0  0  0  0
   12.5474   43.4063  126.8548 C   0  0  0  0  0  0  0  0  0  0  0  0
   12.9879   42.8584  125.6421 O   0  0  0  0  0  0  0  0  0  0  0  0
   13.4861   43.8476  127.8007 C   0  0  0  0  0  0  0  0  0  0  0  0
   12.9994   44.3693  128.9560 C   0  0  0  0  0  0  0  0  0  0  0  0
   14.0912   44.7332  129.9221 C   0  0  0  0  0  0  0  0  0  0  0  0
   13.7280   43.9679  131.1912 C   0  0  0  0  0  0  0  0  0  0  0  0
   12.8447   44.6351  132.1281 C   0  0  0  0  0  0  0  0  0  0  0  0
   13.9755   42.8020  125.4926 H   0  0  0  0  0  0  0  0  0  0  0  0
    9.2091   46.4498  134.9546 C   0  0  0  0  0  0  0  0  0  0  0  0
    9.4757   45.1196  134.7122 C   0  0  0  0  0  0  0  0  0  0  0  0
   10.1833   44.7492  133.6044 C   0  0  0  0  0  0  0  0  0  0  0  0
   10.6768   45.6714  132.6583 C   0  0  0  0  0  0  0  0  0  0  0  0
   10.4080   46.9693  132.9135 C   0  0  0  0  0  0  0  0  0  0  0  0
   10.8710   47.9593  132.1566 F   0  0  0  0  0  0  0  0  0  0  0  0
    9.6784   47.3507  134.0531 C   0  0  0  0  0  0  0  0  0  0  0  0
    8.4848   46.8096  136.0902 O   0  0  0  0  0  0  0  0  0  0  0  0
   10.3961   48.1142  136.8061 C   0  0  0  0  0  0  0  0  0  0  0  0
    8.9587   47.7245  137.0271 C   0  0  0  0  0  0  0  0  0  0  0  0
    9.6749   45.5614  130.1049 C   0  0  0  0  0  0  0  0  0  0  0  0
    8.5971   44.8977  130.7431 C   0  0  0  0  0  0  0  0  0  0  0  0
    7.3042   45.2927  130.6193 C   0  0  0  0  0  0  0  0  0  0  0  0
    7.0155   46.4101  129.8232 C   0  0  0  0  0  0  0  0  0  0  0  0
    8.0644   47.0550  129.2029 C   0  0  0  0  0  0  0  0  0  0  0  0
    9.3724   46.6413  129.3391 C   0  0  0  0  0  0  0  0  0  0  0  0
    5.7033   46.7635  129.7346 O   0  0  0  0  0  0  0  0  0  0  0  0
    5.1699   47.6543  128.8130 C   0  0  0  0  0  0  0  0  0  0  0  0
    4.1857   48.5491  129.5143 C   0  0  0  0  0  0  0  0  0  0  0  0
    4.9114   49.8990  129.5515 C   0  0  0  0  0  0  0  0  0  0  0  0
    6.2697   49.5279  129.4964 N   0  0  0  0  0  0  0  0  0  0  0  0
    6.2745   48.6217  128.3348 C   0  0  0  0  0  0  0  0  0  0  0  0
    7.2393   50.5333  129.3883 C   0  0  0  0  0  0  0  0  0  0  0  0
    7.3005   51.2977  128.1361 C   0  0  0  0  0  0  0  0  0  0  0  0
    7.1708   52.7637  128.1607 C   0  0  0  0  0  0  0  0  0  0  0  0
    6.8478   53.0983  129.5092 F   0  0  0  0  0  0  0  0  0  0  0  0
 22 23  1  0  0  0
 23 21  1  0  0  0
 21 14  1  0  0  0
 14 15  2  0  0  0
 15 16  1  0  0  0
 16 17  2  0  0  0
 17 18  1  0  0  0
 18 19  1  0  0  0
 18 20  2  0  0  0
 17  1  1  0  0  0
  1  2  2  0  0  0
  2 24  1  0  0  0
 24 25  2  0  0  0
 25 26  1  0  0  0
 26 27  2  0  0  0
 27 30  1  0  0  0
 30 31  1  0  0  0
 31 32  1  0  0  0
 32 33  1  0  0  0
 33 34  1  0  0  0
 34 36  1  0  0  0
 36 37  1  0  0  0
 37 38  1  0  0  0
 38 39  1  0  0  0
 34 35  1  0  0  0
 27 28  1  0  0  0
 28 29  2  0  0  0
  2  3  1  0  0  0
  3  4  2  0  0  0
  4  5  1  0  0  0
  5  6  2  0  0  0
  6  7  1  0  0  0
  6  8  1  0  0  0
  8  9  2  0  0  0
  9 10  1  0  0  0
 10 11  1  0  0  0
 11 12  1  0  0  0
 20 14  1  0  0  0
 12  1  1  0  0  0
 29 24  1  0  0  0
  9  3  1  0  0  0
 35 31  1  0  0  0
  7 13  1  0  0  0
M  END
> <minimizedAffinity>
17.65426

> <CNNscore>
0.4121216238

> <CNNaffinity>
8.0762491226

> <CNN_VS>
3.3283967972

> <CNNaffinity_variance>
2.0406818390

$$$$
[H]Oc1c([H])c([H])c2c(c1[H])C([H])([H])C([H])([H])C([H])([H])C(c1c([H])c([H])c(OC([H])([H])C([H])([H])[H])c([H])c1F)=C2c1c([H])c([H])c(O[C@]2([H])C([H])([H])N(C([H])([H])C([H])([H])C([H])([H])F)C([H])([H])C2([H])[H])c([H])c1[H]


 39 43  0  0  0  0  0  0  0  0999 V2000
    9.2840   48.5745  131.4358 C   0  0  0  0  0  0  0  0  0  0  0  0
    8.2089   47.9999  131.0136 C   0  0  0  0  0  0  0  0  0  0  0  0
    7.0495   48.6454  130.3152 C   0  0  0  0  0  0  0  0  0  0  0  0
    6.3860   47.7781  129.4966 C   0  0  0  0  0  0  0  0  0  0  0  0
    5.2803   48.2685  128.8262 C   0  0  0  0  0  0  0  0  0  0  0  0
    4.8732   49.5609  128.9756 C   0  0  0  0  0  0  0  0  0  0  0  0
    3.7448   50.0034  128.2715 O   0  0  0  0  0  0  0  0  0  0  0  0
    5.5610   50.4495  129.8170 C   0  0  0  0  0  0  0  0  0  0  0  0
    6.6460   49.9633  130.4729 C   0  0  0  0  0  0  0  0  0  0  0  0
    7.3464   51.0206  131.2789 C   0  0  0  0  0  0  0  0  0  0  0  0
    8.7835   50.9795  130.7675 C   0  0  0  0  0  0  0  0  0  0  0  0
    9.6861   50.0540  131.4247 C   0  0  0  0  0  0  0  0  0  0  0  0
    3.4656   50.9557  128.3983 H   0  0  0  0  0  0  0  0  0  0  0  0
   12.0510   46.1610  133.6228 C   0  0  0  0  0  0  0  0  0  0  0  0
   11.1207   46.9792  134.2264 C   0  0  0  0  0  0  0  0  0  0  0  0
   10.2840   47.7479  133.4686 C   0  0  0  0  0  0  0  0  0  0  0  0
   10.3102   47.7598  132.0585 C   0  0  0  0  0  0  0  0  0  0  0  0
   11.2260   46.9507  131.4853 C   0  0  0  0  0  0  0  0  0  0  0  0
   11.3205   46.7953  130.1683 F   0  0  0  0  0  0  0  0  0  0  0  0
   12.0883   46.1604  132.2652 C   0  0  0  0  0  0  0  0  0  0  0  0
   12.8974   45.3836  134.4121 O   0  0  0  0  0  0  0  0  0  0  0  0
   11.3656   43.5253  134.6729 C   0  0  0  0  0  0  0  0  0  0  0  0
   12.7844   43.9983  134.4991 C   0  0  0  0  0  0  0  0  0  0  0  0
    8.0085   46.5746  131.1459 C   0  0  0  0  0  0  0  0  0  0  0  0
    8.1038   45.8283  129.9445 C   0  0  0  0  0  0  0  0  0  0  0  0
    8.0042   44.4750  129.9013 C   0  0  0  0  0  0  0  0  0  0  0  0
    7.7972   43.7772  131.0997 C   0  0  0  0  0  0  0  0  0  0  0  0
    7.7047   44.5038  132.2676 C   0  0  0  0  0  0  0  0  0  0  0  0
    7.8083   45.8783  132.2946 C   0  0  0  0  0  0  0  0  0  0  0  0
    7.7060   42.4221  130.9993 O   0  0  0  0  0  0  0  0  0  0  0  0
    8.7733   41.5366  131.0620 C   0  0  0  0  0  0  0  0  0  0  0  0
    9.0753   41.0392  129.6754 C   0  0  0  0  0  0  0  0  0  0  0  0
   10.4016   41.7319  129.3410 C   0  0  0  0  0  0  0  0  0  0  0  0
   10.3684   42.8836  130.1522 N   0  0  0  0  0  0  0  0  0  0  0  0
   10.0521   42.3012  131.4680 C   0  0  0  0  0  0  0  0  0  0  0  0
   11.4991   43.7096  130.1964 C   0  0  0  0  0  0  0  0  0  0  0  0
   11.8727   44.4299  128.9725 C   0  0  0  0  0  0  0  0  0  0  0  0
   10.9081   44.5554  127.8678 C   0  0  0  0  0  0  0  0  0  0  0  0
   10.5770   45.9414  127.8025 F   0  0  0  0  0  0  0  0  0  0  0  0
 22 23  1  0  0  0
 23 21  1  0  0  0
 21 14  1  0  0  0
 14 15  2  0  0  0
 15 16  1  0  0  0
 16 17  2  0  0  0
 17 18  1  0  0  0
 18 19  1  0  0  0
 18 20  2  0  0  0
 17  1  1  0  0  0
  1  2  2  0  0  0
  2 24  1  0  0  0
 24 25  2  0  0  0
 25 26  1  0  0  0
 26 27  2  0  0  0
 27 30  1  0  0  0
 30 31  1  0  0  0
 31 32  1  0  0  0
 32 33  1  0  0  0
 33 34  1  0  0  0
 34 36  1  0  0  0
 36 37  1  0  0  0
 37 38  1  0  0  0
 38 39  1  0  0  0
 34 35  1  0  0  0
 27 28  1  0  0  0
 28 29  2  0  0  0
  2  3  1  0  0  0
  3  4  2  0  0  0
  4  5  1  0  0  0
  5  6  2  0  0  0
  6  7  1  0  0  0
  6  8  1  0  0  0
  8  9  2  0  0  0
  9 10  1  0  0  0
 10 11  1  0  0  0
 11 12  1  0  0  0
 20 14  1  0  0  0
 12  1  1  0  0  0
 29 24  1  0  0  0
  9  3  1  0  0  0
 35 31  1  0  0  0
  7 13  1  0  0  0
M  END
> <minimizedAffinity>
5.12092

> <CNNscore>
0.3822284937

> <CNNaffinity>
8.0882654190

> <CNN_VS>
3.0915656090

> <CNNaffinity_variance>
0.2977356911

$$$$
[H]Oc1c([H])c([H])c2c(c1[H])C([H])([H])C([H])([H])C([H])([H])C(c1c([H])c([H])c(OC([H])([H])C([H])([H])[H])c([H])c1F)=C2c1c([H])c([H])c(O[C@]2([H])C([H])([H])N(C([H])([H])C([H])([H])C([H])([H])F)C([H])([H])C2([H])[H])c([H])c1[H]


 39 43  0  0  0  0  0  0  0  0999 V2000
    9.1800   48.9123  131.5307 C   0  0  0  0  0  0  0  0  0  0  0  0
    8.3360   48.0007  131.1833 C   0  0  0  0  0  0  0  0  0  0  0  0
    7.2409   48.1184  130.1657 C   0  0  0  0  0  0  0  0  0  0  0  0
    6.9262   46.9181  129.5977 C   0  0  0  0  0  0  0  0  0  0  0  0
    5.9058   46.9132  128.6642 C   0  0  0  0  0  0  0  0  0  0  0  0
    5.2457   48.0570  128.3260 C   0  0  0  0  0  0  0  0  0  0  0  0
    4.2190   47.9926  127.3737 O   0  0  0  0  0  0  0  0  0  0  0  0
    5.5753   49.2896  128.9115 C   0  0  0  0  0  0  0  0  0  0  0  0
    6.5778   49.2892  129.8272 C   0  0  0  0  0  0  0  0  0  0  0  0
    6.8955   50.6706  130.3259 C   0  0  0  0  0  0  0  0  0  0  0  0
    8.3883   50.8258  130.0500 C   0  0  0  0  0  0  0  0  0  0  0  0
    9.2961   50.3754  131.0873 C   0  0  0  0  0  0  0  0  0  0  0  0
    3.7493   48.8451  127.1429 H   0  0  0  0  0  0  0  0  0  0  0  0
   11.9065   48.1334  134.7282 C   0  0  0  0  0  0  0  0  0  0  0  0
   10.9812   49.1544  134.7561 C   0  0  0  0  0  0  0  0  0  0  0  0
   10.1578   49.3677  133.6876 C   0  0  0  0  0  0  0  0  0  0  0  0
   10.1933   48.5838  132.5157 C   0  0  0  0  0  0  0  0  0  0  0  0
   11.1039   47.5875  132.5076 C   0  0  0  0  0  0  0  0  0  0  0  0
   11.2051   46.7174  131.5076 F   0  0  0  0  0  0  0  0  0  0  0  0
   11.9525   47.3686  133.6068 C   0  0  0  0  0  0  0  0  0  0  0  0
   12.7392   47.9305  135.8278 O   0  0  0  0  0  0  0  0  0  0  0  0
   14.6797   48.4903  137.1652 C   0  0  0  0  0  0  0  0  0  0  0  0
   13.4514   48.9626  136.4336 C   0  0  0  0  0  0  0  0  0  0  0  0
    8.3796   46.6711  131.7488 C   0  0  0  0  0  0  0  0  0  0  0  0
    8.7008   45.6298  130.8422 C   0  0  0  0  0  0  0  0  0  0  0  0
    8.8448   44.3341  131.2208 C   0  0  0  0  0  0  0  0  0  0  0  0
    8.6685   44.0046  132.5722 C   0  0  0  0  0  0  0  0  0  0  0  0
    8.3563   45.0179  133.4532 C   0  0  0  0  0  0  0  0  0  0  0  0
    8.2138   46.3294  133.0527 C   0  0  0  0  0  0  0  0  0  0  0  0
    8.8256   42.6914  132.8972 O   0  0  0  0  0  0  0  0  0  0  0  0
   10.0115   42.1013  133.3130 C   0  0  0  0  0  0  0  0  0  0  0  0
   10.5025   41.1801  132.2307 C   0  0  0  0  0  0  0  0  0  0  0  0
   11.7246   41.9204  131.6748 C   0  0  0  0  0  0  0  0  0  0  0  0
   11.4415   43.2671  131.9778 N   0  0  0  0  0  0  0  0  0  0  0  0
   11.1142   43.1779  133.4115 C   0  0  0  0  0  0  0  0  0  0  0  0
   12.4186   44.2365  131.7166 C   0  0  0  0  0  0  0  0  0  0  0  0
   12.9270   44.3477  130.3436 C   0  0  0  0  0  0  0  0  0  0  0  0
   12.0431   44.8228  129.2668 C   0  0  0  0  0  0  0  0  0  0  0  0
   11.2246   43.7069  128.9211 F   0  0  0  0  0  0  0  0  0  0  0  0
 22 23  1  0  0  0
 23 21  1  0  0  0
 21 14  1  0  0  0
 14 15  2  0  0  0
 15 16  1  0  0  0
 16 17  2  0  0  0
 17 18  1  0  0  0
 18 19  1  0  0  0
 18 20  2  0  0  0
 17  1  1  0  0  0
  1  2  2  0  0  0
  2 24  1  0  0  0
 24 25  2  0  0  0
 25 26  1  0  0  0
 26 27  2  0  0  0
 27 30  1  0  0  0
 30 31  1  0  0  0
 31 32  1  0  0  0
 32 33  1  0  0  0
 33 34  1  0  0  0
 34 36  1  0  0  0
 36 37  1  0  0  0
 37 38  1  0  0  0
 38 39  1  0  0  0
 34 35  1  0  0  0
 27 28  1  0  0  0
 28 29  2  0  0  0
  2  3  1  0  0  0
  3  4  2  0  0  0
  4  5  1  0  0  0
  5  6  2  0  0  0
  6  7  1  0  0  0
  6  8  1  0  0  0
  8  9  2  0  0  0
  9 10  1  0  0  0
 10 11  1  0  0  0
 11 12  1  0  0  0
 20 14  1  0  0  0
 12  1  1  0  0  0
 29 24  1  0  0  0
  9  3  1  0  0  0
 35 31  1  0  0  0
  7 13  1  0  0  0
M  END
> <minimizedAffinity>
8.42031

> <CNNscore>
0.3673025072

> <CNNaffinity>
8.1157245636

> <CNN_VS>
2.9809260368

> <CNNaffinity_variance>
0.6582146883

$$$$
[H]Oc1c([H])c([H])c2c(c1[H])C([H])([H])C([H])([H])C([H])([H])C(c1c([H])c([H])c(OC([H])([H])C([H])([H])[H])c([H])c1F)=C2c1c([H])c([H])c(O[C@]2([H])C([H])([H])N(C([H])([H])C([H])([H])C([H])([H])F)C([H])([H])C2([H])[H])c([H])c1[H]


 39 43  0  0  0  0  0  0  0  0999 V2000
    8.9944   47.7069  133.5556 C   0  0  0  0  0  0  0  0  0  0  0  0
    8.9490   47.6248  132.2690 C   0  0  0  0  0  0  0  0  0  0  0  0
    8.4814   48.6772  131.3086 C   0  0  0  0  0  0  0  0  0  0  0  0
    9.0742   48.5659  130.0845 C   0  0  0  0  0  0  0  0  0  0  0  0
    8.6892   49.4740  129.1152 C   0  0  0  0  0  0  0  0  0  0  0  0
    7.7602   50.4380  129.3725 C   0  0  0  0  0  0  0  0  0  0  0  0
    7.4078   51.3316  128.3516 O   0  0  0  0  0  0  0  0  0  0  0  0
    7.1554   50.5496  130.6344 C   0  0  0  0  0  0  0  0  0  0  0  0
    7.5369   49.6558  131.5826 C   0  0  0  0  0  0  0  0  0  0  0  0
    6.8854   49.9200  132.9106 C   0  0  0  0  0  0  0  0  0  0  0  0
    8.0601   50.0533  133.8754 C   0  0  0  0  0  0  0  0  0  0  0  0
    8.5420   48.8328  134.4928 C   0  0  0  0  0  0  0  0  0  0  0  0
    6.7235   52.0295  128.5648 H   0  0  0  0  0  0  0  0  0  0  0  0
   10.9136   44.6103  135.7899 C   0  0  0  0  0  0  0  0  0  0  0  0
   11.6002   45.5163  135.0107 C   0  0  0  0  0  0  0  0  0  0  0  0
   10.9234   46.4645  134.2979 C   0  0  0  0  0  0  0  0  0  0  0  0
    9.5180   46.5817  134.3069 C   0  0  0  0  0  0  0  0  0  0  0  0
    8.8630   45.6875  135.0773 C   0  0  0  0  0  0  0  0  0  0  0  0
    7.5450   45.7188  135.2484 F   0  0  0  0  0  0  0  0  0  0  0  0
    9.5593   44.7105  135.8101 C   0  0  0  0  0  0  0  0  0  0  0  0
   11.6208   43.6488  136.5105 O   0  0  0  0  0  0  0  0  0  0  0  0
   13.2065   43.5642  134.6814 C   0  0  0  0  0  0  0  0  0  0  0  0
   12.7573   43.0181  136.0106 C   0  0  0  0  0  0  0  0  0  0  0  0
    9.4059   46.4465  131.5674 C   0  0  0  0  0  0  0  0  0  0  0  0
   10.5456   46.6269  130.7440 C   0  0  0  0  0  0  0  0  0  0  0  0
   11.1401   45.6118  130.0665 C   0  0  0  0  0  0  0  0  0  0  0  0
   10.6053   44.3210  130.1833 C   0  0  0  0  0  0  0  0  0  0  0  0
    9.4970   44.1464  130.9844 C   0  0  0  0  0  0  0  0  0  0  0  0
    8.9049   45.1881  131.6664 C   0  0  0  0  0  0  0  0  0  0  0  0
   11.2408   43.3404  129.4839 O   0  0  0  0  0  0  0  0  0  0  0  0
   11.0414   43.0509  128.1409 C   0  0  0  0  0  0  0  0  0  0  0  0
    9.8055   42.2054  128.0035 C   0  0  0  0  0  0  0  0  0  0  0  0
    8.7977   43.1677  127.3641 C   0  0  0  0  0  0  0  0  0  0  0  0
    9.2691   44.4323  127.7694 N   0  0  0  0  0  0  0  0  0  0  0  0
   10.6883   44.3490  127.3824 C   0  0  0  0  0  0  0  0  0  0  0  0
    8.6470   45.5789  127.2586 C   0  0  0  0  0  0  0  0  0  0  0  0
    8.3410   46.6693  128.1933 C   0  0  0  0  0  0  0  0  0  0  0  0
    7.0172   46.7420  128.8326 C   0  0  0  0  0  0  0  0  0  0  0  0
    6.9922   45.6814  129.7862 F   0  0  0  0  0  0  0  0  0  0  0  0
 22 23  1  0  0  0
 23 21  1  0  0  0
 21 14  1  0  0  0
 14 15  2  0  0  0
 15 16  1  0  0  0
 16 17  2  0  0  0
 17 18  1  0  0  0
 18 19  1  0  0  0
 18 20  2  0  0  0
 17  1  1  0  0  0
  1  2  2  0  0  0
  2 24  1  0  0  0
 24 25  2  0  0  0
 25 26  1  0  0  0
 26 27  2  0  0  0
 27 30  1  0  0  0
 30 31  1  0  0  0
 31 32  1  0  0  0
 32 33  1  0  0  0
 33 34  1  0  0  0
 34 36  1  0  0  0
 36 37  1  0  0  0
 37 38  1  0  0  0
 38 39  1  0  0  0
 34 35  1  0  0  0
 27 28  1  0  0  0
 28 29  2  0  0  0
  2  3  1  0  0  0
  3  4  2  0  0  0
  4  5  1  0  0  0
  5  6  2  0  0  0
  6  7  1  0  0  0
  6  8  1  0  0  0
  8  9  2  0  0  0
  9 10  1  0  0  0
 10 11  1  0  0  0
 11 12  1  0  0  0
 20 14  1  0  0  0
 12  1  1  0  0  0
 29 24  1  0  0  0
  9  3  1  0  0  0
 35 31  1  0  0  0
  7 13  1  0  0  0
M  END
> <minimizedAffinity>
21.51689

> <CNNscore>
0.3667457104

> <CNNaffinity>
8.1277894974

> <CNN_VS>
2.9808318615

> <CNNaffinity_variance>
2.1835632324

$$$$
[H]Oc1c([H])c([H])c2c(c1[H])C([H])([H])C([H])([H])C([H])([H])C(c1c([H])c([H])c(OC([H])([H])C([H])([H])[H])c([H])c1F)=C2c1c([H])c([H])c(O[C@]2([H])C([H])([H])N(C([H])([H])C([H])([H])C([H])([H])F)C([H])([H])C2([H])[H])c([H])c1[H]


 39 43  0  0  0  0  0  0  0  0999 V2000
   10.1531   48.0301  132.7713 C   0  0  0  0  0  0  0  0  0  0  0  0
   10.7088   46.9424  132.3564 C   0  0  0  0  0  0  0  0  0  0  0  0
   11.5776   46.0091  133.1456 C   0  0  0  0  0  0  0  0  0  0  0  0
   11.5233   44.7275  132.6796 C   0  0  0  0  0  0  0  0  0  0  0  0
   12.3127   43.7915  133.3225 C   0  0  0  0  0  0  0  0  0  0  0  0
   13.1078   44.1343  134.3755 C   0  0  0  0  0  0  0  0  0  0  0  0
   13.8875   43.1438  134.9887 O   0  0  0  0  0  0  0  0  0  0  0  0
   13.1578   45.4536  134.8524 C   0  0  0  0  0  0  0  0  0  0  0  0
   12.3809   46.3688  134.2180 C   0  0  0  0  0  0  0  0  0  0  0  0
   12.4548   47.7244  134.8621 C   0  0  0  0  0  0  0  0  0  0  0  0
   10.9995   48.0630  135.1721 C   0  0  0  0  0  0  0  0  0  0  0  0
   10.2472   48.7345  134.1299 C   0  0  0  0  0  0  0  0  0  0  0  0
   14.4630   43.4203  135.7589 H   0  0  0  0  0  0  0  0  0  0  0  0
    7.3798   50.2372  130.3835 C   0  0  0  0  0  0  0  0  0  0  0  0
    6.9975   49.4267  131.4306 C   0  0  0  0  0  0  0  0  0  0  0  0
    7.9330   48.7250  132.1362 C   0  0  0  0  0  0  0  0  0  0  0  0
    9.3138   48.7770  131.8536 C   0  0  0  0  0  0  0  0  0  0  0  0
    9.6693   49.5775  130.8266 C   0  0  0  0  0  0  0  0  0  0  0  0
   10.9376   49.7897  130.4893 F   0  0  0  0  0  0  0  0  0  0  0  0
    8.7064   50.2989  130.0993 C   0  0  0  0  0  0  0  0  0  0  0  0
    6.4112   50.9458  129.6739 O   0  0  0  0  0  0  0  0  0  0  0  0
    5.4376   48.8350  128.9927 C   0  0  0  0  0  0  0  0  0  0  0  0
    5.3066   50.3318  129.0889 C   0  0  0  0  0  0  0  0  0  0  0  0
   10.5130   46.4565  131.0092 C   0  0  0  0  0  0  0  0  0  0  0  0
   11.5465   45.6313  130.4991 C   0  0  0  0  0  0  0  0  0  0  0  0
   11.4912   45.0421  129.2772 C   0  0  0  0  0  0  0  0  0  0  0  0
   10.3597   45.2568  128.4776 C   0  0  0  0  0  0  0  0  0  0  0  0
    9.3550   46.0594  128.9745 C   0  0  0  0  0  0  0  0  0  0  0  0
    9.4264   46.6504  130.2180 C   0  0  0  0  0  0  0  0  0  0  0  0
   10.3556   44.6415  127.2626 O   0  0  0  0  0  0  0  0  0  0  0  0
    9.7330   43.4348  126.9735 C   0  0  0  0  0  0  0  0  0  0  0  0
   10.6493   42.3084  127.3642 C   0  0  0  0  0  0  0  0  0  0  0  0
    9.9633   41.7183  128.6018 C   0  0  0  0  0  0  0  0  0  0  0  0
    9.2275   42.8099  129.1044 N   0  0  0  0  0  0  0  0  0  0  0  0
    8.5088   43.2539  127.8973 C   0  0  0  0  0  0  0  0  0  0  0  0
    8.3644   42.5994  130.1876 C   0  0  0  0  0  0  0  0  0  0  0  0
    8.7423   43.1667  131.4882 C   0  0  0  0  0  0  0  0  0  0  0  0
    7.9496   44.2601  132.0735 C   0  0  0  0  0  0  0  0  0  0  0  0
    8.5197   44.5029  133.3583 F   0  0  0  0  0  0  0  0  0  0  0  0
 22 23  1  0  0  0
 23 21  1  0  0  0
 21 14  1  0  0  0
 14 15  2  0  0  0
 15 16  1  0  0  0
 16 17  2  0  0  0
 17 18  1  0  0  0
 18 19  1  0  0  0
 18 20  2  0  0  0
 17  1  1  0  0  0
  1  2  2  0  0  0
  2 24  1  0  0  0
 24 25  2  0  0  0
 25 26  1  0  0  0
 26 27  2  0  0  0
 27 30  1  0  0  0
 30 31  1  0  0  0
 31 32  1  0  0  0
 32 33  1  0  0  0
 33 34  1  0  0  0
 34 36  1  0  0  0
 36 37  1  0  0  0
 37 38  1  0  0  0
 38 39  1  0  0  0
 34 35  1  0  0  0
 27 28  1  0  0  0
 28 29  2  0  0  0
  2  3  1  0  0  0
  3  4  2  0  0  0
  4  5  1  0  0  0
  5  6  2  0  0  0
  6  7  1  0  0  0
  6  8  1  0  0  0
  8  9  2  0  0  0
  9 10  1  0  0  0
 10 11  1  0  0  0
 11 12  1  0  0  0
 20 14  1  0  0  0
 12  1  1  0  0  0
 29 24  1  0  0  0
  9  3  1  0  0  0
 35 31  1  0  0  0
  7 13  1  0  0  0
M  END
> <minimizedAffinity>
10.54039

> <CNNscore>
0.3648157716

> <CNNaffinity>
7.9251685143

> <CNN_VS>
2.8912265301

> <CNNaffinity_variance>
0.4909142554

$$$$
[H]Oc1c([H])c([H])c2c(c1[H])C([H])([H])C([H])([H])C([H])([H])C(c1c([H])c([H])c(OC([H])([H])C([H])([H])[H])c([H])c1F)=C2c1c([H])c([H])c(O[C@]2([H])C([H])([H])N(C([H])([H])C([H])([H])C([H])([H])F)C([H])([H])C2([H])[H])c([H])c1[H]


 39 43  0  0  0  0  0  0  0  0999 V2000
    9.7392   48.4727  132.4430 C   0  0  0  0  0  0  0  0  0  0  0  0
    8.9762   48.3187  131.4143 C   0  0  0  0  0  0  0  0  0  0  0  0
    8.3516   49.3958  130.5786 C   0  0  0  0  0  0  0  0  0  0  0  0
    8.1225   48.9925  129.2951 C   0  0  0  0  0  0  0  0  0  0  0  0
    7.5211   49.9051  128.4477 C   0  0  0  0  0  0  0  0  0  0  0  0
    7.1747   51.1522  128.8758 C   0  0  0  0  0  0  0  0  0  0  0  0
    6.5672   52.0359  127.9731 O   0  0  0  0  0  0  0  0  0  0  0  0
    7.4151   51.5628  130.1965 C   0  0  0  0  0  0  0  0  0  0  0  0
    8.0058   50.6632  131.0245 C   0  0  0  0  0  0  0  0  0  0  0  0
    8.2850   51.2375  132.3847 C   0  0  0  0  0  0  0  0  0  0  0  0
    9.7823   51.0146  132.5766 C   0  0  0  0  0  0  0  0  0  0  0  0
   10.1864   49.7509  133.1620 C   0  0  0  0  0  0  0  0  0  0  0  0
    6.3218   52.9449  128.3112 H   0  0  0  0  0  0  0  0  0  0  0  0
   10.9133   44.9237  134.5142 C   0  0  0  0  0  0  0  0  0  0  0  0
    9.8168   45.6787  134.8706 C   0  0  0  0  0  0  0  0  0  0  0  0
    9.5129   46.8195  134.1840 C   0  0  0  0  0  0  0  0  0  0  0  0
   10.2746   47.2927  133.0955 C   0  0  0  0  0  0  0  0  0  0  0  0
   11.3429   46.5393  132.7596 C   0  0  0  0  0  0  0  0  0  0  0  0
   12.1114   46.8131  131.7100 F   0  0  0  0  0  0  0  0  0  0  0  0
   11.6568   45.3656  133.4670 C   0  0  0  0  0  0  0  0  0  0  0  0
   11.2088   43.7622  135.2266 O   0  0  0  0  0  0  0  0  0  0  0  0
    9.8441   42.5452  133.6379 C   0  0  0  0  0  0  0  0  0  0  0  0
   10.7239   42.5095  134.8591 C   0  0  0  0  0  0  0  0  0  0  0  0
    8.6480   47.0073  130.9026 C   0  0  0  0  0  0  0  0  0  0  0  0
    9.2560   46.6608  129.6698 C   0  0  0  0  0  0  0  0  0  0  0  0
    9.1043   45.4461  129.0829 C   0  0  0  0  0  0  0  0  0  0  0  0
    8.3092   44.4846  129.7225 C   0  0  0  0  0  0  0  0  0  0  0  0
    7.7185   44.8224  130.9214 C   0  0  0  0  0  0  0  0  0  0  0  0
    7.8827   46.0607  131.5047 C   0  0  0  0  0  0  0  0  0  0  0  0
    8.1920   43.2836  129.0910 O   0  0  0  0  0  0  0  0  0  0  0  0
    9.2495   42.4845  128.6782 C   0  0  0  0  0  0  0  0  0  0  0  0
   10.1294   43.2805  127.7545 C   0  0  0  0  0  0  0  0  0  0  0  0
   11.3844   43.5270  128.5998 C   0  0  0  0  0  0  0  0  0  0  0  0
   10.8947   43.4542  129.9191 N   0  0  0  0  0  0  0  0  0  0  0  0
   10.1623   42.1763  129.8851 C   0  0  0  0  0  0  0  0  0  0  0  0
   11.8067   43.5142  130.9809 C   0  0  0  0  0  0  0  0  0  0  0  0
   13.1756   43.9566  130.6872 C   0  0  0  0  0  0  0  0  0  0  0  0
   13.4614   44.6941  129.4458 C   0  0  0  0  0  0  0  0  0  0  0  0
   14.6899   44.1600  128.9558 F   0  0  0  0  0  0  0  0  0  0  0  0
 22 23  1  0  0  0
 23 21  1  0  0  0
 21 14  1  0  0  0
 14 15  2  0  0  0
 15 16  1  0  0  0
 16 17  2  0  0  0
 17 18  1  0  0  0
 18 19  1  0  0  0
 18 20  2  0  0  0
 17  1  1  0  0  0
  1  2  2  0  0  0
  2 24  1  0  0  0
 24 25  2  0  0  0
 25 26  1  0  0  0
 26 27  2  0  0  0
 27 30  1  0  0  0
 30 31  1  0  0  0
 31 32  1  0  0  0
 32 33  1  0  0  0
 33 34  1  0  0  0
 34 36  1  0  0  0
 36 37  1  0  0  0
 37 38  1  0  0  0
 38 39  1  0  0  0
 34 35  1  0  0  0
 27 28  1  0  0  0
 28 29  2  0  0  0
  2  3  1  0  0  0
  3  4  2  0  0  0
  4  5  1  0  0  0
  5  6  2  0  0  0
  6  7  1  0  0  0
  6  8  1  0  0  0
  8  9  2  0  0  0
  9 10  1  0  0  0
 10 11  1  0  0  0
 11 12  1  0  0  0
 20 14  1  0  0  0
 12  1  1  0  0  0
 29 24  1  0  0  0
  9  3  1  0  0  0
 35 31  1  0  0  0
  7 13  1  0  0  0
M  END
> <minimizedAffinity>
1.78588

> <CNNscore>
0.3457097113

> <CNNaffinity>
8.1238927841

> <CNN_VS>
2.8085086346

> <CNNaffinity_variance>
0.3816622794

$$$$
[H]Oc1c([H])c([H])c2c(c1[H])C([H])([H])C([H])([H])C([H])([H])C(c1c([H])c([H])c(OC([H])([H])C([H])([H])[H])c([H])c1F)=C2c1c([H])c([H])c(O[C@]2([H])C([H])([H])N(C([H])([H])C([H])([H])C([H])([H])F)C([H])([H])C2([H])[H])c([H])c1[H]


 39 43  0  0  0  0  0  0  0  0999 V2000
    9.1648   48.6541  132.4372 C   0  0  0  0  0  0  0  0  0  0  0  0
    9.2899   47.3709  132.3927 C   0  0  0  0  0  0  0  0  0  0  0  0
    9.7797   46.4686  133.4857 C   0  0  0  0  0  0  0  0  0  0  0  0
    9.2653   45.2081  133.3904 C   0  0  0  0  0  0  0  0  0  0  0  0
    9.6779   44.2881  134.3369 C   0  0  0  0  0  0  0  0  0  0  0  0
   10.5577   44.6266  135.3217 C   0  0  0  0  0  0  0  0  0  0  0  0
   10.9414   43.6527  136.2540 O   0  0  0  0  0  0  0  0  0  0  0  0
   11.0818   45.9254  135.4165 C   0  0  0  0  0  0  0  0  0  0  0  0
   10.6736   46.8250  134.4850 C   0  0  0  0  0  0  0  0  0  0  0  0
   11.2353   48.1967  134.7320 C   0  0  0  0  0  0  0  0  0  0  0  0
   10.0011   49.0913  134.8017 C   0  0  0  0  0  0  0  0  0  0  0  0
    9.5232   49.6462  133.5500 C   0  0  0  0  0  0  0  0  0  0  0  0
   11.5886   43.9253  136.9666 H   0  0  0  0  0  0  0  0  0  0  0  0
    7.3013   50.8526  129.2816 C   0  0  0  0  0  0  0  0  0  0  0  0
    6.6423   50.4769  130.4322 C   0  0  0  0  0  0  0  0  0  0  0  0
    7.2886   49.7493  131.3904 C   0  0  0  0  0  0  0  0  0  0  0  0
    8.6341   49.3425  131.2757 C   0  0  0  0  0  0  0  0  0  0  0  0
    9.2637   49.7215  130.1435 C   0  0  0  0  0  0  0  0  0  0  0  0
   10.5527   49.4802  129.9252 F   0  0  0  0  0  0  0  0  0  0  0  0
    8.5983   50.4694  129.1564 C   0  0  0  0  0  0  0  0  0  0  0  0
    6.6257   51.5948  128.3139 O   0  0  0  0  0  0  0  0  0  0  0  0
    7.3659   53.3874  126.8627 C   0  0  0  0  0  0  0  0  0  0  0  0
    6.7732   52.9734  128.1833 C   0  0  0  0  0  0  0  0  0  0  0  0
    8.9147   46.6123  131.2210 C   0  0  0  0  0  0  0  0  0  0  0  0
    9.9081   46.5066  130.2153 C   0  0  0  0  0  0  0  0  0  0  0  0
    9.7421   45.7788  129.0814 C   0  0  0  0  0  0  0  0  0  0  0  0
    8.5318   45.0970  128.8909 C   0  0  0  0  0  0  0  0  0  0  0  0
    7.5663   45.2002  129.8695 C   0  0  0  0  0  0  0  0  0  0  0  0
    7.7506   45.9434  131.0159 C   0  0  0  0  0  0  0  0  0  0  0  0
    8.4189   44.3816  127.7376 O   0  0  0  0  0  0  0  0  0  0  0  0
    9.2647   43.3546  127.3411 C   0  0  0  0  0  0  0  0  0  0  0  0
   10.6127   43.9338  127.0118 C   0  0  0  0  0  0  0  0  0  0  0  0
   11.4902   43.4482  128.1714 C   0  0  0  0  0  0  0  0  0  0  0  0
   10.5595   43.2579  129.2122 N   0  0  0  0  0  0  0  0  0  0  0  0
    9.5441   42.4262  128.5431 C   0  0  0  0  0  0  0  0  0  0  0  0
   11.0002   42.6910  130.4151 C   0  0  0  0  0  0  0  0  0  0  0  0
   11.8853   43.4926  131.2695 C   0  0  0  0  0  0  0  0  0  0  0  0
   12.3346   42.9631  132.5673 C   0  0  0  0  0  0  0  0  0  0  0  0
   12.7605   44.0982  133.3188 F   0  0  0  0  0  0  0  0  0  0  0  0
 22 23  1  0  0  0
 23 21  1  0  0  0
 21 14  1  0  0  0
 14 15  2  0  0  0
 15 16  1  0  0  0
 16 17  2  0  0  0
 17 18  1  0  0  0
 18 19  1  0  0  0
 18 20  2  0  0  0
 17  1  1  0  0  0
  1  2  2  0  0  0
  2 24  1  0  0  0
 24 25  2  0  0  0
 25 26  1  0  0  0
 26 27  2  0  0  0
 27 30  1  0  0  0
 30 31  1  0  0  0
 31 32  1  0  0  0
 32 33  1  0  0  0
 33 34  1  0  0  0
 34 36  1  0  0  0
 36 37  1  0  0  0
 37 38  1  0  0  0
 38 39  1  0  0  0
 34 35  1  0  0  0
 27 28  1  0  0  0
 28 29  2  0  0  0
  2  3  1  0  0  0
  3  4  2  0  0  0
  4  5  1  0  0  0
  5  6  2  0  0  0
  6  7  1  0  0  0
  6  8  1  0  0  0
  8  9  2  0  0  0
  9 10  1  0  0  0
 10 11  1  0  0  0
 11 12  1  0  0  0
 20 14  1  0  0  0
 12  1  1  0  0  0
 29 24  1  0  0  0
  9  3  1  0  0  0
 35 31  1  0  0  0
  7 13  1  0  0  0
M  END
> <minimizedAffinity>
7.65022

> <CNNscore>
0.3385542035

> <CNNaffinity>
7.9212441444

> <CNN_VS>
2.6817705631

> <CNNaffinity_variance>
0.4919137061

$$$$
[H]c1c(F)c([C@]2([H])c3c([H])c([H])c4c(c([H])nn4[H])c3C([H])([H])[C@@]([H])(C([H])(F)F)N2C([H])([H])C(F)(C([H])([H])[H])C([H])([H])[H])c(F)c([H])c1OC([H])([H])C([H])([H])N1C([H])([H])C([H])(C([H])([H])F)C1([H])[H]


 39 43  0  0  0  0  0  0  0  0999 V2000
   10.0417   45.8214  132.3303 N   0  0  0  0  0  0  0  0  0  0  0  0
    9.8626   47.0434  133.0008 C   0  0  0  0  0  0  0  0  0  0  0  0
    9.5925   48.2000  132.0557 C   0  0  0  0  0  0  0  0  0  0  0  0
    8.5218   47.8488  131.1374 C   0  0  0  0  0  0  0  0  0  0  0  0
    8.2194   46.5351  130.8898 C   0  0  0  0  0  0  0  0  0  0  0  0
    7.1964   46.2819  130.0034 C   0  0  0  0  0  0  0  0  0  0  0  0
    6.4997   47.3216  129.3859 C   0  0  0  0  0  0  0  0  0  0  0  0
    6.8286   48.6397  129.6570 C   0  0  0  0  0  0  0  0  0  0  0  0
    6.3380   49.8352  129.2180 N   0  0  0  0  0  0  0  0  0  0  0  0
    7.0163   50.8126  129.7968 N   0  0  0  0  0  0  0  0  0  0  0  0
    7.9408   50.2664  130.6058 C   0  0  0  0  0  0  0  0  0  0  0  0
    7.8359   48.8943  130.5293 C   0  0  0  0  0  0  0  0  0  0  0  0
    8.9234   45.3894  131.5263 C   0  0  0  0  0  0  0  0  0  0  0  0
    5.5579   49.9569  128.5386 H   0  0  0  0  0  0  0  0  0  0  0  0
    9.2382   44.3977  130.4894 C   0  0  0  0  0  0  0  0  0  0  0  0
    9.9784   44.7180  129.3580 C   0  0  0  0  0  0  0  0  0  0  0  0
   10.4311   45.9908  129.2430 F   0  0  0  0  0  0  0  0  0  0  0  0
   10.2432   43.7556  128.3992 C   0  0  0  0  0  0  0  0  0  0  0  0
    9.7990   42.4599  128.5112 C   0  0  0  0  0  0  0  0  0  0  0  0
    9.0636   42.1233  129.6291 C   0  0  0  0  0  0  0  0  0  0  0  0
    8.8015   43.0862  130.5829 C   0  0  0  0  0  0  0  0  0  0  0  0
    8.0879   42.7347  131.6785 F   0  0  0  0  0  0  0  0  0  0  0  0
   10.0733   41.5259  127.5439 O   0  0  0  0  0  0  0  0  0  0  0  0
   10.1207   40.1409  127.6836 C   0  0  0  0  0  0  0  0  0  0  0  0
    9.8327   39.5448  126.3163 C   0  0  0  0  0  0  0  0  0  0  0  0
   10.8325   38.6353  125.8552 N   0  0  0  0  0  0  0  0  0  0  0  0
   11.3343   39.0800  124.5543 C   0  0  0  0  0  0  0  0  0  0  0  0
   12.3559   39.9104  125.2838 C   0  0  0  0  0  0  0  0  0  0  0  0
   12.1834   38.8511  126.3659 C   0  0  0  0  0  0  0  0  0  0  0  0
   13.6907   39.8764  124.5714 C   0  0  0  0  0  0  0  0  0  0  0  0
   14.2220   41.1535  124.4400 F   0  0  0  0  0  0  0  0  0  0  0  0
    8.9047   47.0874  134.1507 C   0  0  0  0  0  0  0  0  0  0  0  0
    8.2704   48.2559  134.3830 F   0  0  0  0  0  0  0  0  0  0  0  0
    7.9959   46.0442  134.1482 F   0  0  0  0  0  0  0  0  0  0  0  0
   10.6401   44.7504  133.0019 C   0  0  0  0  0  0  0  0  0  0  0  0
   12.2059   43.0124  132.2166 C   0  0  0  0  0  0  0  0  0  0  0  0
   12.0729   44.4360  132.8061 C   0  0  0  0  0  0  0  0  0  0  0  0
   12.7201   45.3279  131.7339 C   0  0  0  0  0  0  0  0  0  0  0  0
   12.8989   44.4620  133.8713 F   0  0  0  0  0  0  0  0  0  0  0  0
 36 37  1  0  0  0
 37 38  1  0  0  0
 37 39  1  0  0  0
 37 35  1  0  0  0
 35  1  1  0  0  0
  1  2  1  0  0  0
  2  3  1  0  0  0
  3  4  1  0  0  0
  4  5  2  0  0  0
  5  6  1  0  0  0
  6  7  2  0  0  0
  7  8  1  0  0  0
  8  9  1  0  0  0
  9 10  1  0  0  0
 10 11  2  0  0  0
 11 12  1  0  0  0
  5 13  1  0  0  0
 13 15  1  0  0  0
 15 16  2  0  0  0
 16 17  1  0  0  0
 16 18  1  0  0  0
 18 19  2  0  0  0
 19 23  1  0  0  0
 23 24  1  0  0  0
 24 25  1  0  0  0
 25 26  1  0  0  0
 26 27  1  0  0  0
 27 28  1  0  0  0
 28 30  1  0  0  0
 30 31  1  0  0  0
 28 29  1  0  0  0
 19 20  1  0  0  0
 20 21  2  0  0  0
 21 22  1  0  0  0
  2 32  1  0  0  0
 32 33  1  0  0  0
 32 34  1  0  0  0
 13  1  1  0  0  0
 21 15  1  0  0  0
 12  4  1  0  0  0
 29 26  1  0  0  0
 12  8  2  0  0  0
  9 14  1  0  0  0
M  END
> <minimizedAffinity>
5.84718

> <CNNscore>
0.5850301385

> <CNNaffinity>
8.7816257477

> <CNN_VS>
5.1375155449

> <CNNaffinity_variance>
0.1005826741

$$$$
[H]c1c(F)c([C@]2([H])c3c([H])c([H])c4c(c([H])nn4[H])c3C([H])([H])[C@@]([H])(C([H])(F)F)N2C([H])([H])C(F)(C([H])([H])[H])C([H])([H])[H])c(F)c([H])c1OC([H])([H])C([H])([H])N1C([H])([H])C([H])(C([H])([H])F)C1([H])[H]


 39 43  0  0  0  0  0  0  0  0999 V2000
    9.9341   47.5953  132.3337 N   0  0  0  0  0  0  0  0  0  0  0  0
   10.1022   48.9905  132.3185 C   0  0  0  0  0  0  0  0  0  0  0  0
    9.6502   49.6242  131.0155 C   0  0  0  0  0  0  0  0  0  0  0  0
    8.3096   49.1706  130.6835 C   0  0  0  0  0  0  0  0  0  0  0  0
    7.8184   48.0046  131.2106 C   0  0  0  0  0  0  0  0  0  0  0  0
    6.5426   47.6378  130.8446 C   0  0  0  0  0  0  0  0  0  0  0  0
    5.7853   48.4229  129.9739 C   0  0  0  0  0  0  0  0  0  0  0  0
    6.3096   49.5967  129.4579 C   0  0  0  0  0  0  0  0  0  0  0  0
    5.8195   50.5455  128.6081 N   0  0  0  0  0  0  0  0  0  0  0  0
    6.7402   51.4800  128.4361 N   0  0  0  0  0  0  0  0  0  0  0  0
    7.8215   51.1494  129.1635 C   0  0  0  0  0  0  0  0  0  0  0  0
    7.5662   49.9622  129.8152 C   0  0  0  0  0  0  0  0  0  0  0  0
    8.5785   47.1353  132.1487 C   0  0  0  0  0  0  0  0  0  0  0  0
    4.8756   50.5347  128.1677 H   0  0  0  0  0  0  0  0  0  0  0  0
    8.4404   45.7398  131.7114 C   0  0  0  0  0  0  0  0  0  0  0  0
    8.3644   45.3879  130.3694 C   0  0  0  0  0  0  0  0  0  0  0  0
    8.4443   46.3841  129.4531 F   0  0  0  0  0  0  0  0  0  0  0  0
    8.2232   44.0613  130.0005 C   0  0  0  0  0  0  0  0  0  0  0  0
    8.1525   43.0427  130.9204 C   0  0  0  0  0  0  0  0  0  0  0  0
    8.2279   43.3734  132.2578 C   0  0  0  0  0  0  0  0  0  0  0  0
    8.3685   44.6977  132.6215 C   0  0  0  0  0  0  0  0  0  0  0  0
    8.4520   45.0021  133.9380 F   0  0  0  0  0  0  0  0  0  0  0  0
    8.0095   41.7357  130.5274 O   0  0  0  0  0  0  0  0  0  0  0  0
    8.8306   41.0075  129.6698 C   0  0  0  0  0  0  0  0  0  0  0  0
   10.0692   41.8497  129.4165 C   0  0  0  0  0  0  0  0  0  0  0  0
   10.2049   42.2945  128.0663 N   0  0  0  0  0  0  0  0  0  0  0  0
    9.3828   43.4877  127.8603 C   0  0  0  0  0  0  0  0  0  0  0  0
   10.5578   44.3174  128.3038 C   0  0  0  0  0  0  0  0  0  0  0  0
   11.3638   43.1351  127.7791 C   0  0  0  0  0  0  0  0  0  0  0  0
   10.6729   45.5793  127.4765 C   0  0  0  0  0  0  0  0  0  0  0  0
   11.0382   46.6641  128.2643 F   0  0  0  0  0  0  0  0  0  0  0  0
    9.5817   49.7799  133.4794 C   0  0  0  0  0  0  0  0  0  0  0  0
    9.3863   49.1184  134.6395 F   0  0  0  0  0  0  0  0  0  0  0  0
   10.2873   50.9475  133.7098 F   0  0  0  0  0  0  0  0  0  0  0  0
   10.6136   46.8317  133.2884 C   0  0  0  0  0  0  0  0  0  0  0  0
   11.6880   44.6334  133.6078 C   0  0  0  0  0  0  0  0  0  0  0  0
   11.7854   46.0105  132.9107 C   0  0  0  0  0  0  0  0  0  0  0  0
   11.7847   45.6541  131.4151 C   0  0  0  0  0  0  0  0  0  0  0  0
   13.0219   46.4684  133.1918 F   0  0  0  0  0  0  0  0  0  0  0  0
 36 37  1  0  0  0
 37 38  1  0  0  0
 37 39  1  0  0  0
 37 35  1  0  0  0
 35  1  1  0  0  0
  1  2  1  0  0  0
  2  3  1  0  0  0
  3  4  1  0  0  0
  4  5  2  0  0  0
  5  6  1  0  0  0
  6  7  2  0  0  0
  7  8  1  0  0  0
  8  9  1  0  0  0
  9 10  1  0  0  0
 10 11  2  0  0  0
 11 12  1  0  0  0
  5 13  1  0  0  0
 13 15  1  0  0  0
 15 16  2  0  0  0
 16 17  1  0  0  0
 16 18  1  0  0  0
 18 19  2  0  0  0
 19 23  1  0  0  0
 23 24  1  0  0  0
 24 25  1  0  0  0
 25 26  1  0  0  0
 26 27  1  0  0  0
 27 28  1  0  0  0
 28 30  1  0  0  0
 30 31  1  0  0  0
 28 29  1  0  0  0
 19 20  1  0  0  0
 20 21  2  0  0  0
 21 22  1  0  0  0
  2 32  1  0  0  0
 32 33  1  0  0  0
 32 34  1  0  0  0
 13  1  1  0  0  0
 21 15  1  0  0  0
 12  4  1  0  0  0
 29 26  1  0  0  0
 12  8  2  0  0  0
  9 14  1  0  0  0
M  END
> <minimizedAffinity>
4.22459

> <CNNscore>
0.4051833153

> <CNNaffinity>
8.2546491623

> <CNN_VS>
3.3446462154

> <CNNaffinity_variance>
0.2273329496

$$$$
[H]c1c(F)c([C@]2([H])c3c([H])c([H])c4c(c([H])nn4[H])c3C([H])([H])[C@@]([H])(C([H])(F)F)N2C([H])([H])C(F)(C([H])([H])[H])C([H])([H])[H])c(F)c([H])c1OC([H])([H])C([H])([H])N1C([H])([H])C([H])(C([H])([H])F)C1([H])[H]


 39 43  0  0  0  0  0  0  0  0999 V2000
    9.6046   45.4427  130.0810 N   0  0  0  0  0  0  0  0  0  0  0  0
   10.2989   44.4145  130.7412 C   0  0  0  0  0  0  0  0  0  0  0  0
   10.8710   44.8532  132.0770 C   0  0  0  0  0  0  0  0  0  0  0  0
    9.8364   45.4946  132.8716 C   0  0  0  0  0  0  0  0  0  0  0  0
    8.7271   46.0293  132.2699 C   0  0  0  0  0  0  0  0  0  0  0  0
    7.7941   46.6257  133.0884 C   0  0  0  0  0  0  0  0  0  0  0  0
    7.9741   46.6808  134.4714 C   0  0  0  0  0  0  0  0  0  0  0  0
    9.1061   46.1307  135.0501 C   0  0  0  0  0  0  0  0  0  0  0  0
    9.5447   46.0344  136.3389 N   0  0  0  0  0  0  0  0  0  0  0  0
   10.7080   45.4043  136.3472 N   0  0  0  0  0  0  0  0  0  0  0  0
   11.0299   45.0906  135.0801 C   0  0  0  0  0  0  0  0  0  0  0  0
   10.0285   45.5424  134.2479 C   0  0  0  0  0  0  0  0  0  0  0  0
    8.4813   45.9908  130.8031 C   0  0  0  0  0  0  0  0  0  0  0  0
    9.0449   46.3978  137.1774 H   0  0  0  0  0  0  0  0  0  0  0  0
    8.0399   47.3219  130.3663 C   0  0  0  0  0  0  0  0  0  0  0  0
    6.7666   47.5510  129.8595 C   0  0  0  0  0  0  0  0  0  0  0  0
    5.9161   46.4970  129.7972 F   0  0  0  0  0  0  0  0  0  0  0  0
    6.3946   48.8193  129.4484 C   0  0  0  0  0  0  0  0  0  0  0  0
    7.2447   49.8969  129.5177 C   0  0  0  0  0  0  0  0  0  0  0  0
    8.5128   49.6884  130.0198 C   0  0  0  0  0  0  0  0  0  0  0  0
    8.8799   48.4219  130.4285 C   0  0  0  0  0  0  0  0  0  0  0  0
   10.1245   48.2386  130.9288 F   0  0  0  0  0  0  0  0  0  0  0  0
    6.8511   51.1435  129.1003 O   0  0  0  0  0  0  0  0  0  0  0  0
    7.6254   52.1188  128.4765 C   0  0  0  0  0  0  0  0  0  0  0  0
    6.7469   52.7842  127.4309 C   0  0  0  0  0  0  0  0  0  0  0  0
    7.1668   54.1005  127.0698 N   0  0  0  0  0  0  0  0  0  0  0  0
    8.4220   54.0244  126.3211 C   0  0  0  0  0  0  0  0  0  0  0  0
    7.6091   53.8848  125.0620 C   0  0  0  0  0  0  0  0  0  0  0  0
    6.5669   54.6583  125.8609 C   0  0  0  0  0  0  0  0  0  0  0  0
    8.2367   54.6591  123.9232 C   0  0  0  0  0  0  0  0  0  0  0  0
    8.2666   53.9021  122.7584 F   0  0  0  0  0  0  0  0  0  0  0  0
    9.6277   43.0838  130.8839 C   0  0  0  0  0  0  0  0  0  0  0  0
    8.3249   43.0080  130.5394 F   0  0  0  0  0  0  0  0  0  0  0  0
   10.3354   42.0469  130.3023 F   0  0  0  0  0  0  0  0  0  0  0  0
    9.3311   45.3200  128.7148 C   0  0  0  0  0  0  0  0  0  0  0  0
   11.7606   44.9556  128.4832 C   0  0  0  0  0  0  0  0  0  0  0  0
   10.3946   44.9404  127.7583 C   0  0  0  0  0  0  0  0  0  0  0  0
   10.2568   43.4832  127.2876 C   0  0  0  0  0  0  0  0  0  0  0  0
   10.5695   45.6838  126.6473 F   0  0  0  0  0  0  0  0  0  0  0  0
 36 37  1  0  0  0
 37 38  1  0  0  0
 37 39  1  0  0  0
 37 35  1  0  0  0
 35  1  1  0  0  0
  1  2  1  0  0  0
  2  3  1  0  0  0
  3  4  1  0  0  0
  4  5  2  0  0  0
  5  6  1  0  0  0
  6  7  2  0  0  0
  7  8  1  0  0  0
  8  9  1  0  0  0
  9 10  1  0  0  0
 10 11  2  0  0  0
 11 12  1  0  0  0
  5 13  1  0  0  0
 13 15  1  0  0  0
 15 16  2  0  0  0
 16 17  1  0  0  0
 16 18  1  0  0  0
 18 19  2  0  0  0
 19 23  1  0  0  0
 23 24  1  0  0  0
 24 25  1  0  0  0
 25 26  1  0  0  0
 26 27  1  0  0  0
 27 28  1  0  0  0
 28 30  1  0  0  0
 30 31  1  0  0  0
 28 29  1  0  0  0
 19 20  1  0  0  0
 20 21  2  0  0  0
 21 22  1  0  0  0
  2 32  1  0  0  0
 32 33  1  0  0  0
 32 34  1  0  0  0
 13  1  1  0  0  0
 21 15  1  0  0  0
 12  4  1  0  0  0
 29 26  1  0  0  0
 12  8  2  0  0  0
  9 14  1  0  0  0
M  END
> <minimizedAffinity>
-0.45989

> <CNNscore>
0.3603497744

> <CNNaffinity>
7.8901252747

> <CNN_VS>
2.8432049751

> <CNNaffinity_variance>
0.2396707535

$$$$
[H]c1c(F)c([C@]2([H])c3c([H])c([H])c4c(c([H])nn4[H])c3C([H])([H])[C@@]([H])(C([H])(F)F)N2C([H])([H])C(F)(C([H])([H])[H])C([H])([H])[H])c(F)c([H])c1OC([H])([H])C([H])([H])N1C([H])([H])C([H])(C([H])([H])F)C1([H])[H]


 39 43  0  0  0  0  0  0  0  0999 V2000
    9.5553   44.2153  131.1719 N   0  0  0  0  0  0  0  0  0  0  0  0
   10.0785   42.9843  130.7408 C   0  0  0  0  0  0  0  0  0  0  0  0
   11.1504   43.1397  129.6774 C   0  0  0  0  0  0  0  0  0  0  0  0
   12.1470   44.1026  130.1164 C   0  0  0  0  0  0  0  0  0  0  0  0
   11.8422   45.0316  131.0769 C   0  0  0  0  0  0  0  0  0  0  0  0
   12.8366   45.9139  131.4359 C   0  0  0  0  0  0  0  0  0  0  0  0
   14.0997   45.8607  130.8446 C   0  0  0  0  0  0  0  0  0  0  0  0
   14.3775   44.9095  129.8766 C   0  0  0  0  0  0  0  0  0  0  0  0
   15.4904   44.6211  129.1412 N   0  0  0  0  0  0  0  0  0  0  0  0
   15.2222   43.5990  128.3452 N   0  0  0  0  0  0  0  0  0  0  0  0
   13.9492   43.2206  128.5547 C   0  0  0  0  0  0  0  0  0  0  0  0
   13.4010   44.0382  129.5192 C   0  0  0  0  0  0  0  0  0  0  0  0
   10.5164   45.1272  131.7450 C   0  0  0  0  0  0  0  0  0  0  0  0
   16.4009   45.1239  129.1981 H   0  0  0  0  0  0  0  0  0  0  0  0
   10.1069   46.5376  131.7755 C   0  0  0  0  0  0  0  0  0  0  0  0
   10.0335   47.2625  132.9586 C   0  0  0  0  0  0  0  0  0  0  0  0
   10.3776   46.6282  134.1064 F   0  0  0  0  0  0  0  0  0  0  0  0
    9.6320   48.5870  132.9441 C   0  0  0  0  0  0  0  0  0  0  0  0
    9.2920   49.2429  131.7853 C   0  0  0  0  0  0  0  0  0  0  0  0
    9.3604   48.5391  130.6005 C   0  0  0  0  0  0  0  0  0  0  0  0
    9.7612   47.2182  130.6193 C   0  0  0  0  0  0  0  0  0  0  0  0
    9.8331   46.5468  129.4458 F   0  0  0  0  0  0  0  0  0  0  0  0
    8.8941   50.5561  131.7997 O   0  0  0  0  0  0  0  0  0  0  0  0
    8.2519   51.2647  130.7871 C   0  0  0  0  0  0  0  0  0  0  0  0
    6.8015   50.8130  130.7776 C   0  0  0  0  0  0  0  0  0  0  0  0
    6.3167   50.4380  129.4877 N   0  0  0  0  0  0  0  0  0  0  0  0
    7.1996   49.4237  128.9103 C   0  0  0  0  0  0  0  0  0  0  0  0
    6.3591   48.3736  129.5859 C   0  0  0  0  0  0  0  0  0  0  0  0
    5.2638   49.4265  129.4651 C   0  0  0  0  0  0  0  0  0  0  0  0
    6.1782   47.1663  128.6916 C   0  0  0  0  0  0  0  0  0  0  0  0
    7.0399   46.1387  129.0555 F   0  0  0  0  0  0  0  0  0  0  0  0
   10.5252   42.0015  131.7782 C   0  0  0  0  0  0  0  0  0  0  0  0
   11.7978   42.1004  132.2167 F   0  0  0  0  0  0  0  0  0  0  0  0
    9.6577   41.9040  132.8516 F   0  0  0  0  0  0  0  0  0  0  0  0
    8.3409   44.2408  131.8653 C   0  0  0  0  0  0  0  0  0  0  0  0
    7.4262   45.1952  133.9488 C   0  0  0  0  0  0  0  0  0  0  0  0
    8.3019   44.0777  133.3356 C   0  0  0  0  0  0  0  0  0  0  0  0
    7.5795   42.7873  133.7561 C   0  0  0  0  0  0  0  0  0  0  0  0
    9.4589   44.1082  134.0271 F   0  0  0  0  0  0  0  0  0  0  0  0
 36 37  1  0  0  0
 37 38  1  0  0  0
 37 39  1  0  0  0
 37 35  1  0  0  0
 35  1  1  0  0  0
  1  2  1  0  0  0
  2  3  1  0  0  0
  3  4  1  0  0  0
  4  5  2  0  0  0
  5  6  1  0  0  0
  6  7  2  0  0  0
  7  8  1  0  0  0
  8  9  1  0  0  0
  9 10  1  0  0  0
 10 11  2  0  0  0
 11 12  1  0  0  0
  5 13  1  0  0  0
 13 15  1  0  0  0
 15 16  2  0  0  0
 16 17  1  0  0  0
 16 18  1  0  0  0
 18 19  2  0  0  0
 19 23  1  0  0  0
 23 24  1  0  0  0
 24 25  1  0  0  0
 25 26  1  0  0  0
 26 27  1  0  0  0
 27 28  1  0  0  0
 28 30  1  0  0  0
 30 31  1  0  0  0
 28 29  1  0  0  0
 19 20  1  0  0  0
 20 21  2  0  0  0
 21 22  1  0  0  0
  2 32  1  0  0  0
 32 33  1  0  0  0
 32 34  1  0  0  0
 13  1  1  0  0  0
 21 15  1  0  0  0
 12  4  1  0  0  0
 29 26  1  0  0  0
 12  8  2  0  0  0
  9 14  1  0  0  0
M  END
> <minimizedAffinity>
9.13964

> <CNNscore>
0.3520841002

> <CNNaffinity>
8.0736551285

> <CNN_VS>
2.8426055908

> <CNNaffinity_variance>
0.2953043878

$$$$
[H]c1c(F)c([C@]2([H])c3c([H])c([H])c4c(c([H])nn4[H])c3C([H])([H])[C@@]([H])(C([H])(F)F)N2C([H])([H])C(F)(C([H])([H])[H])C([H])([H])[H])c(F)c([H])c1OC([H])([H])C([H])([H])N1C([H])([H])C([H])(C([H])([H])F)C1([H])[H]


 39 43  0  0  0  0  0  0  0  0999 V2000
   10.4094   46.5430  131.8151 N   0  0  0  0  0  0  0  0  0  0  0  0
   10.2874   47.8563  132.3002 C   0  0  0  0  0  0  0  0  0  0  0  0
    9.7491   48.8212  131.2596 C   0  0  0  0  0  0  0  0  0  0  0  0
    8.5395   48.2801  130.6619 C   0  0  0  0  0  0  0  0  0  0  0  0
    8.2848   46.9340  130.7022 C   0  0  0  0  0  0  0  0  0  0  0  0
    7.1216   46.4964  130.1090 C   0  0  0  0  0  0  0  0  0  0  0  0
    6.2423   47.3890  129.4943 C   0  0  0  0  0  0  0  0  0  0  0  0
    6.5274   48.7444  129.4703 C   0  0  0  0  0  0  0  0  0  0  0  0
    5.8752   49.8282  128.9580 N   0  0  0  0  0  0  0  0  0  0  0  0
    6.5884   50.9135  129.2109 N   0  0  0  0  0  0  0  0  0  0  0  0
    7.6951   50.5476  129.8808 C   0  0  0  0  0  0  0  0  0  0  0  0
    7.6723   49.1804  130.0530 C   0  0  0  0  0  0  0  0  0  0  0  0
    9.1825   45.9406  131.3508 C   0  0  0  0  0  0  0  0  0  0  0  0
    4.9656   49.8038  128.4511 H   0  0  0  0  0  0  0  0  0  0  0  0
    9.3457   44.7948  130.4462 C   0  0  0  0  0  0  0  0  0  0  0  0
   10.1173   44.8652  129.2929 C   0  0  0  0  0  0  0  0  0  0  0  0
   10.7471   46.0365  129.0289 F   0  0  0  0  0  0  0  0  0  0  0  0
   10.2356   43.7649  128.4616 C   0  0  0  0  0  0  0  0  0  0  0  0
    9.6109   42.5696  128.7255 C   0  0  0  0  0  0  0  0  0  0  0  0
    8.8416   42.4808  129.8674 C   0  0  0  0  0  0  0  0  0  0  0  0
    8.7260   43.5806  130.6937 C   0  0  0  0  0  0  0  0  0  0  0  0
    7.9760   43.4714  131.8156 F   0  0  0  0  0  0  0  0  0  0  0  0
    9.7427   41.4948  127.8825 O   0  0  0  0  0  0  0  0  0  0  0  0
   10.6814   41.3146  126.8694 C   0  0  0  0  0  0  0  0  0  0  0  0
   10.4705   39.9183  126.3094 C   0  0  0  0  0  0  0  0  0  0  0  0
   11.4162   39.5439  125.3069 N   0  0  0  0  0  0  0  0  0  0  0  0
   12.7709   39.8241  125.7847 C   0  0  0  0  0  0  0  0  0  0  0  0
   12.7928   38.4462  126.3900 C   0  0  0  0  0  0  0  0  0  0  0  0
   11.7988   38.1350  125.2773 C   0  0  0  0  0  0  0  0  0  0  0  0
   14.1522   37.8025  126.2230 C   0  0  0  0  0  0  0  0  0  0  0  0
   14.8749   37.8415  127.4091 F   0  0  0  0  0  0  0  0  0  0  0  0
    9.5856   48.0674  133.6058 C   0  0  0  0  0  0  0  0  0  0  0  0
   10.1044   47.4580  134.6926 F   0  0  0  0  0  0  0  0  0  0  0  0
    9.3301   49.3987  133.8827 F   0  0  0  0  0  0  0  0  0  0  0  0
   11.2061   45.6257  132.5080 C   0  0  0  0  0  0  0  0  0  0  0  0
   11.3826   43.5969  133.9013 C   0  0  0  0  0  0  0  0  0  0  0  0
   10.7227   44.9876  133.7527 C   0  0  0  0  0  0  0  0  0  0  0  0
   11.1906   45.7406  135.0088 C   0  0  0  0  0  0  0  0  0  0  0  0
    9.4003   44.7757  133.9071 F   0  0  0  0  0  0  0  0  0  0  0  0
 36 37  1  0  0  0
 37 38  1  0  0  0
 37 39  1  0  0  0
 37 35  1  0  0  0
 35  1  1  0  0  0
  1  2  1  0  0  0
  2  3  1  0  0  0
  3  4  1  0  0  0
  4  5  2  0  0  0
  5  6  1  0  0  0
  6  7  2  0  0  0
  7  8  1  0  0  0
  8  9  1  0  0  0
  9 10  1  0  0  0
 10 11  2  0  0  0
 11 12  1  0  0  0
  5 13  1  0  0  0
 13 15  1  0  0  0
 15 16  2  0  0  0
 16 17  1  0  0  0
 16 18  1  0  0  0
 18 19  2  0  0  0
 19 23  1  0  0  0
 23 24  1  0  0  0
 24 25  1  0  0  0
 25 26  1  0  0  0
 26 27  1  0  0  0
 27 28  1  0  0  0
 28 30  1  0  0  0
 30 31  1  0  0  0
 28 29  1  0  0  0
 19 20  1  0  0  0
 20 21  2  0  0  0
 21 22  1  0  0  0
  2 32  1  0  0  0
 32 33  1  0  0  0
 32 34  1  0  0  0
 13  1  1  0  0  0
 21 15  1  0  0  0
 12  4  1  0  0  0
 29 26  1  0  0  0
 12  8  2  0  0  0
  9 14  1  0  0  0
M  END
> <minimizedAffinity>
7.08113

> <CNNscore>
0.3519242704

> <CNNaffinity>
8.2987308502

> <CNN_VS>
2.9205248356

> <CNNaffinity_variance>
0.6153063178

$$$$
[H]c1c(F)c([C@]2([H])c3c([H])c([H])c4c(c([H])nn4[H])c3C([H])([H])[C@@]([H])(C([H])(F)F)N2C([H])([H])C(F)(C([H])([H])[H])C([H])([H])[H])c(F)c([H])c1OC([H])([H])C([H])([H])N1C([H])([H])C([H])(C([H])([H])F)C1([H])[H]


 39 43  0  0  0  0  0  0  0  0999 V2000
    9.9495   45.7028  129.3094 N   0  0  0  0  0  0  0  0  0  0  0  0
    9.2687   46.2527  128.2098 C   0  0  0  0  0  0  0  0  0  0  0  0
    8.1323   47.1716  128.6199 C   0  0  0  0  0  0  0  0  0  0  0  0
    8.6086   48.1457  129.5882 C   0  0  0  0  0  0  0  0  0  0  0  0
    9.7350   47.8983  130.3287 C   0  0  0  0  0  0  0  0  0  0  0  0
   10.1200   48.8659  131.2297 C   0  0  0  0  0  0  0  0  0  0  0  0
    9.3914   50.0469  131.3790 C   0  0  0  0  0  0  0  0  0  0  0  0
    8.2569   50.2681  130.6154 C   0  0  0  0  0  0  0  0  0  0  0  0
    7.3655   51.2989  130.5422 N   0  0  0  0  0  0  0  0  0  0  0  0
    6.4486   51.0058  129.6344 N   0  0  0  0  0  0  0  0  0  0  0  0
    6.7339   49.7978  129.1179 C   0  0  0  0  0  0  0  0  0  0  0  0
    7.8733   49.3177  129.7267 C   0  0  0  0  0  0  0  0  0  0  0  0
   10.5529   46.6618  130.2038 C   0  0  0  0  0  0  0  0  0  0  0  0
    7.4018   52.1724  131.1085 H   0  0  0  0  0  0  0  0  0  0  0  0
   10.8574   46.1625  131.5512 C   0  0  0  0  0  0  0  0  0  0  0  0
   12.0773   45.5769  131.8663 C   0  0  0  0  0  0  0  0  0  0  0  0
   13.0077   45.4956  130.8835 F   0  0  0  0  0  0  0  0  0  0  0  0
   12.3194   45.1091  133.1463 C   0  0  0  0  0  0  0  0  0  0  0  0
   11.3878   45.1967  134.1529 C   0  0  0  0  0  0  0  0  0  0  0  0
   10.1710   45.7768  133.8586 C   0  0  0  0  0  0  0  0  0  0  0  0
    9.9335   46.2418  132.5806 C   0  0  0  0  0  0  0  0  0  0  0  0
    8.7379   46.8181  132.3133 F   0  0  0  0  0  0  0  0  0  0  0  0
   11.6527   44.7220  135.4129 O   0  0  0  0  0  0  0  0  0  0  0  0
   11.4361   43.4367  135.9039 C   0  0  0  0  0  0  0  0  0  0  0  0
   10.0532   43.0101  135.4417 C   0  0  0  0  0  0  0  0  0  0  0  0
   10.0618   42.1074  134.3351 N   0  0  0  0  0  0  0  0  0  0  0  0
    8.6891   41.8760  133.8832 C   0  0  0  0  0  0  0  0  0  0  0  0
    8.8358   43.0678  132.9757 C   0  0  0  0  0  0  0  0  0  0  0  0
   10.3138   42.6990  133.0241 C   0  0  0  0  0  0  0  0  0  0  0  0
    8.1646   42.8194  131.6423 C   0  0  0  0  0  0  0  0  0  0  0  0
    7.8713   44.0150  130.9979 F   0  0  0  0  0  0  0  0  0  0  0  0
   10.0765   46.8912  127.1229 C   0  0  0  0  0  0  0  0  0  0  0  0
   11.2428   47.4704  127.4778 F   0  0  0  0  0  0  0  0  0  0  0  0
   10.2670   46.0699  126.0258 F   0  0  0  0  0  0  0  0  0  0  0  0
   10.7683   44.5845  129.1214 C   0  0  0  0  0  0  0  0  0  0  0  0
   10.2175   42.2125  129.5197 C   0  0  0  0  0  0  0  0  0  0  0  0
   10.2438   43.3579  128.4809 C   0  0  0  0  0  0  0  0  0  0  0  0
    8.7686   43.5033  128.0728 C   0  0  0  0  0  0  0  0  0  0  0  0
   10.8871   42.8549  127.4082 F   0  0  0  0  0  0  0  0  0  0  0  0
 36 37  1  0  0  0
 37 38  1  0  0  0
 37 39  1  0  0  0
 37 35  1  0  0  0
 35  1  1  0  0  0
  1  2  1  0  0  0
  2  3  1  0  0  0
  3  4  1  0  0  0
  4  5  2  0  0  0
  5  6  1  0  0  0
  6  7  2  0  0  0
  7  8  1  0  0  0
  8  9  1  0  0  0
  9 10  1  0  0  0
 10 11  2  0  0  0
 11 12  1  0  0  0
  5 13  1  0  0  0
 13 15  1  0  0  0
 15 16  2  0  0  0
 16 17  1  0  0  0
 16 18  1  0  0  0
 18 19  2  0  0  0
 19 23  1  0  0  0
 23 24  1  0  0  0
 24 25  1  0  0  0
 25 26  1  0  0  0
 26 27  1  0  0  0
 27 28  1  0  0  0
 28 30  1  0  0  0
 30 31  1  0  0  0
 28 29  1  0  0  0
 19 20  1  0  0  0
 20 21  2  0  0  0
 21 22  1  0  0  0
  2 32  1  0  0  0
 32 33  1  0  0  0
 32 34  1  0  0  0
 13  1  1  0  0  0
 21 15  1  0  0  0
 12  4  1  0  0  0
 29 26  1  0  0  0
 12  8  2  0  0  0
  9 14  1  0  0  0
M  END
> <minimizedAffinity>
4.48635

> <CNNscore>
0.3341509104

> <CNNaffinity>
8.1072616577

> <CNN_VS>
2.7090487480

> <CNNaffinity_variance>
0.2345812768

$$$$
[H]c1c(F)c([C@]2([H])c3c([H])c([H])c4c(c([H])nn4[H])c3C([H])([H])[C@@]([H])(C([H])(F)F)N2C([H])([H])C(F)(C([H])([H])[H])C([H])([H])[H])c(F)c([H])c1OC([H])([H])C([H])([H])N1C([H])([H])C([H])(C([H])([H])F)C1([H])[H]


 39 43  0  0  0  0  0  0  0  0999 V2000
    9.8081   44.4883  129.5473 N   0  0  0  0  0  0  0  0  0  0  0  0
    9.2157   45.0822  128.4197 C   0  0  0  0  0  0  0  0  0  0  0  0
    8.2943   46.2344  128.7764 C   0  0  0  0  0  0  0  0  0  0  0  0
    8.9810   47.1616  129.6606 C   0  0  0  0  0  0  0  0  0  0  0  0
   10.0588   46.7498  130.4004 C   0  0  0  0  0  0  0  0  0  0  0  0
   10.6528   47.6839  131.2195 C   0  0  0  0  0  0  0  0  0  0  0  0
   10.1746   48.9933  131.2900 C   0  0  0  0  0  0  0  0  0  0  0  0
    9.0832   49.3794  130.5294 C   0  0  0  0  0  0  0  0  0  0  0  0
    8.4093   50.5582  130.3918 N   0  0  0  0  0  0  0  0  0  0  0  0
    7.4261   50.3882  129.5231 N   0  0  0  0  0  0  0  0  0  0  0  0
    7.4534   49.1140  129.0952 C   0  0  0  0  0  0  0  0  0  0  0  0
    8.4943   48.4627  129.7211 C   0  0  0  0  0  0  0  0  0  0  0  0
   10.6142   45.3703  130.3570 C   0  0  0  0  0  0  0  0  0  0  0  0
    8.6331   51.4454  130.8897 H   0  0  0  0  0  0  0  0  0  0  0  0
   10.8551   44.9181  131.7336 C   0  0  0  0  0  0  0  0  0  0  0  0
   12.1349   44.8012  132.2619 C   0  0  0  0  0  0  0  0  0  0  0  0
   13.1772   45.1431  131.4651 F   0  0  0  0  0  0  0  0  0  0  0  0
   12.3183   44.3602  133.5611 C   0  0  0  0  0  0  0  0  0  0  0  0
   11.2686   44.0218  134.3811 C   0  0  0  0  0  0  0  0  0  0  0  0
    9.9903   44.1332  133.8737 C   0  0  0  0  0  0  0  0  0  0  0  0
    9.8118   44.5731  132.5775 C   0  0  0  0  0  0  0  0  0  0  0  0
    8.5498   44.6867  132.1004 F   0  0  0  0  0  0  0  0  0  0  0  0
   11.4788   43.5844  135.6646 O   0  0  0  0  0  0  0  0  0  0  0  0
   11.0864   44.1994  136.8511 C   0  0  0  0  0  0  0  0  0  0  0  0
    9.8263   44.9916  136.5471 C   0  0  0  0  0  0  0  0  0  0  0  0
   10.0359   46.4000  136.4387 N   0  0  0  0  0  0  0  0  0  0  0  0
   10.3534   46.7411  135.0513 C   0  0  0  0  0  0  0  0  0  0  0  0
    8.8772   46.8913  134.7988 C   0  0  0  0  0  0  0  0  0  0  0  0
    8.8366   47.2192  136.2866 C   0  0  0  0  0  0  0  0  0  0  0  0
    8.6007   48.0647  133.8840 C   0  0  0  0  0  0  0  0  0  0  0  0
    7.8812   47.6685  132.7633 F   0  0  0  0  0  0  0  0  0  0  0  0
   10.1001   45.4692  127.2753 C   0  0  0  0  0  0  0  0  0  0  0  0
   10.8620   46.5727  127.4281 F   0  0  0  0  0  0  0  0  0  0  0  0
   10.8680   44.4226  126.7966 F   0  0  0  0  0  0  0  0  0  0  0  0
   10.3858   43.2197  129.4320 C   0  0  0  0  0  0  0  0  0  0  0  0
   10.5506   41.6588  131.3359 C   0  0  0  0  0  0  0  0  0  0  0  0
    9.7571   42.0384  130.0639 C   0  0  0  0  0  0  0  0  0  0  0  0
    8.3501   42.3488  130.6005 C   0  0  0  0  0  0  0  0  0  0  0  0
    9.6499   40.8974  129.3539 F   0  0  0  0  0  0  0  0  0  0  0  0
 36 37  1  0  0  0
 37 38  1  0  0  0
 37 39  1  0  0  0
 37 35  1  0  0  0
 35  1  1  0  0  0
  1  2  1  0  0  0
  2  3  1  0  0  0
  3  4  1  0  0  0
  4  5  2  0  0  0
  5  6  1  0  0  0
  6  7  2  0  0  0
  7  8  1  0  0  0
  8  9  1  0  0  0
  9 10  1  0  0  0
 10 11  2  0  0  0
 11 12  1  0  0  0
  5 13  1  0  0  0
 13 15  1  0  0  0
 15 16  2  0  0  0
 16 17  1  0  0  0
 16 18  1  0  0  0
 18 19  2  0  0  0
 19 23  1  0  0  0
 23 24  1  0  0  0
 24 25  1  0  0  0
 25 26  1  0  0  0
 26 27  1  0  0  0
 27 28  1  0  0  0
 28 30  1  0  0  0
 30 31  1  0  0  0
 28 29  1  0  0  0
 19 20  1  0  0  0
 20 21  2  0  0  0
 21 22  1  0  0  0
  2 32  1  0  0  0
 32 33  1  0  0  0
 32 34  1  0  0  0
 13  1  1  0  0  0
 21 15  1  0  0  0
 12  4  1  0  0  0
 29 26  1  0  0  0
 12  8  2  0  0  0
  9 14  1  0  0  0
M  END
> <minimizedAffinity>
3.65946

> <CNNscore>
0.3246249855

> <CNNaffinity>
8.1292123795

> <CNN_VS>
2.6389453411

> <CNNaffinity_variance>
0.3198300898

$$$$
[H]c1c(F)c([C@]2([H])c3c([H])c([H])c4c(c([H])nn4[H])c3C([H])([H])[C@@]([H])(C([H])(F)F)N2C([H])([H])C(F)(C([H])([H])[H])C([H])([H])[H])c(F)c([H])c1OC([H])([H])C([H])([H])N1C([H])([H])C([H])(C([H])([H])F)C1([H])[H]


 39 43  0  0  0  0  0  0  0  0999 V2000
    9.3513   46.4075  132.5729 N   0  0  0  0  0  0  0  0  0  0  0  0
    9.8169   45.1142  132.8654 C   0  0  0  0  0  0  0  0  0  0  0  0
    9.4014   44.0892  131.8258 C   0  0  0  0  0  0  0  0  0  0  0  0
    9.7380   44.5692  130.4957 C   0  0  0  0  0  0  0  0  0  0  0  0
    9.9153   45.9082  130.2626 C   0  0  0  0  0  0  0  0  0  0  0  0
   10.2264   46.2863  128.9755 C   0  0  0  0  0  0  0  0  0  0  0  0
   10.3549   45.3430  127.9549 C   0  0  0  0  0  0  0  0  0  0  0  0
   10.1700   43.9964  128.2221 C   0  0  0  0  0  0  0  0  0  0  0  0
   10.2292   42.8731  127.4493 N   0  0  0  0  0  0  0  0  0  0  0  0
    9.9674   41.8204  128.2068 N   0  0  0  0  0  0  0  0  0  0  0  0
    9.7391   42.2465  129.4614 C   0  0  0  0  0  0  0  0  0  0  0  0
    9.8630   43.6189  129.4884 C   0  0  0  0  0  0  0  0  0  0  0  0
    9.7988   46.9541  131.3141 C   0  0  0  0  0  0  0  0  0  0  0  0
   10.4449   42.8495  126.4305 H   0  0  0  0  0  0  0  0  0  0  0  0
    8.9926   48.0626  130.7860 C   0  0  0  0  0  0  0  0  0  0  0  0
    9.4498   49.3747  130.7812 C   0  0  0  0  0  0  0  0  0  0  0  0
   10.6940   49.6083  131.2665 F   0  0  0  0  0  0  0  0  0  0  0  0
    8.6532   50.3917  130.2842 C   0  0  0  0  0  0  0  0  0  0  0  0
    7.3952   50.1645  129.7795 C   0  0  0  0  0  0  0  0  0  0  0  0
    6.9253   48.8673  129.7749 C   0  0  0  0  0  0  0  0  0  0  0  0
    7.7228   47.8560  130.2717 C   0  0  0  0  0  0  0  0  0  0  0  0
    7.2494   46.5878  130.2488 F   0  0  0  0  0  0  0  0  0  0  0  0
    6.6249   51.1920  129.2956 O   0  0  0  0  0  0  0  0  0  0  0  0
    7.0115   52.5081  129.0539 C   0  0  0  0  0  0  0  0  0  0  0  0
    7.1124   52.6735  127.5471 C   0  0  0  0  0  0  0  0  0  0  0  0
    7.2176   54.0310  127.1161 N   0  0  0  0  0  0  0  0  0  0  0  0
    8.3619   54.1696  126.2143 C   0  0  0  0  0  0  0  0  0  0  0  0
    7.4443   53.8260  125.0716 C   0  0  0  0  0  0  0  0  0  0  0  0
    6.3761   54.4142  125.9859 C   0  0  0  0  0  0  0  0  0  0  0  0
    7.7630   54.6616  123.8508 C   0  0  0  0  0  0  0  0  0  0  0  0
    7.0785   54.1989  122.7336 F   0  0  0  0  0  0  0  0  0  0  0  0
   11.2651   44.9418  133.2040 C   0  0  0  0  0  0  0  0  0  0  0  0
   11.9206   46.0194  133.6845 F   0  0  0  0  0  0  0  0  0  0  0  0
   11.5152   43.8381  134.0000 F   0  0  0  0  0  0  0  0  0  0  0  0
    9.3357   47.3766  133.5813 C   0  0  0  0  0  0  0  0  0  0  0  0
    8.0113   48.2840  135.4551 C   0  0  0  0  0  0  0  0  0  0  0  0
    8.8026   47.0650  134.9263 C   0  0  0  0  0  0  0  0  0  0  0  0
    7.7492   45.9458  134.8866 C   0  0  0  0  0  0  0  0  0  0  0  0
    9.6641   46.7415  135.9115 F   0  0  0  0  0  0  0  0  0  0  0  0
 36 37  1  0  0  0
 37 38  1  0  0  0
 37 39  1  0  0  0
 37 35  1  0  0  0
 35  1  1  0  0  0
  1  2  1  0  0  0
  2  3  1  0  0  0
  3  4  1  0  0  0
  4  5  2  0  0  0
  5  6  1  0  0  0
  6  7  2  0  0  0
  7  8  1  0  0  0
  8  9  1  0  0  0
  9 10  1  0  0  0
 10 11  2  0  0  0
 11 12  1  0  0  0
  5 13  1  0  0  0
 13 15  1  0  0  0
 15 16  2  0  0  0
 16 17  1  0  0  0
 16 18  1  0  0  0
 18 19  2  0  0  0
 19 23  1  0  0  0
 23 24  1  0  0  0
 24 25  1  0  0  0
 25 26  1  0  0  0
 26 27  1  0  0  0
 27 28  1  0  0  0
 28 30  1  0  0  0
 30 31  1  0  0  0
 28 29  1  0  0  0
 19 20  1  0  0  0
 20 21  2  0  0  0
 21 22  1  0  0  0
  2 32  1  0  0  0
 32 33  1  0  0  0
 32 34  1  0  0  0
 13  1  1  0  0  0
 21 15  1  0  0  0
 12  4  1  0  0  0
 29 26  1  0  0  0
 12  8  2  0  0  0
  9 14  1  0  0  0
M  END
> <minimizedAffinity>
-2.55404

> <CNNscore>
0.3231720924

> <CNNaffinity>
7.9583587646

> <CNN_VS>
2.5719194412

> <CNNaffinity_variance>
0.2364544868

$$$$
[H]c1c(F)c([C@]2([H])c3c([H])c([H])c4c(c([H])nn4[H])c3C([H])([H])[C@@]([H])(C([H])(F)F)N2C([H])([H])C(F)(C([H])([H])[H])C([H])([H])[H])c(F)c([H])c1OC([H])([H])C([H])([H])N1C([H])([H])C([H])(C([H])([H])F)C1([H])[H]


 39 43  0  0  0  0  0  0  0  0999 V2000
    9.8090   43.8060  133.0154 N   0  0  0  0  0  0  0  0  0  0  0  0
    9.7436   42.5136  132.4672 C   0  0  0  0  0  0  0  0  0  0  0  0
    9.1640   42.4973  131.0645 C   0  0  0  0  0  0  0  0  0  0  0  0
    9.8489   43.4748  130.2347 C   0  0  0  0  0  0  0  0  0  0  0  0
   10.5154   44.5279  130.8052 C   0  0  0  0  0  0  0  0  0  0  0  0
   11.1345   45.4154  129.9536 C   0  0  0  0  0  0  0  0  0  0  0  0
   11.0833   45.2460  128.5692 C   0  0  0  0  0  0  0  0  0  0  0  0
   10.4018   44.1709  128.0226 C   0  0  0  0  0  0  0  0  0  0  0  0
   10.1853   43.7550  126.7409 N   0  0  0  0  0  0  0  0  0  0  0  0
    9.4591   42.6494  126.7685 N   0  0  0  0  0  0  0  0  0  0  0  0
    9.2015   42.3428  128.0520 C   0  0  0  0  0  0  0  0  0  0  0  0
    9.7899   43.2939  128.8573 C   0  0  0  0  0  0  0  0  0  0  0  0
   10.6086   44.7511  132.2731 C   0  0  0  0  0  0  0  0  0  0  0  0
   10.5348   44.2307  125.8826 H   0  0  0  0  0  0  0  0  0  0  0  0
   10.3314   46.1666  132.5509 C   0  0  0  0  0  0  0  0  0  0  0  0
    9.0386   46.6528  132.7017 C   0  0  0  0  0  0  0  0  0  0  0  0
    8.0183   45.7652  132.6054 F   0  0  0  0  0  0  0  0  0  0  0  0
    8.8209   47.9967  132.9517 C   0  0  0  0  0  0  0  0  0  0  0  0
    9.8481   48.9030  133.0624 C   0  0  0  0  0  0  0  0  0  0  0  0
   11.1389   48.4377  132.9171 C   0  0  0  0  0  0  0  0  0  0  0  0
   11.3517   47.0967  132.6676 C   0  0  0  0  0  0  0  0  0  0  0  0
   12.6254   46.6564  132.5390 F   0  0  0  0  0  0  0  0  0  0  0  0
    9.6039   50.2309  133.3078 O   0  0  0  0  0  0  0  0  0  0  0  0
    9.1879   51.2038  132.4022 C   0  0  0  0  0  0  0  0  0  0  0  0
    8.0665   50.5951  131.5777 C   0  0  0  0  0  0  0  0  0  0  0  0
    8.3985   50.3911  130.2038 N   0  0  0  0  0  0  0  0  0  0  0  0
    8.6266   48.9656  129.9631 C   0  0  0  0  0  0  0  0  0  0  0  0
    7.1551   48.8250  129.6796 C   0  0  0  0  0  0  0  0  0  0  0  0
    7.2736   50.2905  129.2781 C   0  0  0  0  0  0  0  0  0  0  0  0
    6.9135   47.8710  128.5300 C   0  0  0  0  0  0  0  0  0  0  0  0
    5.5735   47.5124  128.4487 F   0  0  0  0  0  0  0  0  0  0  0  0
   10.9697   41.6564  132.5245 C   0  0  0  0  0  0  0  0  0  0  0  0
   10.7886   40.3265  132.6665 F   0  0  0  0  0  0  0  0  0  0  0  0
   11.8643   41.9086  131.4995 F   0  0  0  0  0  0  0  0  0  0  0  0
    9.9755   43.9592  134.3957 C   0  0  0  0  0  0  0  0  0  0  0  0
   11.5003   43.2966  136.2190 C   0  0  0  0  0  0  0  0  0  0  0  0
   11.3148   44.1997  134.9773 C   0  0  0  0  0  0  0  0  0  0  0  0
   12.4441   43.7487  134.0364 C   0  0  0  0  0  0  0  0  0  0  0  0
   11.6353   45.4435  135.3871 F   0  0  0  0  0  0  0  0  0  0  0  0
 36 37  1  0  0  0
 37 38  1  0  0  0
 37 39  1  0  0  0
 37 35  1  0  0  0
 35  1  1  0  0  0
  1  2  1  0  0  0
  2  3  1  0  0  0
  3  4  1  0  0  0
  4  5  2  0  0  0
  5  6  1  0  0  0
  6  7  2  0  0  0
  7  8  1  0  0  0
  8  9  1  0  0  0
  9 10  1  0  0  0
 10 11  2  0  0  0
 11 12  1  0  0  0
  5 13  1  0  0  0
 13 15  1  0  0  0
 15 16  2  0  0  0
 16 17  1  0  0  0
 16 18  1  0  0  0
 18 19  2  0  0  0
 19 23  1  0  0  0
 23 24  1  0  0  0
 24 25  1  0  0  0
 25 26  1  0  0  0
 26 27  1  0  0  0
 27 28  1  0  0  0
 28 30  1  0  0  0
 30 31  1  0  0  0
 28 29  1  0  0  0
 19 20  1  0  0  0
 20 21  2  0  0  0
 21 22  1  0  0  0
  2 32  1  0  0  0
 32 33  1  0  0  0
 32 34  1  0  0  0
 13  1  1  0  0  0
 21 15  1  0  0  0
 12  4  1  0  0  0
 29 26  1  0  0  0
 12  8  2  0  0  0
  9 14  1  0  0  0
M  END
> <minimizedAffinity>
4.04629

> <CNNscore>
0.3208055794

> <CNNaffinity>
8.2820720673

> <CNN_VS>
2.6569349766

> <CNNaffinity_variance>
0.3305741251

$$$$
[H]Oc1c([H])c(C([H])([H])C([H])([H])[H])c(-c2noc3c([H])c(O[H])c([H])c([H])c23)c([H])c1C([H])([H])C([H])([H])C([H])([H])[H]


 24 26  0  0  0  0  0  0  0  0999 V2000
   10.8325   44.5089  132.8633 C   0  0  0  0  0  0  0  0  0  0  0  0
    9.7944   45.2114  132.2636 C   0  0  0  0  0  0  0  0  0  0  0  0
    9.7327   45.3401  130.8998 C   0  0  0  0  0  0  0  0  0  0  0  0
   10.7540   44.7352  130.1495 C   0  0  0  0  0  0  0  0  0  0  0  0
   11.7847   44.0398  130.7156 C   0  0  0  0  0  0  0  0  0  0  0  0
   11.8302   43.9192  132.1084 C   0  0  0  0  0  0  0  0  0  0  0  0
   12.8690   43.2068  132.6857 O   0  0  0  0  0  0  0  0  0  0  0  0
   12.8873   43.0818  133.6792 H   0  0  0  0  0  0  0  0  0  0  0  0
    8.7179   46.1068  130.2032 C   0  0  0  0  0  0  0  0  0  0  0  0
    7.6709   45.5970  129.4805 N   0  0  0  0  0  0  0  0  0  0  0  0
    6.9074   46.5371  129.0483 O   0  0  0  0  0  0  0  0  0  0  0  0
    7.3443   47.7179  129.4199 C   0  0  0  0  0  0  0  0  0  0  0  0
    6.8682   48.9979  129.2051 C   0  0  0  0  0  0  0  0  0  0  0  0
    7.5534   50.0695  129.7356 C   0  0  0  0  0  0  0  0  0  0  0  0
    7.1176   51.3986  129.5497 O   0  0  0  0  0  0  0  0  0  0  0  0
    8.6968   49.8290  130.4668 C   0  0  0  0  0  0  0  0  0  0  0  0
    9.1825   48.5580  130.6870 C   0  0  0  0  0  0  0  0  0  0  0  0
    8.5083   47.4629  130.1622 C   0  0  0  0  0  0  0  0  0  0  0  0
    6.2877   51.5992  129.0218 H   0  0  0  0  0  0  0  0  0  0  0  0
   10.6251   44.9008  128.6756 C   0  0  0  0  0  0  0  0  0  0  0  0
   10.2038   43.6277  127.9906 C   0  0  0  0  0  0  0  0  0  0  0  0
   10.9479   44.4138  134.3531 C   0  0  0  0  0  0  0  0  0  0  0  0
    9.3682   46.1664  135.0705 C   0  0  0  0  0  0  0  0  0  0  0  0
   10.8345   45.8371  134.9045 C   0  0  0  0  0  0  0  0  0  0  0  0
 23 24  1  0  0  0
 24 22  1  0  0  0
 22  1  1  0  0  0
  1  2  2  0  0  0
  2  3  1  0  0  0
  3  9  1  0  0  0
  9 10  2  0  0  0
 10 11  1  0  0  0
 11 12  1  0  0  0
 12 13  2  0  0  0
 13 14  1  0  0  0
 14 15  1  0  0  0
 14 16  2  0  0  0
 16 17  1  0  0  0
 17 18  2  0  0  0
  3  4  2  0  0  0
  4 20  1  0  0  0
 20 21  1  0  0  0
  4  5  1  0  0  0
  5  6  2  0  0  0
  6  7  1  0  0  0
  6  1  1  0  0  0
 18  9  1  0  0  0
 18 12  1  0  0  0
 15 19  1  0  0  0
  7  8  1  0  0  0
M  END
> <minimizedAffinity>
-8.86311

> <CNNscore>
0.7583723664

> <CNNaffinity>
7.9008932114

> <CNN_VS>
5.9918189049

> <CNNaffinity_variance>
0.9200156927

$$$$
[H]Oc1c([H])c(C([H])([H])C([H])([H])[H])c(-c2noc3c([H])c(O[H])c([H])c([H])c23)c([H])c1C([H])([H])C([H])([H])C([H])([H])[H]


 24 26  0  0  0  0  0  0  0  0999 V2000
   10.2771   43.8221  132.6875 C   0  0  0  0  0  0  0  0  0  0  0  0
    9.7751   45.1042  132.5001 C   0  0  0  0  0  0  0  0  0  0  0  0
    9.8038   45.6928  131.2620 C   0  0  0  0  0  0  0  0  0  0  0  0
   10.3558   44.9475  130.2077 C   0  0  0  0  0  0  0  0  0  0  0  0
   10.8555   43.6860  130.3667 C   0  0  0  0  0  0  0  0  0  0  0  0
   10.8171   43.1022  131.6373 C   0  0  0  0  0  0  0  0  0  0  0  0
   11.3146   41.8194  131.8005 O   0  0  0  0  0  0  0  0  0  0  0  0
   11.2546   41.3791  132.6980 H   0  0  0  0  0  0  0  0  0  0  0  0
    9.3565   47.0468  130.9978 C   0  0  0  0  0  0  0  0  0  0  0  0
   10.0962   48.1898  131.1557 N   0  0  0  0  0  0  0  0  0  0  0  0
    9.4372   49.2232  130.7666 O   0  0  0  0  0  0  0  0  0  0  0  0
    8.2444   48.8938  130.3288 C   0  0  0  0  0  0  0  0  0  0  0  0
    7.2004   49.6411  129.8160 C   0  0  0  0  0  0  0  0  0  0  0  0
    6.0429   49.0030  129.4259 C   0  0  0  0  0  0  0  0  0  0  0  0
    4.9434   49.7115  128.8967 O   0  0  0  0  0  0  0  0  0  0  0  0
    5.9633   47.6336  129.5603 C   0  0  0  0  0  0  0  0  0  0  0  0
    6.9963   46.8773  130.0712 C   0  0  0  0  0  0  0  0  0  0  0  0
    8.1725   47.4990  130.4705 C   0  0  0  0  0  0  0  0  0  0  0  0
    4.9775   50.7089  128.7885 H   0  0  0  0  0  0  0  0  0  0  0  0
   10.3480   45.6361  128.8878 C   0  0  0  0  0  0  0  0  0  0  0  0
   10.6802   44.7036  127.7531 C   0  0  0  0  0  0  0  0  0  0  0  0
   10.3106   43.1913  134.0450 C   0  0  0  0  0  0  0  0  0  0  0  0
   12.5902   44.1121  134.2378 C   0  0  0  0  0  0  0  0  0  0  0  0
   11.2395   44.0429  134.9137 C   0  0  0  0  0  0  0  0  0  0  0  0
 23 24  1  0  0  0
 24 22  1  0  0  0
 22  1  1  0  0  0
  1  2  2  0  0  0
  2  3  1  0  0  0
  3  9  1  0  0  0
  9 10  2  0  0  0
 10 11  1  0  0  0
 11 12  1  0  0  0
 12 13  2  0  0  0
 13 14  1  0  0  0
 14 15  1  0  0  0
 14 16  2  0  0  0
 16 17  1  0  0  0
 17 18  2  0  0  0
  3  4  2  0  0  0
  4 20  1  0  0  0
 20 21  1  0  0  0
  4  5  1  0  0  0
  5  6  2  0  0  0
  6  7  1  0  0  0
  6  1  1  0  0  0
 18  9  1  0  0  0
 18 12  1  0  0  0
 15 19  1  0  0  0
  7  8  1  0  0  0
M  END
> <minimizedAffinity>
-7.65490

> <CNNscore>
0.7170271277

> <CNNaffinity>
7.7219724655

> <CNN_VS>
5.5368638039

> <CNNaffinity_variance>
0.8979557157

$$$$
[H]Oc1c([H])c(C([H])([H])C([H])([H])[H])c(-c2noc3c([H])c(O[H])c([H])c([H])c23)c([H])c1C([H])([H])C([H])([H])C([H])([H])[H]


 24 26  0  0  0  0  0  0  0  0999 V2000
   12.0209   44.8875  131.3565 C   0  0  0  0  0  0  0  0  0  0  0  0
   11.3724   46.0891  131.0995 C   0  0  0  0  0  0  0  0  0  0  0  0
   10.6561   46.7219  132.0827 C   0  0  0  0  0  0  0  0  0  0  0  0
   10.6114   46.1061  133.3439 C   0  0  0  0  0  0  0  0  0  0  0  0
   11.2402   44.9254  133.6210 C   0  0  0  0  0  0  0  0  0  0  0  0
   11.9664   44.2952  132.6051 C   0  0  0  0  0  0  0  0  0  0  0  0
   12.6131   43.1021  132.8849 O   0  0  0  0  0  0  0  0  0  0  0  0
   13.1679   42.6650  132.1749 H   0  0  0  0  0  0  0  0  0  0  0  0
    9.9029   47.9441  131.8776 C   0  0  0  0  0  0  0  0  0  0  0  0
   10.2376   49.1896  132.3416 N   0  0  0  0  0  0  0  0  0  0  0  0
    9.4028   50.0758  131.9277 O   0  0  0  0  0  0  0  0  0  0  0  0
    8.4671   49.5399  131.1791 C   0  0  0  0  0  0  0  0  0  0  0  0
    7.3782   50.0790  130.5197 C   0  0  0  0  0  0  0  0  0  0  0  0
    6.5542   49.2498  129.7897 C   0  0  0  0  0  0  0  0  0  0  0  0
    5.4277   49.7409  129.0965 O   0  0  0  0  0  0  0  0  0  0  0  0
    6.8442   47.9032  129.7406 C   0  0  0  0  0  0  0  0  0  0  0  0
    7.9258   47.3532  130.3945 C   0  0  0  0  0  0  0  0  0  0  0  0
    8.7700   48.1698  131.1359 C   0  0  0  0  0  0  0  0  0  0  0  0
    5.1962   50.7175  129.1166 H   0  0  0  0  0  0  0  0  0  0  0  0
    9.8281   46.8467  134.3708 C   0  0  0  0  0  0  0  0  0  0  0  0
    8.4753   46.2315  134.6133 C   0  0  0  0  0  0  0  0  0  0  0  0
   12.7536   44.1532  130.2766 C   0  0  0  0  0  0  0  0  0  0  0  0
   10.7647   43.7696  128.8699 C   0  0  0  0  0  0  0  0  0  0  0  0
   12.0788   44.5131  128.9508 C   0  0  0  0  0  0  0  0  0  0  0  0
 23 24  1  0  0  0
 24 22  1  0  0  0
 22  1  1  0  0  0
  1  2  2  0  0  0
  2  3  1  0  0  0
  3  9  1  0  0  0
  9 10  2  0  0  0
 10 11  1  0  0  0
 11 12  1  0  0  0
 12 13  2  0  0  0
 13 14  1  0  0  0
 14 15  1  0  0  0
 14 16  2  0  0  0
 16 17  1  0  0  0
 17 18  2  0  0  0
  3  4  2  0  0  0
  4 20  1  0  0  0
 20 21  1  0  0  0
  4  5  1  0  0  0
  5  6  2  0  0  0
  6  7  1  0  0  0
  6  1  1  0  0  0
 18  9  1  0  0  0
 18 12  1  0  0  0
 15 19  1  0  0  0
  7  8  1  0  0  0
M  END
> <minimizedAffinity>
-9.28932

> <CNNscore>
0.7142931819

> <CNNaffinity>
7.3909692764

> <CNN_VS>
5.2793188095

> <CNNaffinity_variance>
0.1891484559

$$$$
[H]Oc1c([H])c(C([H])([H])C([H])([H])[H])c(-c2noc3c([H])c(O[H])c([H])c([H])c23)c([H])c1C([H])([H])C([H])([H])C([H])([H])[H]


 24 26  0  0  0  0  0  0  0  0999 V2000
   10.0335   43.6795  130.7691 C   0  0  0  0  0  0  0  0  0  0  0  0
    9.6415   45.0120  130.7300 C   0  0  0  0  0  0  0  0  0  0  0  0
   10.1832   45.9264  131.5965 C   0  0  0  0  0  0  0  0  0  0  0  0
   11.1403   45.4579  132.5110 C   0  0  0  0  0  0  0  0  0  0  0  0
   11.5418   44.1534  132.5690 C   0  0  0  0  0  0  0  0  0  0  0  0
   10.9779   43.2355  131.6767 C   0  0  0  0  0  0  0  0  0  0  0  0
   11.3894   41.9133  131.7264 O   0  0  0  0  0  0  0  0  0  0  0  0
   11.0203   41.2582  131.0650 H   0  0  0  0  0  0  0  0  0  0  0  0
    9.7834   47.3190  131.6593 C   0  0  0  0  0  0  0  0  0  0  0  0
   10.1943   48.2388  132.5886 N   0  0  0  0  0  0  0  0  0  0  0  0
    9.7175   49.4040  132.3266 O   0  0  0  0  0  0  0  0  0  0  0  0
    8.9731   49.3849  131.2455 C   0  0  0  0  0  0  0  0  0  0  0  0
    8.2679   50.3716  130.5818 C   0  0  0  0  0  0  0  0  0  0  0  0
    7.5647   50.0465  129.4421 C   0  0  0  0  0  0  0  0  0  0  0  0
    6.8256   51.0091  128.7224 O   0  0  0  0  0  0  0  0  0  0  0  0
    7.5875   48.7416  128.9987 C   0  0  0  0  0  0  0  0  0  0  0  0
    8.2855   47.7485  129.6519 C   0  0  0  0  0  0  0  0  0  0  0  0
    9.0016   48.0532  130.8024 C   0  0  0  0  0  0  0  0  0  0  0  0
    6.7941   51.9657  129.0250 H   0  0  0  0  0  0  0  0  0  0  0  0
   11.6985   46.4997  133.4162 C   0  0  0  0  0  0  0  0  0  0  0  0
   12.5063   45.9084  134.5411 C   0  0  0  0  0  0  0  0  0  0  0  0
    9.4051   42.6579  129.8728 C   0  0  0  0  0  0  0  0  0  0  0  0
    8.0744   42.8009  131.9441 C   0  0  0  0  0  0  0  0  0  0  0  0
    8.1410   42.1588  130.5769 C   0  0  0  0  0  0  0  0  0  0  0  0
 23 24  1  0  0  0
 24 22  1  0  0  0
 22  1  1  0  0  0
  1  2  2  0  0  0
  2  3  1  0  0  0
  3  9  1  0  0  0
  9 10  2  0  0  0
 10 11  1  0  0  0
 11 12  1  0  0  0
 12 13  2  0  0  0
 13 14  1  0  0  0
 14 15  1  0  0  0
 14 16  2  0  0  0
 16 17  1  0  0  0
 17 18  2  0  0  0
  3  4  2  0  0  0
  4 20  1  0  0  0
 20 21  1  0  0  0
  4  5  1  0  0  0
  5  6  2  0  0  0
  6  7  1  0  0  0
  6  1  1  0  0  0
 18  9  1  0  0  0
 18 12  1  0  0  0
 15 19  1  0  0  0
  7  8  1  0  0  0
M  END
> <minimizedAffinity>
-6.58375

> <CNNscore>
0.5902369618

> <CNNaffinity>
7.6295547485

> <CNN_VS>
4.5032453537

> <CNNaffinity_variance>
1.5629427433

$$$$
[H]Oc1c([H])c(C([H])([H])C([H])([H])[H])c(-c2noc3c([H])c(O[H])c([H])c([H])c23)c([H])c1C([H])([H])C([H])([H])C([H])([H])[H]


 24 26  0  0  0  0  0  0  0  0999 V2000
   11.7494   44.4295  131.6967 C   0  0  0  0  0  0  0  0  0  0  0  0
   10.7472   45.0737  130.9816 C   0  0  0  0  0  0  0  0  0  0  0  0
    9.6355   45.5613  131.6193 C   0  0  0  0  0  0  0  0  0  0  0  0
    9.5607   45.3818  133.0100 C   0  0  0  0  0  0  0  0  0  0  0  0
   10.5325   44.7520  133.7349 C   0  0  0  0  0  0  0  0  0  0  0  0
   11.6592   44.2616  133.0665 C   0  0  0  0  0  0  0  0  0  0  0  0
   12.6512   43.6304  133.7996 O   0  0  0  0  0  0  0  0  0  0  0  0
   13.4792   43.3121  133.3348 H   0  0  0  0  0  0  0  0  0  0  0  0
    8.5206   46.1900  130.9376 C   0  0  0  0  0  0  0  0  0  0  0  0
    7.3336   45.5917  130.6034 N   0  0  0  0  0  0  0  0  0  0  0  0
    6.5238   46.4379  130.0726 O   0  0  0  0  0  0  0  0  0  0  0  0
    7.0602   47.6338  130.0002 C   0  0  0  0  0  0  0  0  0  0  0  0
    6.5856   48.8409  129.5217 C   0  0  0  0  0  0  0  0  0  0  0  0
    7.3946   49.9549  129.5828 C   0  0  0  0  0  0  0  0  0  0  0  0
    6.9667   51.2135  129.1096 O   0  0  0  0  0  0  0  0  0  0  0  0
    8.6569   49.8288  130.1217 C   0  0  0  0  0  0  0  0  0  0  0  0
    9.1423   48.6309  130.6009 C   0  0  0  0  0  0  0  0  0  0  0  0
    8.3445   47.4951  130.5499 C   0  0  0  0  0  0  0  0  0  0  0  0
    6.0519   51.3307  128.7136 H   0  0  0  0  0  0  0  0  0  0  0  0
    8.3364   45.9423  133.6451 C   0  0  0  0  0  0  0  0  0  0  0  0
    8.6545   47.0023  134.6661 C   0  0  0  0  0  0  0  0  0  0  0  0
   12.9382   43.8362  131.0062 C   0  0  0  0  0  0  0  0  0  0  0  0
   14.4397   44.3802  129.1271 C   0  0  0  0  0  0  0  0  0  0  0  0
   13.0109   44.4676  129.6138 C   0  0  0  0  0  0  0  0  0  0  0  0
 23 24  1  0  0  0
 24 22  1  0  0  0
 22  1  1  0  0  0
  1  2  2  0  0  0
  2  3  1  0  0  0
  3  9  1  0  0  0
  9 10  2  0  0  0
 10 11  1  0  0  0
 11 12  1  0  0  0
 12 13  2  0  0  0
 13 14  1  0  0  0
 14 15  1  0  0  0
 14 16  2  0  0  0
 16 17  1  0  0  0
 17 18  2  0  0  0
  3  4  2  0  0  0
  4 20  1  0  0  0
 20 21  1  0  0  0
  4  5  1  0  0  0
  5  6  2  0  0  0
  6  7  1  0  0  0
  6  1  1  0  0  0
 18  9  1  0  0  0
 18 12  1  0  0  0
 15 19  1  0  0  0
  7  8  1  0  0  0
M  END
> <minimizedAffinity>
-8.30657

> <CNNscore>
0.5087855458

> <CNNaffinity>
7.3672814369

> <CNN_VS>
3.7483663559

> <CNNaffinity_variance>
0.7477320433

$$$$
[H]Oc1c([H])c(C([H])([H])C([H])([H])[H])c(-c2noc3c([H])c(O[H])c([H])c([H])c23)c([H])c1C([H])([H])C([H])([H])C([H])([H])[H]


 24 26  0  0  0  0  0  0  0  0999 V2000
    9.3429   43.7770  130.3632 C   0  0  0  0  0  0  0  0  0  0  0  0
    9.7225   44.6554  131.3707 C   0  0  0  0  0  0  0  0  0  0  0  0
    9.4802   46.0001  131.2545 C   0  0  0  0  0  0  0  0  0  0  0  0
    8.8380   46.4396  130.0857 C   0  0  0  0  0  0  0  0  0  0  0  0
    8.4554   45.5960  129.0816 C   0  0  0  0  0  0  0  0  0  0  0  0
    8.7109   44.2276  129.2185 C   0  0  0  0  0  0  0  0  0  0  0  0
    8.3161   43.3677  128.2063 O   0  0  0  0  0  0  0  0  0  0  0  0
    8.4593   42.3824  128.3142 H   0  0  0  0  0  0  0  0  0  0  0  0
    9.8989   46.9863  132.2318 C   0  0  0  0  0  0  0  0  0  0  0  0
    9.2010   48.1059  132.6033 N   0  0  0  0  0  0  0  0  0  0  0  0
    9.8081   48.7366  133.5452 O   0  0  0  0  0  0  0  0  0  0  0  0
   10.9228   48.1325  133.8853 C   0  0  0  0  0  0  0  0  0  0  0  0
   11.8903   48.4234  134.8289 C   0  0  0  0  0  0  0  0  0  0  0  0
   12.9737   47.5825  134.9645 C   0  0  0  0  0  0  0  0  0  0  0  0
   13.9935   47.8273  135.9084 O   0  0  0  0  0  0  0  0  0  0  0  0
   13.0578   46.4732  134.1508 C   0  0  0  0  0  0  0  0  0  0  0  0
   12.1007   46.1727  133.2054 C   0  0  0  0  0  0  0  0  0  0  0  0
   11.0000   47.0057  133.0513 C   0  0  0  0  0  0  0  0  0  0  0  0
   13.9544   48.6280  136.5126 H   0  0  0  0  0  0  0  0  0  0  0  0
    8.5933   47.9069  130.0241 C   0  0  0  0  0  0  0  0  0  0  0  0
    7.6510   48.2845  128.9120 C   0  0  0  0  0  0  0  0  0  0  0  0
    9.6574   42.3154  130.4472 C   0  0  0  0  0  0  0  0  0  0  0  0
   11.0030   40.6676  131.6944 C   0  0  0  0  0  0  0  0  0  0  0  0
   10.6464   42.1339  131.6012 C   0  0  0  0  0  0  0  0  0  0  0  0
 23 24  1  0  0  0
 24 22  1  0  0  0
 22  1  1  0  0  0
  1  2  2  0  0  0
  2  3  1  0  0  0
  3  9  1  0  0  0
  9 10  2  0  0  0
 10 11  1  0  0  0
 11 12  1  0  0  0
 12 13  2  0  0  0
 13 14  1  0  0  0
 14 15  1  0  0  0
 14 16  2  0  0  0
 16 17  1  0  0  0
 17 18  2  0  0  0
  3  4  2  0  0  0
  4 20  1  0  0  0
 20 21  1  0  0  0
  4  5  1  0  0  0
  5  6  2  0  0  0
  6  7  1  0  0  0
  6  1  1  0  0  0
 18  9  1  0  0  0
 18 12  1  0  0  0
 15 19  1  0  0  0
  7  8  1  0  0  0
M  END
> <minimizedAffinity>
4.83202

> <CNNscore>
0.3998107612

> <CNNaffinity>
6.8775901794

> <CNN_VS>
2.7497346401

> <CNNaffinity_variance>
2.2222354412

$$$$
[H]Oc1c([H])c(C([H])([H])C([H])([H])[H])c(-c2noc3c([H])c(O[H])c([H])c([H])c23)c([H])c1C([H])([H])C([H])([H])C([H])([H])[H]


 24 26  0  0  0  0  0  0  0  0999 V2000
    6.9413   49.0141  129.8638 C   0  0  0  0  0  0  0  0  0  0  0  0
    7.4410   47.7872  130.2828 C   0  0  0  0  0  0  0  0  0  0  0  0
    8.5771   47.7186  131.0475 C   0  0  0  0  0  0  0  0  0  0  0  0
    9.2013   48.9309  131.3828 C   0  0  0  0  0  0  0  0  0  0  0  0
    8.7296   50.1492  130.9831 C   0  0  0  0  0  0  0  0  0  0  0  0
    7.5691   50.1987  130.2038 C   0  0  0  0  0  0  0  0  0  0  0  0
    7.0826   51.4330  129.8041 O   0  0  0  0  0  0  0  0  0  0  0  0
    6.2305   51.4795  129.2799 H   0  0  0  0  0  0  0  0  0  0  0  0
    9.1944   46.4769  131.4724 C   0  0  0  0  0  0  0  0  0  0  0  0
    9.7631   46.2316  132.6950 N   0  0  0  0  0  0  0  0  0  0  0  0
   10.1565   45.0106  132.7842 O   0  0  0  0  0  0  0  0  0  0  0  0
    9.9033   44.3440  131.6821 C   0  0  0  0  0  0  0  0  0  0  0  0
   10.1327   43.0317  131.3129 C   0  0  0  0  0  0  0  0  0  0  0  0
    9.7443   42.6061  130.0610 C   0  0  0  0  0  0  0  0  0  0  0  0
    9.9525   41.2798  129.6268 O   0  0  0  0  0  0  0  0  0  0  0  0
    9.1367   43.5073  129.2134 C   0  0  0  0  0  0  0  0  0  0  0  0
    8.9035   44.8186  129.5689 C   0  0  0  0  0  0  0  0  0  0  0  0
    9.2862   45.2695  130.8257 C   0  0  0  0  0  0  0  0  0  0  0  0
   10.3922   40.6050  130.2260 H   0  0  0  0  0  0  0  0  0  0  0  0
   10.4224   48.7908  132.2229 C   0  0  0  0  0  0  0  0  0  0  0  0
   10.2436   49.3807  133.5967 C   0  0  0  0  0  0  0  0  0  0  0  0
    5.7387   49.1014  128.9761 C   0  0  0  0  0  0  0  0  0  0  0  0
    4.7037   46.9635  129.6393 C   0  0  0  0  0  0  0  0  0  0  0  0
    5.4169   47.6782  128.5139 C   0  0  0  0  0  0  0  0  0  0  0  0
 23 24  1  0  0  0
 24 22  1  0  0  0
 22  1  1  0  0  0
  1  2  2  0  0  0
  2  3  1  0  0  0
  3  9  1  0  0  0
  9 10  2  0  0  0
 10 11  1  0  0  0
 11 12  1  0  0  0
 12 13  2  0  0  0
 13 14  1  0  0  0
 14 15  1  0  0  0
 14 16  2  0  0  0
 16 17  1  0  0  0
 17 18  2  0  0  0
  3  4  2  0  0  0
  4 20  1  0  0  0
 20 21  1  0  0  0
  4  5  1  0  0  0
  5  6  2  0  0  0
  6  7  1  0  0  0
  6  1  1  0  0  0
 18  9  1  0  0  0
 18 12  1  0  0  0
 15 19  1  0  0  0
  7  8  1  0  0  0
M  END
> <minimizedAffinity>
-5.94552

> <CNNscore>
0.3850989938

> <CNNaffinity>
7.0177307129

> <CNN_VS>
2.7025210857

> <CNNaffinity_variance>
0.6371213794

$$$$
[H]Oc1c([H])c(C([H])([H])C([H])([H])[H])c(-c2noc3c([H])c(O[H])c([H])c([H])c23)c([H])c1C([H])([H])C([H])([H])C([H])([H])[H]


 24 26  0  0  0  0  0  0  0  0999 V2000
    8.7646   48.2619  130.5515 C   0  0  0  0  0  0  0  0  0  0  0  0
    9.4025   47.1356  131.0568 C   0  0  0  0  0  0  0  0  0  0  0  0
    9.5057   46.9379  132.4098 C   0  0  0  0  0  0  0  0  0  0  0  0
    8.9425   47.9140  133.2476 C   0  0  0  0  0  0  0  0  0  0  0  0
    8.3107   49.0293  132.7750 C   0  0  0  0  0  0  0  0  0  0  0  0
    8.2152   49.2132  131.3916 C   0  0  0  0  0  0  0  0  0  0  0  0
    7.5671   50.3386  130.9085 O   0  0  0  0  0  0  0  0  0  0  0  0
    7.4594   50.4578  129.9200 H   0  0  0  0  0  0  0  0  0  0  0  0
   10.2073   45.8221  133.0146 C   0  0  0  0  0  0  0  0  0  0  0  0
   10.7301   45.7842  134.2810 N   0  0  0  0  0  0  0  0  0  0  0  0
   11.2250   44.6262  134.5414 O   0  0  0  0  0  0  0  0  0  0  0  0
   11.0908   43.8081  133.5236 C   0  0  0  0  0  0  0  0  0  0  0  0
   11.4551   42.4880  133.3345 C   0  0  0  0  0  0  0  0  0  0  0  0
   11.1730   41.8767  132.1320 C   0  0  0  0  0  0  0  0  0  0  0  0
   11.5209   40.5328  131.8794 O   0  0  0  0  0  0  0  0  0  0  0  0
   10.5335   42.6051  131.1521 C   0  0  0  0  0  0  0  0  0  0  0  0
   10.1662   43.9221  131.3276 C   0  0  0  0  0  0  0  0  0  0  0  0
   10.4402   44.5585  132.5314 C   0  0  0  0  0  0  0  0  0  0  0  0
   11.9864   39.9816  132.5773 H   0  0  0  0  0  0  0  0  0  0  0  0
    9.0772   47.6370  134.7042 C   0  0  0  0  0  0  0  0  0  0  0  0
    8.1030   48.4333  135.5314 C   0  0  0  0  0  0  0  0  0  0  0  0
    8.6999   48.5231  129.0785 C   0  0  0  0  0  0  0  0  0  0  0  0
    9.1765   46.1236  128.7676 C   0  0  0  0  0  0  0  0  0  0  0  0
    9.6345   47.5174  128.4021 C   0  0  0  0  0  0  0  0  0  0  0  0
 23 24  1  0  0  0
 24 22  1  0  0  0
 22  1  1  0  0  0
  1  2  2  0  0  0
  2  3  1  0  0  0
  3  9  1  0  0  0
  9 10  2  0  0  0
 10 11  1  0  0  0
 11 12  1  0  0  0
 12 13  2  0  0  0
 13 14  1  0  0  0
 14 15  1  0  0  0
 14 16  2  0  0  0
 16 17  1  0  0  0
 17 18  2  0  0  0
  3  4  2  0  0  0
  4 20  1  0  0  0
 20 21  1  0  0  0
  4  5  1  0  0  0
  5  6  2  0  0  0
  6  7  1  0  0  0
  6  1  1  0  0  0
 18  9  1  0  0  0
 18 12  1  0  0  0
 15 19  1  0  0  0
  7  8  1  0  0  0
M  END
> <minimizedAffinity>
-0.87428

> <CNNscore>
0.3061981797

> <CNNaffinity>
6.9238023758

> <CNN_VS>
2.1200556755

> <CNNaffinity_variance>
1.2708159685

$$$$
[H]Oc1c([H])c(C([H])([H])C([H])([H])[H])c(-c2noc3c([H])c(O[H])c([H])c([H])c23)c([H])c1C([H])([H])C([H])([H])C([H])([H])[H]


 24 26  0  0  0  0  0  0  0  0999 V2000
    8.5988   48.4917  130.4481 C   0  0  0  0  0  0  0  0  0  0  0  0
    9.4995   47.6700  131.1147 C   0  0  0  0  0  0  0  0  0  0  0  0
   10.1164   46.6337  130.4622 C   0  0  0  0  0  0  0  0  0  0  0  0
    9.7992   46.4465  129.1072 C   0  0  0  0  0  0  0  0  0  0  0  0
    8.9174   47.2405  128.4301 C   0  0  0  0  0  0  0  0  0  0  0  0
    8.2984   48.2929  129.1128 C   0  0  0  0  0  0  0  0  0  0  0  0
    7.4103   49.1059  128.4271 O   0  0  0  0  0  0  0  0  0  0  0  0
    6.9935   49.8856  128.8976 H   0  0  0  0  0  0  0  0  0  0  0  0
   11.0198   45.6966  131.1016 C   0  0  0  0  0  0  0  0  0  0  0  0
   12.1866   46.0093  131.7491 N   0  0  0  0  0  0  0  0  0  0  0  0
   12.7195   44.9619  132.2712 O   0  0  0  0  0  0  0  0  0  0  0  0
   11.9981   43.8904  132.0379 C   0  0  0  0  0  0  0  0  0  0  0  0
   12.1582   42.5636  132.3918 C   0  0  0  0  0  0  0  0  0  0  0  0
   11.2121   41.6423  131.9978 C   0  0  0  0  0  0  0  0  0  0  0  0
   11.3212   40.2746  132.3274 O   0  0  0  0  0  0  0  0  0  0  0  0
   10.1315   42.0757  131.2601 C   0  0  0  0  0  0  0  0  0  0  0  0
    9.9610   43.3953  130.8998 C   0  0  0  0  0  0  0  0  0  0  0  0
   10.9016   44.3414  131.2860 C   0  0  0  0  0  0  0  0  0  0  0  0
   12.0984   39.9348  132.8642 H   0  0  0  0  0  0  0  0  0  0  0  0
   10.5091   45.3134  128.4525 C   0  0  0  0  0  0  0  0  0  0  0  0
    9.5582   44.2967  127.8784 C   0  0  0  0  0  0  0  0  0  0  0  0
    7.8700   49.5871  131.1630 C   0  0  0  0  0  0  0  0  0  0  0  0
    9.6640   50.2811  132.7063 C   0  0  0  0  0  0  0  0  0  0  0  0
    8.3371   49.5613  132.6203 C   0  0  0  0  0  0  0  0  0  0  0  0
 23 24  1  0  0  0
 24 22  1  0  0  0
 22  1  1  0  0  0
  1  2  2  0  0  0
  2  3  1  0  0  0
  3  9  1  0  0  0
  9 10  2  0  0  0
 10 11  1  0  0  0
 11 12  1  0  0  0
 12 13  2  0  0  0
 13 14  1  0  0  0
 14 15  1  0  0  0
 14 16  2  0  0  0
 16 17  1  0  0  0
 17 18  2  0  0  0
  3  4  2  0  0  0
  4 20  1  0  0  0
 20 21  1  0  0  0
  4  5  1  0  0  0
  5  6  2  0  0  0
  6  7  1  0  0  0
  6  1  1  0  0  0
 18  9  1  0  0  0
 18 12  1  0  0  0
 15 19  1  0  0  0
  7  8  1  0  0  0
M  END
> <minimizedAffinity>
-3.17255

> <CNNscore>
0.2849838436

> <CNNaffinity>
6.7774033546

> <CNN_VS>
1.9314504862

> <CNNaffinity_variance>
0.8210156560

$$$$
[H]Oc1c([H])c([H])c([C@@]2([H])Sc3c([H])c(O[H])c([H])c([H])c3S[C@@]2([H])c2c([H])c([H])c(OC([H])([H])C([H])([H])N3C([H])([H])C([H])([H])C([H])([H])C([H])([H])C3([H])[H])c([H])c2[H])c([H])c1[H]


 35 39  0  0  0  0  0  0  0  0999 V2000
    8.5533   45.4771  130.9168 C   0  0  0  0  0  0  0  0  0  0  0  0
    8.7870   44.1500  132.0958 S   0  0  0  0  0  0  0  0  0  0  0  0
   10.0084   44.5490  133.3027 C   0  0  0  0  0  0  0  0  0  0  0  0
   10.2143   43.6063  134.3165 C   0  0  0  0  0  0  0  0  0  0  0  0
   11.1329   43.7757  135.3246 C   0  0  0  0  0  0  0  0  0  0  0  0
   11.3190   42.8157  136.3276 O   0  0  0  0  0  0  0  0  0  0  0  0
   11.8801   44.9240  135.3327 C   0  0  0  0  0  0  0  0  0  0  0  0
   11.6944   45.8679  134.3432 C   0  0  0  0  0  0  0  0  0  0  0  0
   10.7763   45.6735  133.3562 C   0  0  0  0  0  0  0  0  0  0  0  0
   10.5821   46.9576  132.0932 S   0  0  0  0  0  0  0  0  0  0  0  0
    8.8539   46.7927  131.5339 C   0  0  0  0  0  0  0  0  0  0  0  0
   12.0106   42.1015  136.1405 H   0  0  0  0  0  0  0  0  0  0  0  0
   11.1604   43.7856  126.1906 O   0  0  0  0  0  0  0  0  0  0  0  0
   10.5185   44.2292  127.3606 C   0  0  0  0  0  0  0  0  0  0  0  0
    9.7917   43.3448  128.1153 C   0  0  0  0  0  0  0  0  0  0  0  0
    9.1738   43.8029  129.2540 C   0  0  0  0  0  0  0  0  0  0  0  0
    9.2598   45.1411  129.6716 C   0  0  0  0  0  0  0  0  0  0  0  0
    9.9854   46.0104  128.9128 C   0  0  0  0  0  0  0  0  0  0  0  0
   10.6152   45.5418  127.7514 C   0  0  0  0  0  0  0  0  0  0  0  0
   11.0893   42.8191  125.9032 H   0  0  0  0  0  0  0  0  0  0  0  0
    8.3560   47.9710  130.8279 C   0  0  0  0  0  0  0  0  0  0  0  0
    8.6921   49.2368  131.2483 C   0  0  0  0  0  0  0  0  0  0  0  0
    8.2309   50.3513  130.5874 C   0  0  0  0  0  0  0  0  0  0  0  0
    7.3954   50.2381  129.4534 C   0  0  0  0  0  0  0  0  0  0  0  0
    7.0718   48.9837  129.0510 C   0  0  0  0  0  0  0  0  0  0  0  0
    7.5456   47.8788  129.7280 C   0  0  0  0  0  0  0  0  0  0  0  0
    7.0128   51.4122  128.9007 O   0  0  0  0  0  0  0  0  0  0  0  0
    7.2793   52.0704  127.7350 C   0  0  0  0  0  0  0  0  0  0  0  0
    6.7895   53.4755  127.7560 C   0  0  0  0  0  0  0  0  0  0  0  0
    7.2388   54.2606  126.6320 N   0  0  0  0  0  0  0  0  0  0  0  0
    6.2539   54.6598  125.7156 C   0  0  0  0  0  0  0  0  0  0  0  0
    6.3877   54.1338  124.3210 C   0  0  0  0  0  0  0  0  0  0  0  0
    7.8052   54.0850  123.8225 C   0  0  0  0  0  0  0  0  0  0  0  0
    8.7655   54.6491  124.8389 C   0  0  0  0  0  0  0  0  0  0  0  0
    8.5174   53.9146  126.1378 C   0  0  0  0  0  0  0  0  0  0  0  0
 13 14  1  0  0  0
 14 15  2  0  0  0
 15 16  1  0  0  0
 16 17  2  0  0  0
 17 18  1  0  0  0
 18 19  2  0  0  0
 17  1  1  0  0  0
  1  2  1  0  0  0
  2  3  1  0  0  0
  3  4  2  0  0  0
  4  5  1  0  0  0
  5  6  1  0  0  0
  5  7  2  0  0  0
  7  8  1  0  0  0
  8  9  2  0  0  0
  9 10  1  0  0  0
 10 11  1  0  0  0
 11 21  1  0  0  0
 21 22  2  0  0  0
 22 23  1  0  0  0
 23 24  2  0  0  0
 24 27  1  0  0  0
 27 28  1  0  0  0
 28 29  1  0  0  0
 29 30  1  0  0  0
 30 31  1  0  0  0
 31 32  1  0  0  0
 32 33  1  0  0  0
 33 34  1  0  0  0
 34 35  1  0  0  0
 24 25  1  0  0  0
 25 26  2  0  0  0
 19 14  1  0  0  0
 11  1  1  0  0  0
 26 21  1  0  0  0
  9  3  1  0  0  0
 35 30  1  0  0  0
 13 20  1  0  0  0
  6 12  1  0  0  0
M  END
> <minimizedAffinity>
1.00691

> <CNNscore>
0.4263361096

> <CNNaffinity>
7.4439582825

> <CNN_VS>
3.1736283302

> <CNNaffinity_variance>
0.7462907434

$$$$
[H]Oc1c([H])c([H])c([C@@]2([H])Sc3c([H])c(O[H])c([H])c([H])c3S[C@@]2([H])c2c([H])c([H])c(OC([H])([H])C([H])([H])N3C([H])([H])C([H])([H])C([H])([H])C([H])([H])C3([H])[H])c([H])c2[H])c([H])c1[H]


 35 39  0  0  0  0  0  0  0  0999 V2000
   11.0449   45.4004  132.3506 C   0  0  0  0  0  0  0  0  0  0  0  0
   11.7662   43.7812  132.0979 S   0  0  0  0  0  0  0  0  0  0  0  0
   10.6198   42.6557  131.3723 C   0  0  0  0  0  0  0  0  0  0  0  0
   11.1079   41.3806  131.0645 C   0  0  0  0  0  0  0  0  0  0  0  0
   10.3336   40.3962  130.4984 C   0  0  0  0  0  0  0  0  0  0  0  0
   10.8477   39.1278  130.2002 O   0  0  0  0  0  0  0  0  0  0  0  0
    9.0221   40.6821  130.2245 C   0  0  0  0  0  0  0  0  0  0  0  0
    8.5187   41.9328  130.5193 C   0  0  0  0  0  0  0  0  0  0  0  0
    9.3094   42.8895  131.0801 C   0  0  0  0  0  0  0  0  0  0  0  0
    8.5829   44.5106  131.4348 S   0  0  0  0  0  0  0  0  0  0  0  0
    9.9869   45.6714  131.3459 C   0  0  0  0  0  0  0  0  0  0  0  0
   10.7758   38.4327  130.9318 H   0  0  0  0  0  0  0  0  0  0  0  0
    9.7887   45.5736  137.8630 O   0  0  0  0  0  0  0  0  0  0  0  0
   10.0929   45.5534  136.4901 C   0  0  0  0  0  0  0  0  0  0  0  0
   10.7512   44.4765  135.9545 C   0  0  0  0  0  0  0  0  0  0  0  0
   11.0371   44.4808  134.6104 C   0  0  0  0  0  0  0  0  0  0  0  0
   10.6800   45.5461  133.7676 C   0  0  0  0  0  0  0  0  0  0  0  0
   10.0259   46.6109  134.3121 C   0  0  0  0  0  0  0  0  0  0  0  0
    9.7350   46.6051  135.6834 C   0  0  0  0  0  0  0  0  0  0  0  0
   10.0522   44.7990  138.4567 H   0  0  0  0  0  0  0  0  0  0  0  0
    9.5797   47.0659  131.1904 C   0  0  0  0  0  0  0  0  0  0  0  0
    8.3541   47.4953  131.6437 C   0  0  0  0  0  0  0  0  0  0  0  0
    7.9644   48.8069  131.5047 C   0  0  0  0  0  0  0  0  0  0  0  0
    8.8070   49.7613  130.8918 C   0  0  0  0  0  0  0  0  0  0  0  0
   10.0120   49.3233  130.4490 C   0  0  0  0  0  0  0  0  0  0  0  0
   10.3839   48.0030  130.5987 C   0  0  0  0  0  0  0  0  0  0  0  0
    8.3004   51.0137  130.8181 O   0  0  0  0  0  0  0  0  0  0  0  0
    7.1483   51.5697  130.3419 C   0  0  0  0  0  0  0  0  0  0  0  0
    7.0141   51.4135  128.8680 C   0  0  0  0  0  0  0  0  0  0  0  0
    6.4227   50.1585  128.4718 N   0  0  0  0  0  0  0  0  0  0  0  0
    5.1460   49.8807  128.9837 C   0  0  0  0  0  0  0  0  0  0  0  0
    5.0307   48.6852  129.8765 C   0  0  0  0  0  0  0  0  0  0  0  0
    5.8588   47.5118  129.4321 C   0  0  0  0  0  0  0  0  0  0  0  0
    6.5696   47.8002  128.1340 C   0  0  0  0  0  0  0  0  0  0  0  0
    7.3367   49.0898  128.3262 C   0  0  0  0  0  0  0  0  0  0  0  0
 13 14  1  0  0  0
 14 15  2  0  0  0
 15 16  1  0  0  0
 16 17  2  0  0  0
 17 18  1  0  0  0
 18 19  2  0  0  0
 17  1  1  0  0  0
  1  2  1  0  0  0
  2  3  1  0  0  0
  3  4  2  0  0  0
  4  5  1  0  0  0
  5  6  1  0  0  0
  5  7  2  0  0  0
  7  8  1  0  0  0
  8  9  2  0  0  0
  9 10  1  0  0  0
 10 11  1  0  0  0
 11 21  1  0  0  0
 21 22  2  0  0  0
 22 23  1  0  0  0
 23 24  2  0  0  0
 24 27  1  0  0  0
 27 28  1  0  0  0
 28 29  1  0  0  0
 29 30  1  0  0  0
 30 31  1  0  0  0
 31 32  1  0  0  0
 32 33  1  0  0  0
 33 34  1  0  0  0
 34 35  1  0  0  0
 24 25  1  0  0  0
 25 26  2  0  0  0
 19 14  1  0  0  0
 11  1  1  0  0  0
 26 21  1  0  0  0
  9  3  1  0  0  0
 35 30  1  0  0  0
 13 20  1  0  0  0
  6 12  1  0  0  0
M  END
> <minimizedAffinity>
12.86591

> <CNNscore>
0.4215881228

> <CNNaffinity>
7.8440599442

> <CNN_VS>
3.3069624901

> <CNNaffinity_variance>
1.3817198277

$$$$
[H]Oc1c([H])c([H])c([C@@]2([H])Sc3c([H])c(O[H])c([H])c([H])c3S[C@@]2([H])c2c([H])c([H])c(OC([H])([H])C([H])([H])N3C([H])([H])C([H])([H])C([H])([H])C([H])([H])C3([H])[H])c([H])c2[H])c([H])c1[H]


 35 39  0  0  0  0  0  0  0  0999 V2000
    8.3835   43.7889  131.3967 C   0  0  0  0  0  0  0  0  0  0  0  0
    8.3642   42.1881  130.5948 S   0  0  0  0  0  0  0  0  0  0  0  0
    9.8015   41.2423  130.9782 C   0  0  0  0  0  0  0  0  0  0  0  0
    9.8495   39.9432  130.4597 C   0  0  0  0  0  0  0  0  0  0  0  0
   10.9048   39.0884  130.6709 C   0  0  0  0  0  0  0  0  0  0  0  0
   10.9273   37.7924  130.1399 O   0  0  0  0  0  0  0  0  0  0  0  0
   11.9574   39.5345  131.4257 C   0  0  0  0  0  0  0  0  0  0  0  0
   11.9322   40.8119  131.9474 C   0  0  0  0  0  0  0  0  0  0  0  0
   10.8727   41.6375  131.7221 C   0  0  0  0  0  0  0  0  0  0  0  0
   10.9049   43.2992  132.4429 S   0  0  0  0  0  0  0  0  0  0  0  0
    9.1482   43.7354  132.6673 C   0  0  0  0  0  0  0  0  0  0  0  0
   11.3389   37.6924  129.2212 H   0  0  0  0  0  0  0  0  0  0  0  0
    9.5051   47.8441  127.6163 O   0  0  0  0  0  0  0  0  0  0  0  0
    9.2499   46.8300  128.5566 C   0  0  0  0  0  0  0  0  0  0  0  0
    7.9958   46.7015  129.0957 C   0  0  0  0  0  0  0  0  0  0  0  0
    7.7719   45.7026  130.0125 C   0  0  0  0  0  0  0  0  0  0  0  0
    8.7791   44.8108  130.4161 C   0  0  0  0  0  0  0  0  0  0  0  0
   10.0216   44.9490  129.8728 C   0  0  0  0  0  0  0  0  0  0  0  0
   10.2486   45.9683  128.9378 C   0  0  0  0  0  0  0  0  0  0  0  0
    8.7696   48.4783  127.3357 H   0  0  0  0  0  0  0  0  0  0  0  0
    8.9379   44.8403  133.5998 C   0  0  0  0  0  0  0  0  0  0  0  0
    7.6747   45.3313  133.8349 C   0  0  0  0  0  0  0  0  0  0  0  0
    7.4673   46.3687  134.7137 C   0  0  0  0  0  0  0  0  0  0  0  0
    8.5425   46.9685  135.4071 C   0  0  0  0  0  0  0  0  0  0  0  0
    9.7824   46.4745  135.1647 C   0  0  0  0  0  0  0  0  0  0  0  0
    9.9686   45.4327  134.2793 C   0  0  0  0  0  0  0  0  0  0  0  0
    8.1992   47.9789  136.2388 O   0  0  0  0  0  0  0  0  0  0  0  0
    7.9752   49.3183  136.1003 C   0  0  0  0  0  0  0  0  0  0  0  0
    7.7410   49.7073  134.6831 C   0  0  0  0  0  0  0  0  0  0  0  0
    8.8140   49.3294  133.7956 N   0  0  0  0  0  0  0  0  0  0  0  0
    9.6965   50.3509  133.4126 C   0  0  0  0  0  0  0  0  0  0  0  0
    9.7395   50.6834  131.9541 C   0  0  0  0  0  0  0  0  0  0  0  0
    9.6519   49.4828  131.0535 C   0  0  0  0  0  0  0  0  0  0  0  0
    9.6075   48.2017  131.8474 C   0  0  0  0  0  0  0  0  0  0  0  0
    8.4786   48.3380  132.8452 C   0  0  0  0  0  0  0  0  0  0  0  0
 13 14  1  0  0  0
 14 15  2  0  0  0
 15 16  1  0  0  0
 16 17  2  0  0  0
 17 18  1  0  0  0
 18 19  2  0  0  0
 17  1  1  0  0  0
  1  2  1  0  0  0
  2  3  1  0  0  0
  3  4  2  0  0  0
  4  5  1  0  0  0
  5  6  1  0  0  0
  5  7  2  0  0  0
  7  8  1  0  0  0
  8  9  2  0  0  0
  9 10  1  0  0  0
 10 11  1  0  0  0
 11 21  1  0  0  0
 21 22  2  0  0  0
 22 23  1  0  0  0
 23 24  2  0  0  0
 24 27  1  0  0  0
 27 28  1  0  0  0
 28 29  1  0  0  0
 29 30  1  0  0  0
 30 31  1  0  0  0
 31 32  1  0  0  0
 32 33  1  0  0  0
 33 34  1  0  0  0
 34 35  1  0  0  0
 24 25  1  0  0  0
 25 26  2  0  0  0
 19 14  1  0  0  0
 11  1  1  0  0  0
 26 21  1  0  0  0
  9  3  1  0  0  0
 35 30  1  0  0  0
 13 20  1  0  0  0
  6 12  1  0  0  0
M  END
> <minimizedAffinity>
28.96429

> <CNNscore>
0.4210596979

> <CNNaffinity>
7.6740784645

> <CNN_VS>
3.2312450409

> <CNNaffinity_variance>
1.5471278429

$$$$
[H]Oc1c([H])c([H])c([C@@]2([H])Sc3c([H])c(O[H])c([H])c([H])c3S[C@@]2([H])c2c([H])c([H])c(OC([H])([H])C([H])([H])N3C([H])([H])C([H])([H])C([H])([H])C([H])([H])C3([H])[H])c([H])c2[H])c([H])c1[H]


 35 39  0  0  0  0  0  0  0  0999 V2000
    7.9808   44.3335  131.7449 C   0  0  0  0  0  0  0  0  0  0  0  0
    7.1828   42.7971  131.2885 S   0  0  0  0  0  0  0  0  0  0  0  0
    8.3046   41.6756  130.5194 C   0  0  0  0  0  0  0  0  0  0  0  0
    7.7970   40.4135  130.1904 C   0  0  0  0  0  0  0  0  0  0  0  0
    8.5494   39.4355  129.5853 C   0  0  0  0  0  0  0  0  0  0  0  0
    8.0161   38.1800  129.2667 O   0  0  0  0  0  0  0  0  0  0  0  0
    9.8583   39.7146  129.2924 C   0  0  0  0  0  0  0  0  0  0  0  0
   10.3808   40.9525  129.6076 C   0  0  0  0  0  0  0  0  0  0  0  0
    9.6116   41.9029  130.2075 C   0  0  0  0  0  0  0  0  0  0  0  0
   10.3654   43.5034  130.5976 S   0  0  0  0  0  0  0  0  0  0  0  0
    9.4207   44.1175  132.0318 C   0  0  0  0  0  0  0  0  0  0  0  0
    7.5970   38.0915  128.3503 H   0  0  0  0  0  0  0  0  0  0  0  0
    7.0649   48.2718  127.7896 O   0  0  0  0  0  0  0  0  0  0  0  0
    7.2692   47.2942  128.7796 C   0  0  0  0  0  0  0  0  0  0  0  0
    8.4760   46.6485  128.8598 C   0  0  0  0  0  0  0  0  0  0  0  0
    8.6507   45.6972  129.8360 C   0  0  0  0  0  0  0  0  0  0  0  0
    7.6399   45.3634  130.7522 C   0  0  0  0  0  0  0  0  0  0  0  0
    6.4446   46.0125  130.6620 C   0  0  0  0  0  0  0  0  0  0  0  0
    6.2678   46.9826  129.6658 C   0  0  0  0  0  0  0  0  0  0  0  0
    7.8023   48.5012  127.1373 H   0  0  0  0  0  0  0  0  0  0  0  0
   10.1038   45.1796  132.7666 C   0  0  0  0  0  0  0  0  0  0  0  0
    9.4611   45.8653  133.7710 C   0  0  0  0  0  0  0  0  0  0  0  0
   10.0979   46.8640  134.4701 C   0  0  0  0  0  0  0  0  0  0  0  0
   11.4341   47.2229  134.1833 C   0  0  0  0  0  0  0  0  0  0  0  0
   12.0547   46.5388  133.1898 C   0  0  0  0  0  0  0  0  0  0  0  0
   11.3979   45.5398  132.5009 C   0  0  0  0  0  0  0  0  0  0  0  0
   11.9380   48.2216  134.9442 O   0  0  0  0  0  0  0  0  0  0  0  0
   11.6911   49.5569  135.0835 C   0  0  0  0  0  0  0  0  0  0  0  0
   11.2795   50.1909  133.8016 C   0  0  0  0  0  0  0  0  0  0  0  0
   10.3341   49.4053  133.0461 N   0  0  0  0  0  0  0  0  0  0  0  0
   10.6640   49.1499  131.7063 C   0  0  0  0  0  0  0  0  0  0  0  0
    9.7387   49.7110  130.6727 C   0  0  0  0  0  0  0  0  0  0  0  0
    8.2850   49.6254  131.0466 C   0  0  0  0  0  0  0  0  0  0  0  0
    8.0973   48.9226  132.3674 C   0  0  0  0  0  0  0  0  0  0  0  0
    8.9774   49.6297  133.3743 C   0  0  0  0  0  0  0  0  0  0  0  0
 13 14  1  0  0  0
 14 15  2  0  0  0
 15 16  1  0  0  0
 16 17  2  0  0  0
 17 18  1  0  0  0
 18 19  2  0  0  0
 17  1  1  0  0  0
  1  2  1  0  0  0
  2  3  1  0  0  0
  3  4  2  0  0  0
  4  5  1  0  0  0
  5  6  1  0  0  0
  5  7  2  0  0  0
  7  8  1  0  0  0
  8  9  2  0  0  0
  9 10  1  0  0  0
 10 11  1  0  0  0
 11 21  1  0  0  0
 21 22  2  0  0  0
 22 23  1  0  0  0
 23 24  2  0  0  0
 24 27  1  0  0  0
 27 28  1  0  0  0
 28 29  1  0  0  0
 29 30  1  0  0  0
 30 31  1  0  0  0
 31 32  1  0  0  0
 32 33  1  0  0  0
 33 34  1  0  0  0
 34 35  1  0  0  0
 24 25  1  0  0  0
 25 26  2  0  0  0
 19 14  1  0  0  0
 11  1  1  0  0  0
 26 21  1  0  0  0
  9  3  1  0  0  0
 35 30  1  0  0  0
 13 20  1  0  0  0
  6 12  1  0  0  0
M  END
> <minimizedAffinity>
24.63623

> <CNNscore>
0.4062190950

> <CNNaffinity>
7.4131517410

> <CNN_VS>
3.0113637447

> <CNNaffinity_variance>
0.7978903055

$$$$
[H]Oc1c([H])c([H])c([C@@]2([H])Sc3c([H])c(O[H])c([H])c([H])c3S[C@@]2([H])c2c([H])c([H])c(OC([H])([H])C([H])([H])N3C([H])([H])C([H])([H])C([H])([H])C([H])([H])C3([H])[H])c([H])c2[H])c([H])c1[H]


 35 39  0  0  0  0  0  0  0  0999 V2000
    9.2060   44.6533  130.8024 C   0  0  0  0  0  0  0  0  0  0  0  0
    8.8568   42.9907  131.3678 S   0  0  0  0  0  0  0  0  0  0  0  0
    7.8186   42.9842  132.7924 C   0  0  0  0  0  0  0  0  0  0  0  0
    7.4245   41.7293  133.2708 C   0  0  0  0  0  0  0  0  0  0  0  0
    6.6192   41.5642  134.3723 C   0  0  0  0  0  0  0  0  0  0  0  0
    6.2395   40.2960  134.8301 O   0  0  0  0  0  0  0  0  0  0  0  0
    6.1843   42.6848  135.0295 C   0  0  0  0  0  0  0  0  0  0  0  0
    6.5600   43.9329  134.5759 C   0  0  0  0  0  0  0  0  0  0  0  0
    7.3591   44.0667  133.4811 C   0  0  0  0  0  0  0  0  0  0  0  0
    7.8077   45.7359  132.9389 S   0  0  0  0  0  0  0  0  0  0  0  0
    8.0934   45.5737  131.1448 C   0  0  0  0  0  0  0  0  0  0  0  0
    6.8522   39.8636  135.5090 H   0  0  0  0  0  0  0  0  0  0  0  0
   14.2865   46.0060  132.8889 O   0  0  0  0  0  0  0  0  0  0  0  0
   13.0310   45.6761  132.3479 C   0  0  0  0  0  0  0  0  0  0  0  0
   12.0816   45.0859  133.1417 C   0  0  0  0  0  0  0  0  0  0  0  0
   10.8628   44.7731  132.5894 C   0  0  0  0  0  0  0  0  0  0  0  0
   10.5554   45.0357  131.2443 C   0  0  0  0  0  0  0  0  0  0  0  0
   11.5078   45.6227  130.4656 C   0  0  0  0  0  0  0  0  0  0  0  0
   12.7506   45.9412  131.0302 C   0  0  0  0  0  0  0  0  0  0  0  0
   14.4926   45.8109  133.8591 H   0  0  0  0  0  0  0  0  0  0  0  0
    8.0625   46.8494  130.4332 C   0  0  0  0  0  0  0  0  0  0  0  0
    7.5737   47.9822  131.0414 C   0  0  0  0  0  0  0  0  0  0  0  0
    7.5443   49.1877  130.3801 C   0  0  0  0  0  0  0  0  0  0  0  0
    8.0141   49.3079  129.0529 C   0  0  0  0  0  0  0  0  0  0  0  0
    8.4924   48.1824  128.4659 C   0  0  0  0  0  0  0  0  0  0  0  0
    8.5135   46.9828  129.1472 C   0  0  0  0  0  0  0  0  0  0  0  0
    7.9261   50.5488  128.5211 O   0  0  0  0  0  0  0  0  0  0  0  0
    6.9097   51.4139  128.2353 C   0  0  0  0  0  0  0  0  0  0  0  0
    7.2418   52.8163  128.6065 C   0  0  0  0  0  0  0  0  0  0  0  0
    7.4250   53.6865  127.4702 N   0  0  0  0  0  0  0  0  0  0  0  0
    6.4244   54.6454  127.2504 C   0  0  0  0  0  0  0  0  0  0  0  0
    5.6593   54.5299  125.9695 C   0  0  0  0  0  0  0  0  0  0  0  0
    6.5049   54.1418  124.7886 C   0  0  0  0  0  0  0  0  0  0  0  0
    7.9593   54.0236  125.1685 C   0  0  0  0  0  0  0  0  0  0  0  0
    8.0336   53.0792  126.3479 C   0  0  0  0  0  0  0  0  0  0  0  0
 13 14  1  0  0  0
 14 15  2  0  0  0
 15 16  1  0  0  0
 16 17  2  0  0  0
 17 18  1  0  0  0
 18 19  2  0  0  0
 17  1  1  0  0  0
  1  2  1  0  0  0
  2  3  1  0  0  0
  3  4  2  0  0  0
  4  5  1  0  0  0
  5  6  1  0  0  0
  5  7  2  0  0  0
  7  8  1  0  0  0
  8  9  2  0  0  0
  9 10  1  0  0  0
 10 11  1  0  0  0
 11 21  1  0  0  0
 21 22  2  0  0  0
 22 23  1  0  0  0
 23 24  2  0  0  0
 24 27  1  0  0  0
 27 28  1  0  0  0
 28 29  1  0  0  0
 29 30  1  0  0  0
 30 31  1  0  0  0
 31 32  1  0  0  0
 32 33  1  0  0  0
 33 34  1  0  0  0
 34 35  1  0  0  0
 24 25  1  0  0  0
 25 26  2  0  0  0
 19 14  1  0  0  0
 11  1  1  0  0  0
 26 21  1  0  0  0
  9  3  1  0  0  0
 35 30  1  0  0  0
 13 20  1  0  0  0
  6 12  1  0  0  0
M  END
> <minimizedAffinity>
22.56124

> <CNNscore>
0.4044222236

> <CNNaffinity>
6.9967775345

> <CNN_VS>
2.8296523094

> <CNNaffinity_variance>
1.2205040455

$$$$
[H]Oc1c([H])c([H])c([C@@]2([H])Sc3c([H])c(O[H])c([H])c([H])c3S[C@@]2([H])c2c([H])c([H])c(OC([H])([H])C([H])([H])N3C([H])([H])C([H])([H])C([H])([H])C([H])([H])C3([H])[H])c([H])c2[H])c([H])c1[H]


 35 39  0  0  0  0  0  0  0  0999 V2000
    8.7431   43.7367  131.0170 C   0  0  0  0  0  0  0  0  0  0  0  0
    9.4202   42.6937  132.3051 S   0  0  0  0  0  0  0  0  0  0  0  0
   10.2714   43.6308  133.5318 C   0  0  0  0  0  0  0  0  0  0  0  0
   10.7755   42.9158  134.6241 C   0  0  0  0  0  0  0  0  0  0  0  0
   11.4627   43.5074  135.6569 C   0  0  0  0  0  0  0  0  0  0  0  0
   11.9568   42.7677  136.7390 O   0  0  0  0  0  0  0  0  0  0  0  0
   11.6610   44.8622  135.6097 C   0  0  0  0  0  0  0  0  0  0  0  0
   11.1729   45.5881  134.5423 C   0  0  0  0  0  0  0  0  0  0  0  0
   10.4949   44.9752  133.5325 C   0  0  0  0  0  0  0  0  0  0  0  0
    9.8777   45.9916  132.1659 S   0  0  0  0  0  0  0  0  0  0  0  0
    8.4218   45.0867  131.5430 C   0  0  0  0  0  0  0  0  0  0  0  0
   12.8948   42.4021  136.6398 H   0  0  0  0  0  0  0  0  0  0  0  0
   12.4009   43.6360  126.7037 O   0  0  0  0  0  0  0  0  0  0  0  0
   11.4749   43.6502  127.7619 C   0  0  0  0  0  0  0  0  0  0  0  0
   11.8691   44.0713  129.0058 C   0  0  0  0  0  0  0  0  0  0  0  0
   10.9454   44.0757  130.0233 C   0  0  0  0  0  0  0  0  0  0  0  0
    9.6154   43.6654  129.8353 C   0  0  0  0  0  0  0  0  0  0  0  0
    9.2359   43.2490  128.5940 C   0  0  0  0  0  0  0  0  0  0  0  0
   10.1791   43.2450  127.5571 C   0  0  0  0  0  0  0  0  0  0  0  0
   13.3549   43.9346  126.8547 H   0  0  0  0  0  0  0  0  0  0  0  0
    7.5323   45.9083  130.7254 C   0  0  0  0  0  0  0  0  0  0  0  0
    7.9950   46.5279  129.5879 C   0  0  0  0  0  0  0  0  0  0  0  0
    7.1636   47.3000  128.8107 C   0  0  0  0  0  0  0  0  0  0  0  0
    5.8049   47.4858  129.1509 C   0  0  0  0  0  0  0  0  0  0  0  0
    5.3629   46.8694  130.2756 C   0  0  0  0  0  0  0  0  0  0  0  0
    6.2136   46.0987  131.0412 C   0  0  0  0  0  0  0  0  0  0  0  0
    5.1007   48.2694  128.3021 O   0  0  0  0  0  0  0  0  0  0  0  0
    4.7113   49.5775  128.2835 C   0  0  0  0  0  0  0  0  0  0  0  0
    4.8094   50.2143  129.6250 C   0  0  0  0  0  0  0  0  0  0  0  0
    6.1479   50.6259  129.9723 N   0  0  0  0  0  0  0  0  0  0  0  0
    7.0158   50.8946  128.9029 C   0  0  0  0  0  0  0  0  0  0  0  0
    8.2231   50.0179  128.7869 C   0  0  0  0  0  0  0  0  0  0  0  0
    8.8528   49.6716  130.1074 C   0  0  0  0  0  0  0  0  0  0  0  0
    8.1456   50.3554  131.2502 C   0  0  0  0  0  0  0  0  0  0  0  0
    6.6771   50.0125  131.1310 C   0  0  0  0  0  0  0  0  0  0  0  0
 13 14  1  0  0  0
 14 15  2  0  0  0
 15 16  1  0  0  0
 16 17  2  0  0  0
 17 18  1  0  0  0
 18 19  2  0  0  0
 17  1  1  0  0  0
  1  2  1  0  0  0
  2  3  1  0  0  0
  3  4  2  0  0  0
  4  5  1  0  0  0
  5  6  1  0  0  0
  5  7  2  0  0  0
  7  8  1  0  0  0
  8  9  2  0  0  0
  9 10  1  0  0  0
 10 11  1  0  0  0
 11 21  1  0  0  0
 21 22  2  0  0  0
 22 23  1  0  0  0
 23 24  2  0  0  0
 24 27  1  0  0  0
 27 28  1  0  0  0
 28 29  1  0  0  0
 29 30  1  0  0  0
 30 31  1  0  0  0
 31 32  1  0  0  0
 32 33  1  0  0  0
 33 34  1  0  0  0
 34 35  1  0  0  0
 24 25  1  0  0  0
 25 26  2  0  0  0
 19 14  1  0  0  0
 11  1  1  0  0  0
 26 21  1  0  0  0
  9  3  1  0  0  0
 35 30  1  0  0  0
 13 20  1  0  0  0
  6 12  1  0  0  0
M  END
> <minimizedAffinity>
7.78125

> <CNNscore>
0.4002490938

> <CNNaffinity>
7.7410559654

> <CNN_VS>
3.0983505249

> <CNNaffinity_variance>
0.9050834775

$$$$
[H]Oc1c([H])c([H])c([C@@]2([H])Sc3c([H])c(O[H])c([H])c([H])c3S[C@@]2([H])c2c([H])c([H])c(OC([H])([H])C([H])([H])N3C([H])([H])C([H])([H])C([H])([H])C([H])([H])C3([H])[H])c([H])c2[H])c([H])c1[H]


 35 39  0  0  0  0  0  0  0  0999 V2000
   10.8230   46.6252  131.8323 C   0  0  0  0  0  0  0  0  0  0  0  0
   12.3886   45.7618  131.9278 S   0  0  0  0  0  0  0  0  0  0  0  0
   12.7671   44.9166  130.4278 C   0  0  0  0  0  0  0  0  0  0  0  0
   14.0070   44.2700  130.3724 C   0  0  0  0  0  0  0  0  0  0  0  0
   14.4403   43.5690  129.2725 C   0  0  0  0  0  0  0  0  0  0  0  0
   15.6869   42.9307  129.2435 O   0  0  0  0  0  0  0  0  0  0  0  0
   13.6150   43.5033  128.1810 C   0  0  0  0  0  0  0  0  0  0  0  0
   12.3876   44.1333  128.2126 C   0  0  0  0  0  0  0  0  0  0  0  0
   11.9840   44.8214  129.3165 C   0  0  0  0  0  0  0  0  0  0  0  0
   10.3625   45.6285  129.2854 S   0  0  0  0  0  0  0  0  0  0  0  0
   10.5279   47.0336  130.4365 C   0  0  0  0  0  0  0  0  0  0  0  0
   15.7062   41.9720  129.5659 H   0  0  0  0  0  0  0  0  0  0  0  0
    6.8003   43.9351  134.7607 O   0  0  0  0  0  0  0  0  0  0  0  0
    7.8038   44.5838  134.0192 C   0  0  0  0  0  0  0  0  0  0  0  0
    8.0466   45.9176  134.2238 C   0  0  0  0  0  0  0  0  0  0  0  0
    9.0324   46.5286  133.4866 C   0  0  0  0  0  0  0  0  0  0  0  0
    9.7982   45.8375  132.5335 C   0  0  0  0  0  0  0  0  0  0  0  0
    9.5472   44.5118  132.3394 C   0  0  0  0  0  0  0  0  0  0  0  0
    8.5413   43.8899  133.0921 C   0  0  0  0  0  0  0  0  0  0  0  0
    6.2576   44.4462  135.4434 H   0  0  0  0  0  0  0  0  0  0  0  0
    9.4961   48.0533  130.2617 C   0  0  0  0  0  0  0  0  0  0  0  0
    9.7440   49.3671  130.5847 C   0  0  0  0  0  0  0  0  0  0  0  0
    8.7797   50.3338  130.4199 C   0  0  0  0  0  0  0  0  0  0  0  0
    7.4999   50.0142  129.9135 C   0  0  0  0  0  0  0  0  0  0  0  0
    7.2697   48.7146  129.6001 C   0  0  0  0  0  0  0  0  0  0  0  0
    8.2511   47.7603  129.7726 C   0  0  0  0  0  0  0  0  0  0  0  0
    6.6469   51.0586  129.8036 O   0  0  0  0  0  0  0  0  0  0  0  0
    6.7193   52.3235  129.2955 C   0  0  0  0  0  0  0  0  0  0  0  0
    6.4757   52.3564  127.8278 C   0  0  0  0  0  0  0  0  0  0  0  0
    6.9813   53.5451  127.1850 N   0  0  0  0  0  0  0  0  0  0  0  0
    6.0365   54.3523  126.5331 C   0  0  0  0  0  0  0  0  0  0  0  0
    6.1975   54.5055  125.0532 C   0  0  0  0  0  0  0  0  0  0  0  0
    7.6276   54.6307  124.6065 C   0  0  0  0  0  0  0  0  0  0  0  0
    8.5723   54.6388  125.7817 C   0  0  0  0  0  0  0  0  0  0  0  0
    8.2639   53.4086  126.6063 C   0  0  0  0  0  0  0  0  0  0  0  0
 13 14  1  0  0  0
 14 15  2  0  0  0
 15 16  1  0  0  0
 16 17  2  0  0  0
 17 18  1  0  0  0
 18 19  2  0  0  0
 17  1  1  0  0  0
  1  2  1  0  0  0
  2  3  1  0  0  0
  3  4  2  0  0  0
  4  5  1  0  0  0
  5  6  1  0  0  0
  5  7  2  0  0  0
  7  8  1  0  0  0
  8  9  2  0  0  0
  9 10  1  0  0  0
 10 11  1  0  0  0
 11 21  1  0  0  0
 21 22  2  0  0  0
 22 23  1  0  0  0
 23 24  2  0  0  0
 24 27  1  0  0  0
 27 28  1  0  0  0
 28 29  1  0  0  0
 29 30  1  0  0  0
 30 31  1  0  0  0
 31 32  1  0  0  0
 32 33  1  0  0  0
 33 34  1  0  0  0
 34 35  1  0  0  0
 24 25  1  0  0  0
 25 26  2  0  0  0
 19 14  1  0  0  0
 11  1  1  0  0  0
 26 21  1  0  0  0
  9  3  1  0  0  0
 35 30  1  0  0  0
 13 20  1  0  0  0
  6 12  1  0  0  0
M  END
> <minimizedAffinity>
11.23575

> <CNNscore>
0.3403516710

> <CNNaffinity>
7.1252717972

> <CNN_VS>
2.4250981808

> <CNNaffinity_variance>
1.3242682219

$$$$
[H]Oc1c([H])c([H])c([C@@]2([H])Sc3c([H])c(O[H])c([H])c([H])c3S[C@@]2([H])c2c([H])c([H])c(OC([H])([H])C([H])([H])N3C([H])([H])C([H])([H])C([H])([H])C([H])([H])C3([H])[H])c([H])c2[H])c([H])c1[H]


 35 39  0  0  0  0  0  0  0  0999 V2000
    9.4958   44.3138  131.7245 C   0  0  0  0  0  0  0  0  0  0  0  0
    9.0394   42.6122  132.0438 S   0  0  0  0  0  0  0  0  0  0  0  0
    7.7869   42.4869  133.2780 C   0  0  0  0  0  0  0  0  0  0  0  0
    7.3053   41.2011  133.5492 C   0  0  0  0  0  0  0  0  0  0  0  0
    6.3323   40.9453  134.4855 C   0  0  0  0  0  0  0  0  0  0  0  0
    5.8681   39.6479  134.7373 O   0  0  0  0  0  0  0  0  0  0  0  0
    5.8125   42.0030  135.1839 C   0  0  0  0  0  0  0  0  0  0  0  0
    6.2720   43.2801  134.9334 C   0  0  0  0  0  0  0  0  0  0  0  0
    7.2373   43.5042  133.9992 C   0  0  0  0  0  0  0  0  0  0  0  0
    7.7882   45.2071  133.7190 S   0  0  0  0  0  0  0  0  0  0  0  0
    8.3548   45.2260  131.9854 C   0  0  0  0  0  0  0  0  0  0  0  0
    6.3589   39.1282  135.4533 H   0  0  0  0  0  0  0  0  0  0  0  0
   14.2422   45.1833  134.6758 O   0  0  0  0  0  0  0  0  0  0  0  0
   13.0707   44.9817  133.9244 C   0  0  0  0  0  0  0  0  0  0  0  0
   12.1343   44.0766  134.3533 C   0  0  0  0  0  0  0  0  0  0  0  0
   10.9981   43.8977  133.6013 C   0  0  0  0  0  0  0  0  0  0  0  0
   10.7621   44.6068  132.4122 C   0  0  0  0  0  0  0  0  0  0  0  0
   11.7007   45.5038  131.9965 C   0  0  0  0  0  0  0  0  0  0  0  0
   12.8592   45.6852  132.7645 C   0  0  0  0  0  0  0  0  0  0  0  0
   14.3976   44.6653  135.5299 H   0  0  0  0  0  0  0  0  0  0  0  0
    8.4544   46.5698  131.4207 C   0  0  0  0  0  0  0  0  0  0  0  0
    8.1219   47.6740  132.1704 C   0  0  0  0  0  0  0  0  0  0  0  0
    8.2162   48.9427  131.6478 C   0  0  0  0  0  0  0  0  0  0  0  0
    8.6572   49.1593  130.3230 C   0  0  0  0  0  0  0  0  0  0  0  0
    8.9808   48.0611  129.5955 C   0  0  0  0  0  0  0  0  0  0  0  0
    8.8795   46.7969  130.1390 C   0  0  0  0  0  0  0  0  0  0  0  0
    8.7014   50.4548  129.9354 O   0  0  0  0  0  0  0  0  0  0  0  0
    7.8482   51.3080  129.2970 C   0  0  0  0  0  0  0  0  0  0  0  0
    6.4299   51.0849  129.6886 C   0  0  0  0  0  0  0  0  0  0  0  0
    5.8076   49.9804  128.9997 N   0  0  0  0  0  0  0  0  0  0  0  0
    4.7873   49.3088  129.6905 C   0  0  0  0  0  0  0  0  0  0  0  0
    5.0355   47.8685  130.0122 C   0  0  0  0  0  0  0  0  0  0  0  0
    5.7311   47.1112  128.9154 C   0  0  0  0  0  0  0  0  0  0  0  0
    5.9582   47.9810  127.7049 C   0  0  0  0  0  0  0  0  0  0  0  0
    6.6772   49.2238  128.1811 C   0  0  0  0  0  0  0  0  0  0  0  0
 13 14  1  0  0  0
 14 15  2  0  0  0
 15 16  1  0  0  0
 16 17  2  0  0  0
 17 18  1  0  0  0
 18 19  2  0  0  0
 17  1  1  0  0  0
  1  2  1  0  0  0
  2  3  1  0  0  0
  3  4  2  0  0  0
  4  5  1  0  0  0
  5  6  1  0  0  0
  5  7  2  0  0  0
  7  8  1  0  0  0
  8  9  2  0  0  0
  9 10  1  0  0  0
 10 11  1  0  0  0
 11 21  1  0  0  0
 21 22  2  0  0  0
 22 23  1  0  0  0
 23 24  2  0  0  0
 24 27  1  0  0  0
 27 28  1  0  0  0
 28 29  1  0  0  0
 29 30  1  0  0  0
 30 31  1  0  0  0
 31 32  1  0  0  0
 32 33  1  0  0  0
 33 34  1  0  0  0
 34 35  1  0  0  0
 24 25  1  0  0  0
 25 26  2  0  0  0
 19 14  1  0  0  0
 11  1  1  0  0  0
 26 21  1  0  0  0
  9  3  1  0  0  0
 35 30  1  0  0  0
 13 20  1  0  0  0
  6 12  1  0  0  0
M  END
> <minimizedAffinity>
21.02723

> <CNNscore>
0.3324204087

> <CNNaffinity>
7.4621772766

> <CNN_VS>
2.4805800915

> <CNNaffinity_variance>
1.0312879086

$$$$
[H]Oc1c([H])c([H])c([C@@]2([H])Sc3c([H])c(O[H])c([H])c([H])c3S[C@@]2([H])c2c([H])c([H])c(OC([H])([H])C([H])([H])N3C([H])([H])C([H])([H])C([H])([H])C([H])([H])C3([H])[H])c([H])c2[H])c([H])c1[H]


 35 39  0  0  0  0  0  0  0  0999 V2000
    9.5674   47.2684  130.7676 C   0  0  0  0  0  0  0  0  0  0  0  0
    9.6054   48.9857  130.2625 S   0  0  0  0  0  0  0  0  0  0  0  0
    8.0273   49.5448  129.7107 C   0  0  0  0  0  0  0  0  0  0  0  0
    7.9317   50.8971  129.3627 C   0  0  0  0  0  0  0  0  0  0  0  0
    6.7694   51.4769  128.9135 C   0  0  0  0  0  0  0  0  0  0  0  0
    6.7012   52.8336  128.5718 O   0  0  0  0  0  0  0  0  0  0  0  0
    5.6541   50.6889  128.8029 C   0  0  0  0  0  0  0  0  0  0  0  0
    5.7246   49.3526  129.1404 C   0  0  0  0  0  0  0  0  0  0  0  0
    6.8902   48.8047  129.5832 C   0  0  0  0  0  0  0  0  0  0  0  0
    6.9078   47.0451  130.0136 S   0  0  0  0  0  0  0  0  0  0  0  0
    8.2221   46.8937  131.2692 C   0  0  0  0  0  0  0  0  0  0  0  0
    6.9077   53.0632  127.6085 H   0  0  0  0  0  0  0  0  0  0  0  0
   12.0203   43.9144  126.9298 O   0  0  0  0  0  0  0  0  0  0  0  0
   11.3958   44.7571  127.8666 C   0  0  0  0  0  0  0  0  0  0  0  0
   11.7177   44.6544  129.1954 C   0  0  0  0  0  0  0  0  0  0  0  0
   11.0934   45.4891  130.0909 C   0  0  0  0  0  0  0  0  0  0  0  0
   10.1398   46.4412  129.6950 C   0  0  0  0  0  0  0  0  0  0  0  0
    9.8285   46.5334  128.3711 C   0  0  0  0  0  0  0  0  0  0  0  0
   10.4660   45.6813  127.4587 C   0  0  0  0  0  0  0  0  0  0  0  0
   12.7049   43.2341  127.2303 H   0  0  0  0  0  0  0  0  0  0  0  0
    8.1396   45.6627  132.0520 C   0  0  0  0  0  0  0  0  0  0  0  0
    8.1318   44.4347  131.4325 C   0  0  0  0  0  0  0  0  0  0  0  0
    8.0581   43.2710  132.1618 C   0  0  0  0  0  0  0  0  0  0  0  0
    7.9875   43.2931  133.5729 C   0  0  0  0  0  0  0  0  0  0  0  0
    7.9954   44.5111  134.1699 C   0  0  0  0  0  0  0  0  0  0  0  0
    8.0703   45.6667  133.4195 C   0  0  0  0  0  0  0  0  0  0  0  0
    7.9174   42.0786  134.1649 O   0  0  0  0  0  0  0  0  0  0  0  0
    8.8237   41.1514  134.5916 C   0  0  0  0  0  0  0  0  0  0  0  0
   10.1280   41.2711  133.8850 C   0  0  0  0  0  0  0  0  0  0  0  0
   10.5201   42.6348  133.6236 N   0  0  0  0  0  0  0  0  0  0  0  0
   11.1559   42.8775  132.3964 C   0  0  0  0  0  0  0  0  0  0  0  0
   12.5655   43.3756  132.4622 C   0  0  0  0  0  0  0  0  0  0  0  0
   12.8097   44.3668  133.5659 C   0  0  0  0  0  0  0  0  0  0  0  0
   11.5394   44.6791  134.3158 C   0  0  0  0  0  0  0  0  0  0  0  0
   10.9509   43.3581  134.7595 C   0  0  0  0  0  0  0  0  0  0  0  0
 13 14  1  0  0  0
 14 15  2  0  0  0
 15 16  1  0  0  0
 16 17  2  0  0  0
 17 18  1  0  0  0
 18 19  2  0  0  0
 17  1  1  0  0  0
  1  2  1  0  0  0
  2  3  1  0  0  0
  3  4  2  0  0  0
  4  5  1  0  0  0
  5  6  1  0  0  0
  5  7  2  0  0  0
  7  8  1  0  0  0
  8  9  2  0  0  0
  9 10  1  0  0  0
 10 11  1  0  0  0
 11 21  1  0  0  0
 21 22  2  0  0  0
 22 23  1  0  0  0
 23 24  2  0  0  0
 24 27  1  0  0  0
 27 28  1  0  0  0
 28 29  1  0  0  0
 29 30  1  0  0  0
 30 31  1  0  0  0
 31 32  1  0  0  0
 32 33  1  0  0  0
 33 34  1  0  0  0
 34 35  1  0  0  0
 24 25  1  0  0  0
 25 26  2  0  0  0
 19 14  1  0  0  0
 11  1  1  0  0  0
 26 21  1  0  0  0
  9  3  1  0  0  0
 35 30  1  0  0  0
 13 20  1  0  0  0
  6 12  1  0  0  0
M  END
> <minimizedAffinity>
7.77042

> <CNNscore>
0.3321578205

> <CNNaffinity>
7.4890146255

> <CNN_VS>
2.4875347614

> <CNNaffinity_variance>
0.3847967982

$$$$
[H]Oc1c([H])c([H])c([H])c(C2=C(C([H])([H])[H])c3c([H])c(O[H])c([H])c([H])c3O[C@@]2([H])c2c([H])c([H])c(OC([H])([H])C([H])([H])N3C([H])([H])C([H])(C([H])([H])F)C3([H])[H])c([H])c2[H])c1[H]


 36 40  0  0  0  0  0  0  0  0999 V2000
   10.4236   42.8091  129.3322 C   0  0  0  0  0  0  0  0  0  0  0  0
   11.2935   43.6637  130.2083 C   0  0  0  0  0  0  0  0  0  0  0  0
   10.8237   44.0336  131.4102 C   0  0  0  0  0  0  0  0  0  0  0  0
   11.6298   44.8727  132.2917 C   0  0  0  0  0  0  0  0  0  0  0  0
   12.9451   45.0446  131.8138 O   0  0  0  0  0  0  0  0  0  0  0  0
   13.4373   44.6909  130.5863 C   0  0  0  0  0  0  0  0  0  0  0  0
   14.7271   45.0353  130.1923 C   0  0  0  0  0  0  0  0  0  0  0  0
   15.1955   44.6711  128.9604 C   0  0  0  0  0  0  0  0  0  0  0  0
   14.4048   43.9584  128.0863 C   0  0  0  0  0  0  0  0  0  0  0  0
   14.8837   43.5851  126.8226 O   0  0  0  0  0  0  0  0  0  0  0  0
   13.1322   43.6304  128.5016 C   0  0  0  0  0  0  0  0  0  0  0  0
   12.6206   43.9727  129.7228 C   0  0  0  0  0  0  0  0  0  0  0  0
   15.3710   42.7005  126.6560 H   0  0  0  0  0  0  0  0  0  0  0  0
    9.5166   43.4862  131.8265 C   0  0  0  0  0  0  0  0  0  0  0  0
    8.3311   43.7603  131.2094 C   0  0  0  0  0  0  0  0  0  0  0  0
    7.1233   43.2500  131.6838 C   0  0  0  0  0  0  0  0  0  0  0  0
    7.1019   42.4505  132.7943 C   0  0  0  0  0  0  0  0  0  0  0  0
    8.2760   42.1545  133.4376 C   0  0  0  0  0  0  0  0  0  0  0  0
    8.2141   41.3369  134.5643 O   0  0  0  0  0  0  0  0  0  0  0  0
    9.4576   42.6641  132.9598 C   0  0  0  0  0  0  0  0  0  0  0  0
    8.2973   40.3407  134.4112 H   0  0  0  0  0  0  0  0  0  0  0  0
   11.0823   46.2365  132.5412 C   0  0  0  0  0  0  0  0  0  0  0  0
    9.9859   46.7133  131.9063 C   0  0  0  0  0  0  0  0  0  0  0  0
    9.5113   47.9942  132.2128 C   0  0  0  0  0  0  0  0  0  0  0  0
   10.1061   48.8158  133.1434 C   0  0  0  0  0  0  0  0  0  0  0  0
   11.2446   48.2790  133.7779 C   0  0  0  0  0  0  0  0  0  0  0  0
   11.7119   47.0227  133.4779 C   0  0  0  0  0  0  0  0  0  0  0  0
    9.7077   50.0648  133.5039 O   0  0  0  0  0  0  0  0  0  0  0  0
   10.0889   51.3179  133.1282 C   0  0  0  0  0  0  0  0  0  0  0  0
   10.1246   52.4030  134.1370 C   0  0  0  0  0  0  0  0  0  0  0  0
   11.3091   53.1053  134.3629 N   0  0  0  0  0  0  0  0  0  0  0  0
   11.4429   54.0907  135.3921 C   0  0  0  0  0  0  0  0  0  0  0  0
   12.9715   53.9002  135.2093 C   0  0  0  0  0  0  0  0  0  0  0  0
   12.4769   52.4713  134.8858 C   0  0  0  0  0  0  0  0  0  0  0  0
   13.4507   54.6611  134.0112 C   0  0  0  0  0  0  0  0  0  0  0  0
   14.3922   53.8751  133.3408 F   0  0  0  0  0  0  0  0  0  0  0  0
  1  2  1  0  0  0
  2  3  2  0  0  0
  3  4  1  0  0  0
  4  5  1  0  0  0
  5  6  1  0  0  0
  6  7  2  0  0  0
  7  8  1  0  0  0
  8  9  2  0  0  0
  9 10  1  0  0  0
  9 11  1  0  0  0
 11 12  2  0  0  0
  4 22  1  0  0  0
 22 23  2  0  0  0
 23 24  1  0  0  0
 24 25  2  0  0  0
 25 28  1  0  0  0
 28 29  1  0  0  0
 29 30  1  0  0  0
 30 31  1  0  0  0
 31 32  1  0  0  0
 32 33  1  0  0  0
 33 35  1  0  0  0
 35 36  1  0  0  0
 33 34  1  0  0  0
 25 26  1  0  0  0
 26 27  2  0  0  0
  3 14  1  0  0  0
 14 15  2  0  0  0
 15 16  1  0  0  0
 16 17  2  0  0  0
 17 18  1  0  0  0
 18 19  1  0  0  0
 18 20  2  0  0  0
 12  2  1  0  0  0
 27 22  1  0  0  0
 20 14  1  0  0  0
 12  6  1  0  0  0
 34 31  1  0  0  0
 10 13  1  0  0  0
 19 21  1  0  0  0
M  END
> <minimizedAffinity>
31.05016

> <CNNscore>
0.4367943704

> <CNNaffinity>
7.1815962791

> <CNN_VS>
3.1368808746

> <CNNaffinity_variance>
2.8679423332

$$$$
[H]Oc1c([H])c([H])c([H])c(C2=C(C([H])([H])[H])c3c([H])c(O[H])c([H])c([H])c3O[C@@]2([H])c2c([H])c([H])c(OC([H])([H])C([H])([H])N3C([H])([H])C([H])(C([H])([H])F)C3([H])[H])c([H])c2[H])c1[H]


 36 40  0  0  0  0  0  0  0  0999 V2000
   10.6314   42.5717  130.9350 C   0  0  0  0  0  0  0  0  0  0  0  0
   11.0035   44.0162  130.7631 C   0  0  0  0  0  0  0  0  0  0  0  0
   10.3287   44.9387  131.4672 C   0  0  0  0  0  0  0  0  0  0  0  0
   10.6486   46.3558  131.3250 C   0  0  0  0  0  0  0  0  0  0  0  0
   11.8132   46.5687  130.5592 O   0  0  0  0  0  0  0  0  0  0  0  0
   12.5038   45.6456  129.8209 C   0  0  0  0  0  0  0  0  0  0  0  0
   13.5681   46.0158  129.0037 C   0  0  0  0  0  0  0  0  0  0  0  0
   14.2418   45.0751  128.2752 C   0  0  0  0  0  0  0  0  0  0  0  0
   13.8837   43.7464  128.3339 C   0  0  0  0  0  0  0  0  0  0  0  0
   14.5732   42.7810  127.5866 O   0  0  0  0  0  0  0  0  0  0  0  0
   12.8267   43.4073  129.1508 C   0  0  0  0  0  0  0  0  0  0  0  0
   12.1235   44.3123  129.8969 C   0  0  0  0  0  0  0  0  0  0  0  0
   15.3906   42.2825  127.9489 H   0  0  0  0  0  0  0  0  0  0  0  0
    9.3296   44.4533  132.4408 C   0  0  0  0  0  0  0  0  0  0  0  0
    8.8644   43.1721  132.4983 C   0  0  0  0  0  0  0  0  0  0  0  0
    7.8821   42.7899  133.4111 C   0  0  0  0  0  0  0  0  0  0  0  0
    7.3573   43.7056  134.2822 C   0  0  0  0  0  0  0  0  0  0  0  0
    7.8037   45.0016  134.2517 C   0  0  0  0  0  0  0  0  0  0  0  0
    7.2460   45.9049  135.1544 O   0  0  0  0  0  0  0  0  0  0  0  0
    8.7708   45.3640  133.3475 C   0  0  0  0  0  0  0  0  0  0  0  0
    7.7034   45.9955  136.0518 H   0  0  0  0  0  0  0  0  0  0  0  0
    9.5743   47.1881  130.7125 C   0  0  0  0  0  0  0  0  0  0  0  0
    9.3562   47.2365  129.3774 C   0  0  0  0  0  0  0  0  0  0  0  0
    8.3093   48.0186  128.8752 C   0  0  0  0  0  0  0  0  0  0  0  0
    7.4685   48.7571  129.6769 C   0  0  0  0  0  0  0  0  0  0  0  0
    7.7336   48.6779  131.0590 C   0  0  0  0  0  0  0  0  0  0  0  0
    8.7608   47.9115  131.5533 C   0  0  0  0  0  0  0  0  0  0  0  0
    6.4285   49.5344  129.2731 O   0  0  0  0  0  0  0  0  0  0  0  0
    6.3049   50.8584  128.9756 C   0  0  0  0  0  0  0  0  0  0  0  0
    7.3803   51.5393  128.2165 C   0  0  0  0  0  0  0  0  0  0  0  0
    7.1083   52.7278  127.5378 N   0  0  0  0  0  0  0  0  0  0  0  0
    7.2225   54.0157  128.1516 C   0  0  0  0  0  0  0  0  0  0  0  0
    7.2483   54.5706  126.7032 C   0  0  0  0  0  0  0  0  0  0  0  0
    7.9473   53.2084  126.4869 C   0  0  0  0  0  0  0  0  0  0  0  0
    5.8591   54.6340  126.1459 C   0  0  0  0  0  0  0  0  0  0  0  0
    5.9470   54.6508  124.7511 F   0  0  0  0  0  0  0  0  0  0  0  0
  1  2  1  0  0  0
  2  3  2  0  0  0
  3  4  1  0  0  0
  4  5  1  0  0  0
  5  6  1  0  0  0
  6  7  2  0  0  0
  7  8  1  0  0  0
  8  9  2  0  0  0
  9 10  1  0  0  0
  9 11  1  0  0  0
 11 12  2  0  0  0
  4 22  1  0  0  0
 22 23  2  0  0  0
 23 24  1  0  0  0
 24 25  2  0  0  0
 25 28  1  0  0  0
 28 29  1  0  0  0
 29 30  1  0  0  0
 30 31  1  0  0  0
 31 32  1  0  0  0
 32 33  1  0  0  0
 33 35  1  0  0  0
 35 36  1  0  0  0
 33 34  1  0  0  0
 25 26  1  0  0  0
 26 27  2  0  0  0
  3 14  1  0  0  0
 14 15  2  0  0  0
 15 16  1  0  0  0
 16 17  2  0  0  0
 17 18  1  0  0  0
 18 19  1  0  0  0
 18 20  2  0  0  0
 12  2  1  0  0  0
 27 22  1  0  0  0
 20 14  1  0  0  0
 12  6  1  0  0  0
 34 31  1  0  0  0
 10 13  1  0  0  0
 19 21  1  0  0  0
M  END
> <minimizedAffinity>
20.36621

> <CNNscore>
0.4067493975

> <CNNaffinity>
7.1106843948

> <CNN_VS>
2.8922665119

> <CNNaffinity_variance>
2.1930613518

$$$$
[H]Oc1c([H])c([H])c([H])c(C2=C(C([H])([H])[H])c3c([H])c(O[H])c([H])c([H])c3O[C@@]2([H])c2c([H])c([H])c(OC([H])([H])C([H])([H])N3C([H])([H])C([H])(C([H])([H])F)C3([H])[H])c([H])c2[H])c1[H]


 36 40  0  0  0  0  0  0  0  0999 V2000
   10.5148   46.7122  128.1341 C   0  0  0  0  0  0  0  0  0  0  0  0
   10.5077   45.6925  129.2363 C   0  0  0  0  0  0  0  0  0  0  0  0
    9.3712   45.5030  129.9252 C   0  0  0  0  0  0  0  0  0  0  0  0
    9.3201   44.5298  131.0119 C   0  0  0  0  0  0  0  0  0  0  0  0
   10.4865   43.7409  131.0810 O   0  0  0  0  0  0  0  0  0  0  0  0
   11.6597   43.9288  130.4009 C   0  0  0  0  0  0  0  0  0  0  0  0
   12.7835   43.1491  130.6586 C   0  0  0  0  0  0  0  0  0  0  0  0
   13.9442   43.3568  129.9664 C   0  0  0  0  0  0  0  0  0  0  0  0
   14.0263   44.3379  129.0031 C   0  0  0  0  0  0  0  0  0  0  0  0
   15.2162   44.5524  128.2932 O   0  0  0  0  0  0  0  0  0  0  0  0
   12.8990   45.0953  128.7679 C   0  0  0  0  0  0  0  0  0  0  0  0
   11.7173   44.9244  129.4347 C   0  0  0  0  0  0  0  0  0  0  0  0
   15.4299   44.0711  127.4154 H   0  0  0  0  0  0  0  0  0  0  0  0
    8.1749   46.2458  129.4795 C   0  0  0  0  0  0  0  0  0  0  0  0
    6.9181   45.7194  129.4121 C   0  0  0  0  0  0  0  0  0  0  0  0
    5.8382   46.4607  128.9340 C   0  0  0  0  0  0  0  0  0  0  0  0
    6.0192   47.7515  128.5173 C   0  0  0  0  0  0  0  0  0  0  0  0
    7.2696   48.3114  128.5729 C   0  0  0  0  0  0  0  0  0  0  0  0
    7.4144   49.6282  128.1404 O   0  0  0  0  0  0  0  0  0  0  0  0
    8.3236   47.5699  129.0454 C   0  0  0  0  0  0  0  0  0  0  0  0
    7.2941   50.3532  128.8351 H   0  0  0  0  0  0  0  0  0  0  0  0
    9.1125   45.1087  132.3698 C   0  0  0  0  0  0  0  0  0  0  0  0
    7.8835   45.3152  132.8983 C   0  0  0  0  0  0  0  0  0  0  0  0
    7.7655   45.8361  134.1924 C   0  0  0  0  0  0  0  0  0  0  0  0
    8.8497   46.1570  134.9776 C   0  0  0  0  0  0  0  0  0  0  0  0
   10.1083   45.9272  134.3862 C   0  0  0  0  0  0  0  0  0  0  0  0
   10.2259   45.4167  133.1165 C   0  0  0  0  0  0  0  0  0  0  0  0
    8.8235   46.6590  136.2409 O   0  0  0  0  0  0  0  0  0  0  0  0
    8.6509   47.9105  136.7515 C   0  0  0  0  0  0  0  0  0  0  0  0
    8.3852   49.0431  135.8333 C   0  0  0  0  0  0  0  0  0  0  0  0
    8.9600   49.0582  134.5618 N   0  0  0  0  0  0  0  0  0  0  0  0
    9.1804   50.2647  133.8241 C   0  0  0  0  0  0  0  0  0  0  0  0
   10.1672   49.4224  132.9738 C   0  0  0  0  0  0  0  0  0  0  0  0
   10.3343   48.7345  134.3485 C   0  0  0  0  0  0  0  0  0  0  0  0
    9.4180   48.5990  131.9714 C   0  0  0  0  0  0  0  0  0  0  0  0
    9.5565   49.2018  130.7179 F   0  0  0  0  0  0  0  0  0  0  0  0
  1  2  1  0  0  0
  2  3  2  0  0  0
  3  4  1  0  0  0
  4  5  1  0  0  0
  5  6  1  0  0  0
  6  7  2  0  0  0
  7  8  1  0  0  0
  8  9  2  0  0  0
  9 10  1  0  0  0
  9 11  1  0  0  0
 11 12  2  0  0  0
  4 22  1  0  0  0
 22 23  2  0  0  0
 23 24  1  0  0  0
 24 25  2  0  0  0
 25 28  1  0  0  0
 28 29  1  0  0  0
 29 30  1  0  0  0
 30 31  1  0  0  0
 31 32  1  0  0  0
 32 33  1  0  0  0
 33 35  1  0  0  0
 35 36  1  0  0  0
 33 34  1  0  0  0
 25 26  1  0  0  0
 26 27  2  0  0  0
  3 14  1  0  0  0
 14 15  2  0  0  0
 15 16  1  0  0  0
 16 17  2  0  0  0
 17 18  1  0  0  0
 18 19  1  0  0  0
 18 20  2  0  0  0
 12  2  1  0  0  0
 27 22  1  0  0  0
 20 14  1  0  0  0
 12  6  1  0  0  0
 34 31  1  0  0  0
 10 13  1  0  0  0
 19 21  1  0  0  0
M  END
> <minimizedAffinity>
11.86873

> <CNNscore>
0.3987598419

> <CNNaffinity>
7.4914903641

> <CNN_VS>
2.9873054028

> <CNNaffinity_variance>
0.9442752600

$$$$
[H]Oc1c([H])c([H])c([H])c(C2=C(C([H])([H])[H])c3c([H])c(O[H])c([H])c([H])c3O[C@@]2([H])c2c([H])c([H])c(OC([H])([H])C([H])([H])N3C([H])([H])C([H])(C([H])([H])F)C3([H])[H])c([H])c2[H])c1[H]


 36 40  0  0  0  0  0  0  0  0999 V2000
   10.7884   42.3528  129.7789 C   0  0  0  0  0  0  0  0  0  0  0  0
   11.4213   43.4688  130.5592 C   0  0  0  0  0  0  0  0  0  0  0  0
   10.7833   43.9313  131.6460 C   0  0  0  0  0  0  0  0  0  0  0  0
   11.3554   45.0218  132.4298 C   0  0  0  0  0  0  0  0  0  0  0  0
   12.6669   45.3434  132.0243 O   0  0  0  0  0  0  0  0  0  0  0  0
   13.3268   44.8967  130.9112 C   0  0  0  0  0  0  0  0  0  0  0  0
   14.5776   45.3946  130.5576 C   0  0  0  0  0  0  0  0  0  0  0  0
   15.2163   44.9328  129.4403 C   0  0  0  0  0  0  0  0  0  0  0  0
   14.6385   43.9690  128.6438 C   0  0  0  0  0  0  0  0  0  0  0  0
   15.2920   43.4953  127.4974 O   0  0  0  0  0  0  0  0  0  0  0  0
   13.3999   43.4932  129.0169 C   0  0  0  0  0  0  0  0  0  0  0  0
   12.7233   43.9247  130.1243 C   0  0  0  0  0  0  0  0  0  0  0  0
   15.9279   42.6933  127.5160 H   0  0  0  0  0  0  0  0  0  0  0  0
    9.5455   43.2363  132.0543 C   0  0  0  0  0  0  0  0  0  0  0  0
    8.3880   43.2296  131.3323 C   0  0  0  0  0  0  0  0  0  0  0  0
    7.2375   42.5947  131.7988 C   0  0  0  0  0  0  0  0  0  0  0  0
    7.2462   41.9546  133.0083 C   0  0  0  0  0  0  0  0  0  0  0  0
    8.3937   41.9414  133.7587 C   0  0  0  0  0  0  0  0  0  0  0  0
    8.3639   41.2791  134.9843 O   0  0  0  0  0  0  0  0  0  0  0  0
    9.5188   42.5709  133.2873 C   0  0  0  0  0  0  0  0  0  0  0  0
    8.6118   40.2987  134.9801 H   0  0  0  0  0  0  0  0  0  0  0  0
   10.5759   46.2923  132.4084 C   0  0  0  0  0  0  0  0  0  0  0  0
   10.9884   47.4158  133.0409 C   0  0  0  0  0  0  0  0  0  0  0  0
   10.2184   48.5816  132.9531 C   0  0  0  0  0  0  0  0  0  0  0  0
    9.0404   48.6553  132.2446 C   0  0  0  0  0  0  0  0  0  0  0  0
    8.6493   47.4623  131.6040 C   0  0  0  0  0  0  0  0  0  0  0  0
    9.4034   46.3174  131.6897 C   0  0  0  0  0  0  0  0  0  0  0  0
    8.2388   49.7444  132.1034 O   0  0  0  0  0  0  0  0  0  0  0  0
    6.8948   49.9422  132.2097 C   0  0  0  0  0  0  0  0  0  0  0  0
    6.0650   49.9907  130.9826 C   0  0  0  0  0  0  0  0  0  0  0  0
    6.4701   50.7702  129.8984 N   0  0  0  0  0  0  0  0  0  0  0  0
    7.4908   50.3572  128.9841 C   0  0  0  0  0  0  0  0  0  0  0  0
    6.9089   51.4368  128.0343 C   0  0  0  0  0  0  0  0  0  0  0  0
    5.6225   50.9994  128.7723 C   0  0  0  0  0  0  0  0  0  0  0  0
    7.4011   52.7958  128.4284 C   0  0  0  0  0  0  0  0  0  0  0  0
    6.4790   53.3548  129.3178 F   0  0  0  0  0  0  0  0  0  0  0  0
  1  2  1  0  0  0
  2  3  2  0  0  0
  3  4  1  0  0  0
  4  5  1  0  0  0
  5  6  1  0  0  0
  6  7  2  0  0  0
  7  8  1  0  0  0
  8  9  2  0  0  0
  9 10  1  0  0  0
  9 11  1  0  0  0
 11 12  2  0  0  0
  4 22  1  0  0  0
 22 23  2  0  0  0
 23 24  1  0  0  0
 24 25  2  0  0  0
 25 28  1  0  0  0
 28 29  1  0  0  0
 29 30  1  0  0  0
 30 31  1  0  0  0
 31 32  1  0  0  0
 32 33  1  0  0  0
 33 35  1  0  0  0
 35 36  1  0  0  0
 33 34  1  0  0  0
 25 26  1  0  0  0
 26 27  2  0  0  0
  3 14  1  0  0  0
 14 15  2  0  0  0
 15 16  1  0  0  0
 16 17  2  0  0  0
 17 18  1  0  0  0
 18 19  1  0  0  0
 18 20  2  0  0  0
 12  2  1  0  0  0
 27 22  1  0  0  0
 20 14  1  0  0  0
 12  6  1  0  0  0
 34 31  1  0  0  0
 10 13  1  0  0  0
 19 21  1  0  0  0
M  END
> <minimizedAffinity>
24.17978

> <CNNscore>
0.3984918594

> <CNNaffinity>
7.2765617371

> <CNN_VS>
2.8996505737

> <CNNaffinity_variance>
2.2688317299

$$$$
[H]Oc1c([H])c([H])c([H])c(C2=C(C([H])([H])[H])c3c([H])c(O[H])c([H])c([H])c3O[C@@]2([H])c2c([H])c([H])c(OC([H])([H])C([H])([H])N3C([H])([H])C([H])(C([H])([H])F)C3([H])[H])c([H])c2[H])c1[H]


 36 40  0  0  0  0  0  0  0  0999 V2000
    9.1413   44.3928  134.7336 C   0  0  0  0  0  0  0  0  0  0  0  0
   10.0131   45.0546  133.7056 C   0  0  0  0  0  0  0  0  0  0  0  0
   10.1565   46.3885  133.7517 C   0  0  0  0  0  0  0  0  0  0  0  0
   10.9859   47.0764  132.7669 C   0  0  0  0  0  0  0  0  0  0  0  0
   11.7154   46.1798  131.9597 O   0  0  0  0  0  0  0  0  0  0  0  0
   11.5710   44.8204  131.8858 C   0  0  0  0  0  0  0  0  0  0  0  0
   12.2693   44.0640  130.9489 C   0  0  0  0  0  0  0  0  0  0  0  0
   12.1072   42.7074  130.8943 C   0  0  0  0  0  0  0  0  0  0  0  0
   11.2534   42.0626  131.7616 C   0  0  0  0  0  0  0  0  0  0  0  0
   11.0857   40.6717  131.7061 O   0  0  0  0  0  0  0  0  0  0  0  0
   10.5746   42.8352  132.6792 C   0  0  0  0  0  0  0  0  0  0  0  0
   10.7040   44.1935  132.7710 C   0  0  0  0  0  0  0  0  0  0  0  0
   11.6657   40.0236  132.2460 H   0  0  0  0  0  0  0  0  0  0  0  0
    9.5214   47.1015  134.8786 C   0  0  0  0  0  0  0  0  0  0  0  0
    9.8626   46.9365  136.1892 C   0  0  0  0  0  0  0  0  0  0  0  0
    9.1885   47.6041  137.2111 C   0  0  0  0  0  0  0  0  0  0  0  0
    8.1559   48.4522  136.9160 C   0  0  0  0  0  0  0  0  0  0  0  0
    7.7883   48.6415  135.6087 C   0  0  0  0  0  0  0  0  0  0  0  0
    6.7329   49.5131  135.3477 O   0  0  0  0  0  0  0  0  0  0  0  0
    8.4604   47.9775  134.6129 C   0  0  0  0  0  0  0  0  0  0  0  0
    6.9692   50.4847  135.1969 H   0  0  0  0  0  0  0  0  0  0  0  0
   10.2482   47.9835  131.8422 C   0  0  0  0  0  0  0  0  0  0  0  0
    9.9371   49.2614  132.1626 C   0  0  0  0  0  0  0  0  0  0  0  0
    9.2676   50.0647  131.2319 C   0  0  0  0  0  0  0  0  0  0  0  0
    8.8997   49.6226  129.9812 C   0  0  0  0  0  0  0  0  0  0  0  0
    9.2423   48.2863  129.6918 C   0  0  0  0  0  0  0  0  0  0  0  0
    9.8986   47.4966  130.6042 C   0  0  0  0  0  0  0  0  0  0  0  0
    8.2560   50.3360  129.0192 O   0  0  0  0  0  0  0  0  0  0  0  0
    7.0289   50.9242  128.9482 C   0  0  0  0  0  0  0  0  0  0  0  0
    5.8864   50.3188  129.6725 C   0  0  0  0  0  0  0  0  0  0  0  0
    5.5565   48.9801  129.4580 N   0  0  0  0  0  0  0  0  0  0  0  0
    5.8854   48.2834  128.2518 C   0  0  0  0  0  0  0  0  0  0  0  0
    5.6390   46.9908  129.0734 C   0  0  0  0  0  0  0  0  0  0  0  0
    6.1825   47.9207  130.1827 C   0  0  0  0  0  0  0  0  0  0  0  0
    4.1704   46.7146  129.1800 C   0  0  0  0  0  0  0  0  0  0  0  0
    3.8933   46.3182  130.4914 F   0  0  0  0  0  0  0  0  0  0  0  0
  1  2  1  0  0  0
  2  3  2  0  0  0
  3  4  1  0  0  0
  4  5  1  0  0  0
  5  6  1  0  0  0
  6  7  2  0  0  0
  7  8  1  0  0  0
  8  9  2  0  0  0
  9 10  1  0  0  0
  9 11  1  0  0  0
 11 12  2  0  0  0
  4 22  1  0  0  0
 22 23  2  0  0  0
 23 24  1  0  0  0
 24 25  2  0  0  0
 25 28  1  0  0  0
 28 29  1  0  0  0
 29 30  1  0  0  0
 30 31  1  0  0  0
 31 32  1  0  0  0
 32 33  1  0  0  0
 33 35  1  0  0  0
 35 36  1  0  0  0
 33 34  1  0  0  0
 25 26  1  0  0  0
 26 27  2  0  0  0
  3 14  1  0  0  0
 14 15  2  0  0  0
 15 16  1  0  0  0
 16 17  2  0  0  0
 17 18  1  0  0  0
 18 19  1  0  0  0
 18 20  2  0  0  0
 12  2  1  0  0  0
 27 22  1  0  0  0
 20 14  1  0  0  0
 12  6  1  0  0  0
 34 31  1  0  0  0
 10 13  1  0  0  0
 19 21  1  0  0  0
M  END
> <minimizedAffinity>
10.81848

> <CNNscore>
0.3863452673

> <CNNaffinity>
7.4938707352

> <CNN_VS>
2.8952214718

> <CNNaffinity_variance>
0.7487147450

$$$$
[H]Oc1c([H])c([H])c([H])c(C2=C(C([H])([H])[H])c3c([H])c(O[H])c([H])c([H])c3O[C@@]2([H])c2c([H])c([H])c(OC([H])([H])C([H])([H])N3C([H])([H])C([H])(C([H])([H])F)C3([H])[H])c([H])c2[H])c1[H]


 36 40  0  0  0  0  0  0  0  0999 V2000
    7.2168   46.3208  128.3361 C   0  0  0  0  0  0  0  0  0  0  0  0
    7.8819   47.2953  129.2649 C   0  0  0  0  0  0  0  0  0  0  0  0
    9.1165   47.0138  129.7104 C   0  0  0  0  0  0  0  0  0  0  0  0
    9.7982   47.9266  130.6229 C   0  0  0  0  0  0  0  0  0  0  0  0
    9.1037   49.1431  130.7831 O   0  0  0  0  0  0  0  0  0  0  0  0
    7.8392   49.4423  130.3523 C   0  0  0  0  0  0  0  0  0  0  0  0
    7.2199   50.6422  130.6901 C   0  0  0  0  0  0  0  0  0  0  0  0
    5.9556   50.9175  130.2481 C   0  0  0  0  0  0  0  0  0  0  0  0
    5.2702   50.0175  129.4624 C   0  0  0  0  0  0  0  0  0  0  0  0
    3.9735   50.2983  129.0093 O   0  0  0  0  0  0  0  0  0  0  0  0
    5.9066   48.8374  129.1428 C   0  0  0  0  0  0  0  0  0  0  0  0
    7.1689   48.5185  129.5615 C   0  0  0  0  0  0  0  0  0  0  0  0
    3.7896   50.7773  128.1235 H   0  0  0  0  0  0  0  0  0  0  0  0
    9.7741   45.8060  129.1715 C   0  0  0  0  0  0  0  0  0  0  0  0
   10.7797   45.8188  128.2496 C   0  0  0  0  0  0  0  0  0  0  0  0
   11.3244   44.6391  127.7436 C   0  0  0  0  0  0  0  0  0  0  0  0
   10.8553   43.4258  128.1685 C   0  0  0  0  0  0  0  0  0  0  0  0
    9.8460   43.3775  129.0952 C   0  0  0  0  0  0  0  0  0  0  0  0
    9.3952   42.1239  129.5039 O   0  0  0  0  0  0  0  0  0  0  0  0
    9.3188   44.5467  129.5845 C   0  0  0  0  0  0  0  0  0  0  0  0
    9.8571   41.7103  130.3028 H   0  0  0  0  0  0  0  0  0  0  0  0
   10.0414   47.3880  131.9914 C   0  0  0  0  0  0  0  0  0  0  0  0
   11.2744   47.0528  132.4385 C   0  0  0  0  0  0  0  0  0  0  0  0
   11.4310   46.5799  133.7468 C   0  0  0  0  0  0  0  0  0  0  0  0
   10.3819   46.4335  134.6260 C   0  0  0  0  0  0  0  0  0  0  0  0
    9.1175   46.7928  134.1173 C   0  0  0  0  0  0  0  0  0  0  0  0
    8.9620   47.2563  132.8337 C   0  0  0  0  0  0  0  0  0  0  0  0
   10.4475   45.9896  135.9095 O   0  0  0  0  0  0  0  0  0  0  0  0
   10.6202   44.7601  136.4711 C   0  0  0  0  0  0  0  0  0  0  0  0
   11.0815   43.6313  135.6287 C   0  0  0  0  0  0  0  0  0  0  0  0
   10.4082   43.3250  134.4454 N   0  0  0  0  0  0  0  0  0  0  0  0
   11.0503   43.3196  133.1663 C   0  0  0  0  0  0  0  0  0  0  0  0
    9.8337   42.4814  132.6933 C   0  0  0  0  0  0  0  0  0  0  0  0
    9.9391   42.0066  134.1610 C   0  0  0  0  0  0  0  0  0  0  0  0
    8.6596   43.3731  132.4278 C   0  0  0  0  0  0  0  0  0  0  0  0
    7.6981   42.6357  131.7311 F   0  0  0  0  0  0  0  0  0  0  0  0
  1  2  1  0  0  0
  2  3  2  0  0  0
  3  4  1  0  0  0
  4  5  1  0  0  0
  5  6  1  0  0  0
  6  7  2  0  0  0
  7  8  1  0  0  0
  8  9  2  0  0  0
  9 10  1  0  0  0
  9 11  1  0  0  0
 11 12  2  0  0  0
  4 22  1  0  0  0
 22 23  2  0  0  0
 23 24  1  0  0  0
 24 25  2  0  0  0
 25 28  1  0  0  0
 28 29  1  0  0  0
 29 30  1  0  0  0
 30 31  1  0  0  0
 31 32  1  0  0  0
 32 33  1  0  0  0
 33 35  1  0  0  0
 35 36  1  0  0  0
 33 34  1  0  0  0
 25 26  1  0  0  0
 26 27  2  0  0  0
  3 14  1  0  0  0
 14 15  2  0  0  0
 15 16  1  0  0  0
 16 17  2  0  0  0
 17 18  1  0  0  0
 18 19  1  0  0  0
 18 20  2  0  0  0
 12  2  1  0  0  0
 27 22  1  0  0  0
 20 14  1  0  0  0
 12  6  1  0  0  0
 34 31  1  0  0  0
 10 13  1  0  0  0
 19 21  1  0  0  0
M  END
> <minimizedAffinity>
-0.33892

> <CNNscore>
0.3706672192

> <CNNaffinity>
7.9631562233

> <CNN_VS>
2.9516808987

> <CNNaffinity_variance>
0.6059634686

$$$$
[H]Oc1c([H])c([H])c([H])c(C2=C(C([H])([H])[H])c3c([H])c(O[H])c([H])c([H])c3O[C@@]2([H])c2c([H])c([H])c(OC([H])([H])C([H])([H])N3C([H])([H])C([H])(C([H])([H])F)C3([H])[H])c([H])c2[H])c1[H]


 36 40  0  0  0  0  0  0  0  0999 V2000
    7.1538   48.4686  133.1521 C   0  0  0  0  0  0  0  0  0  0  0  0
    8.5322   48.0754  132.7048 C   0  0  0  0  0  0  0  0  0  0  0  0
    8.8550   48.2352  131.4116 C   0  0  0  0  0  0  0  0  0  0  0  0
   10.1798   47.8573  130.9291 C   0  0  0  0  0  0  0  0  0  0  0  0
   11.0586   47.5239  131.9800 O   0  0  0  0  0  0  0  0  0  0  0  0
   10.7453   47.3390  133.2997 C   0  0  0  0  0  0  0  0  0  0  0  0
   11.6897   46.8838  134.2154 C   0  0  0  0  0  0  0  0  0  0  0  0
   11.3519   46.7062  135.5283 C   0  0  0  0  0  0  0  0  0  0  0  0
   10.0754   46.9728  135.9717 C   0  0  0  0  0  0  0  0  0  0  0  0
    9.7276   46.7903  137.3176 O   0  0  0  0  0  0  0  0  0  0  0  0
    9.1601   47.4224  135.0444 C   0  0  0  0  0  0  0  0  0  0  0  0
    9.4515   47.6146  133.7221 C   0  0  0  0  0  0  0  0  0  0  0  0
    9.8193   47.5320  138.0171 H   0  0  0  0  0  0  0  0  0  0  0  0
    7.8566   48.8837  130.5374 C   0  0  0  0  0  0  0  0  0  0  0  0
    6.9086   48.2165  129.8181 C   0  0  0  0  0  0  0  0  0  0  0  0
    6.0261   48.8860  128.9711 C   0  0  0  0  0  0  0  0  0  0  0  0
    6.0929   50.2468  128.8429 C   0  0  0  0  0  0  0  0  0  0  0  0
    7.0333   50.9480  129.5527 C   0  0  0  0  0  0  0  0  0  0  0  0
    7.0702   52.3322  129.3965 O   0  0  0  0  0  0  0  0  0  0  0  0
    7.8960   50.2759  130.3825 C   0  0  0  0  0  0  0  0  0  0  0  0
    6.4993   52.8786  130.0275 H   0  0  0  0  0  0  0  0  0  0  0  0
   10.2019   46.7143  129.9724 C   0  0  0  0  0  0  0  0  0  0  0  0
    9.3629   46.6287  128.9136 C   0  0  0  0  0  0  0  0  0  0  0  0
    9.4605   45.5393  128.0397 C   0  0  0  0  0  0  0  0  0  0  0  0
   10.3809   44.5277  128.1962 C   0  0  0  0  0  0  0  0  0  0  0  0
   11.2320   44.6575  129.3121 C   0  0  0  0  0  0  0  0  0  0  0  0
   11.1371   45.7254  130.1708 C   0  0  0  0  0  0  0  0  0  0  0  0
   10.5464   43.4426  127.3938 O   0  0  0  0  0  0  0  0  0  0  0  0
   10.1046   42.1549  127.4515 C   0  0  0  0  0  0  0  0  0  0  0  0
    9.8239   41.5381  128.7696 C   0  0  0  0  0  0  0  0  0  0  0  0
    9.2352   42.2966  129.7821 N   0  0  0  0  0  0  0  0  0  0  0  0
    8.0978   41.8481  130.5263 C   0  0  0  0  0  0  0  0  0  0  0  0
    8.4963   42.9343  131.5596 C   0  0  0  0  0  0  0  0  0  0  0  0
    9.8927   42.5383  131.0265 C   0  0  0  0  0  0  0  0  0  0  0  0
    8.0329   44.2831  131.1009 C   0  0  0  0  0  0  0  0  0  0  0  0
    7.8776   45.0987  132.2254 F   0  0  0  0  0  0  0  0  0  0  0  0
  1  2  1  0  0  0
  2  3  2  0  0  0
  3  4  1  0  0  0
  4  5  1  0  0  0
  5  6  1  0  0  0
  6  7  2  0  0  0
  7  8  1  0  0  0
  8  9  2  0  0  0
  9 10  1  0  0  0
  9 11  1  0  0  0
 11 12  2  0  0  0
  4 22  1  0  0  0
 22 23  2  0  0  0
 23 24  1  0  0  0
 24 25  2  0  0  0
 25 28  1  0  0  0
 28 29  1  0  0  0
 29 30  1  0  0  0
 30 31  1  0  0  0
 31 32  1  0  0  0
 32 33  1  0  0  0
 33 35  1  0  0  0
 35 36  1  0  0  0
 33 34  1  0  0  0
 25 26  1  0  0  0
 26 27  2  0  0  0
  3 14  1  0  0  0
 14 15  2  0  0  0
 15 16  1  0  0  0
 16 17  2  0  0  0
 17 18  1  0  0  0
 18 19  1  0  0  0
 18 20  2  0  0  0
 12  2  1  0  0  0
 27 22  1  0  0  0
 20 14  1  0  0  0
 12  6  1  0  0  0
 34 31  1  0  0  0
 10 13  1  0  0  0
 19 21  1  0  0  0
M  END
> <minimizedAffinity>
8.74523

> <CNNscore>
0.3674456179

> <CNNaffinity>
7.5909752846

> <CNN_VS>
2.7892706394

> <CNNaffinity_variance>
1.1573975086

$$$$
[H]Oc1c([H])c([H])c([H])c(C2=C(C([H])([H])[H])c3c([H])c(O[H])c([H])c([H])c3O[C@@]2([H])c2c([H])c([H])c(OC([H])([H])C([H])([H])N3C([H])([H])C([H])(C([H])([H])F)C3([H])[H])c([H])c2[H])c1[H]


 36 40  0  0  0  0  0  0  0  0999 V2000
    9.6869   47.7267  128.1240 C   0  0  0  0  0  0  0  0  0  0  0  0
    9.1490   46.6067  128.9672 C   0  0  0  0  0  0  0  0  0  0  0  0
    8.2356   46.8957  129.9075 C   0  0  0  0  0  0  0  0  0  0  0  0
    7.6920   45.8411  130.7578 C   0  0  0  0  0  0  0  0  0  0  0  0
    8.0851   44.5548  130.3348 O   0  0  0  0  0  0  0  0  0  0  0  0
    9.0264   44.2406  129.3917 C   0  0  0  0  0  0  0  0  0  0  0  0
    9.4130   42.9237  129.1597 C   0  0  0  0  0  0  0  0  0  0  0  0
   10.3562   42.6354  128.2126 C   0  0  0  0  0  0  0  0  0  0  0  0
   10.9416   43.6374  127.4707 C   0  0  0  0  0  0  0  0  0  0  0  0
   11.9094   43.3431  126.4998 O   0  0  0  0  0  0  0  0  0  0  0  0
   10.5404   44.9321  127.7205 C   0  0  0  0  0  0  0  0  0  0  0  0
    9.6021   45.2685  128.6568 C   0  0  0  0  0  0  0  0  0  0  0  0
   11.6709   43.1494  125.5234 H   0  0  0  0  0  0  0  0  0  0  0  0
    7.7499   48.2889  129.9772 C   0  0  0  0  0  0  0  0  0  0  0  0
    8.4805   49.3402  130.4485 C   0  0  0  0  0  0  0  0  0  0  0  0
    7.9445   50.6246  130.5344 C   0  0  0  0  0  0  0  0  0  0  0  0
    6.6554   50.8609  130.1406 C   0  0  0  0  0  0  0  0  0  0  0  0
    5.8940   49.8264  129.6609 C   0  0  0  0  0  0  0  0  0  0  0  0
    4.5863   50.1061  129.2692 O   0  0  0  0  0  0  0  0  0  0  0  0
    6.4345   48.5670  129.5823 C   0  0  0  0  0  0  0  0  0  0  0  0
    4.4456   50.3729  128.3040 H   0  0  0  0  0  0  0  0  0  0  0  0
    8.0490   45.9458  132.2013 C   0  0  0  0  0  0  0  0  0  0  0  0
    7.4398   45.2119  133.1619 C   0  0  0  0  0  0  0  0  0  0  0  0
    7.8476   45.3419  134.4948 C   0  0  0  0  0  0  0  0  0  0  0  0
    8.8551   46.1899  134.8955 C   0  0  0  0  0  0  0  0  0  0  0  0
    9.4595   46.9347  133.8627 C   0  0  0  0  0  0  0  0  0  0  0  0
    9.0601   46.8089  132.5545 C   0  0  0  0  0  0  0  0  0  0  0  0
    9.3153   46.3709  136.1621 O   0  0  0  0  0  0  0  0  0  0  0  0
   10.2170   45.7067  136.9383 C   0  0  0  0  0  0  0  0  0  0  0  0
   10.8452   44.4654  136.4274 C   0  0  0  0  0  0  0  0  0  0  0  0
   11.2799   44.3990  135.1031 N   0  0  0  0  0  0  0  0  0  0  0  0
   12.6112   44.0179  134.7415 C   0  0  0  0  0  0  0  0  0  0  0  0
   12.0261   43.7660  133.3271 C   0  0  0  0  0  0  0  0  0  0  0  0
   10.8015   43.4030  134.1985 C   0  0  0  0  0  0  0  0  0  0  0  0
   11.8806   45.0602  132.5866 C   0  0  0  0  0  0  0  0  0  0  0  0
   12.0146   44.8003  131.2198 F   0  0  0  0  0  0  0  0  0  0  0  0
  1  2  1  0  0  0
  2  3  2  0  0  0
  3  4  1  0  0  0
  4  5  1  0  0  0
  5  6  1  0  0  0
  6  7  2  0  0  0
  7  8  1  0  0  0
  8  9  2  0  0  0
  9 10  1  0  0  0
  9 11  1  0  0  0
 11 12  2  0  0  0
  4 22  1  0  0  0
 22 23  2  0  0  0
 23 24  1  0  0  0
 24 25  2  0  0  0
 25 28  1  0  0  0
 28 29  1  0  0  0
 29 30  1  0  0  0
 30 31  1  0  0  0
 31 32  1  0  0  0
 32 33  1  0  0  0
 33 35  1  0  0  0
 35 36  1  0  0  0
 33 34  1  0  0  0
 25 26  1  0  0  0
 26 27  2  0  0  0
  3 14  1  0  0  0
 14 15  2  0  0  0
 15 16  1  0  0  0
 16 17  2  0  0  0
 17 18  1  0  0  0
 18 19  1  0  0  0
 18 20  2  0  0  0
 12  2  1  0  0  0
 27 22  1  0  0  0
 20 14  1  0  0  0
 12  6  1  0  0  0
 34 31  1  0  0  0
 10 13  1  0  0  0
 19 21  1  0  0  0
M  END
> <minimizedAffinity>
2.81381

> <CNNscore>
0.3467513323

> <CNNaffinity>
7.5657525063

> <CNN_VS>
2.6234347820

> <CNNaffinity_variance>
0.4953686595

$$$$
[H]Oc1c([H])c([H])c([H])c(C2=C(C([H])([H])[H])c3c([H])c(O[H])c([H])c([H])c3O[C@@]2([H])c2c([H])c([H])c(OC([H])([H])C([H])([H])N3C([H])([H])C([H])(C([H])([H])F)C3([H])[H])c([H])c2[H])c1[H]


 36 40  0  0  0  0  0  0  0  0999 V2000
    8.1307   47.2245  133.1958 C   0  0  0  0  0  0  0  0  0  0  0  0
    9.3781   46.5255  132.7375 C   0  0  0  0  0  0  0  0  0  0  0  0
    9.7573   46.6674  131.4576 C   0  0  0  0  0  0  0  0  0  0  0  0
   10.9573   45.9983  130.9645 C   0  0  0  0  0  0  0  0  0  0  0  0
   11.7042   45.4031  132.0017 O   0  0  0  0  0  0  0  0  0  0  0  0
   11.3274   45.2333  133.3067 C   0  0  0  0  0  0  0  0  0  0  0  0
   12.1105   44.5110  134.2026 C   0  0  0  0  0  0  0  0  0  0  0  0
   11.7119   44.3546  135.5011 C   0  0  0  0  0  0  0  0  0  0  0  0
   10.5320   44.9061  135.9492 C   0  0  0  0  0  0  0  0  0  0  0  0
   10.1219   44.7457  137.2803 O   0  0  0  0  0  0  0  0  0  0  0  0
    9.7760   45.6163  135.0417 C   0  0  0  0  0  0  0  0  0  0  0  0
   10.1334   45.7988  133.7343 C   0  0  0  0  0  0  0  0  0  0  0  0
   10.3795   45.4041  138.0206 H   0  0  0  0  0  0  0  0  0  0  0  0
    8.9687   47.5879  130.6135 C   0  0  0  0  0  0  0  0  0  0  0  0
    9.2083   48.9257  130.4949 C   0  0  0  0  0  0  0  0  0  0  0  0
    8.3940   49.7496  129.7188 C   0  0  0  0  0  0  0  0  0  0  0  0
    7.3221   49.2252  129.0490 C   0  0  0  0  0  0  0  0  0  0  0  0
    7.0539   47.8841  129.1458 C   0  0  0  0  0  0  0  0  0  0  0  0
    5.9544   47.3868  128.4489 O   0  0  0  0  0  0  0  0  0  0  0  0
    7.8637   47.0849  129.9137 C   0  0  0  0  0  0  0  0  0  0  0  0
    6.1190   47.0664  127.5040 H   0  0  0  0  0  0  0  0  0  0  0  0
   10.7161   44.9370  129.9460 C   0  0  0  0  0  0  0  0  0  0  0  0
   10.8215   45.1611  128.6151 C   0  0  0  0  0  0  0  0  0  0  0  0
   10.6087   44.1083  127.7172 C   0  0  0  0  0  0  0  0  0  0  0  0
   10.2926   42.8294  128.1165 C   0  0  0  0  0  0  0  0  0  0  0  0
   10.1919   42.6429  129.5100 C   0  0  0  0  0  0  0  0  0  0  0  0
   10.3998   43.6749  130.3922 C   0  0  0  0  0  0  0  0  0  0  0  0
   10.0772   41.7528  127.3143 O   0  0  0  0  0  0  0  0  0  0  0  0
    9.5610   40.5100  127.5279 C   0  0  0  0  0  0  0  0  0  0  0  0
    9.8983   39.4094  126.5945 C   0  0  0  0  0  0  0  0  0  0  0  0
   11.1473   39.3817  125.9728 N   0  0  0  0  0  0  0  0  0  0  0  0
   12.2375   38.5905  126.4564 C   0  0  0  0  0  0  0  0  0  0  0  0
   12.8482   38.7853  125.0438 C   0  0  0  0  0  0  0  0  0  0  0  0
   11.3424   38.7800  124.6926 C   0  0  0  0  0  0  0  0  0  0  0  0
   13.4905   40.1346  124.9367 C   0  0  0  0  0  0  0  0  0  0  0  0
   14.4010   40.1034  123.8766 F   0  0  0  0  0  0  0  0  0  0  0  0
  1  2  1  0  0  0
  2  3  2  0  0  0
  3  4  1  0  0  0
  4  5  1  0  0  0
  5  6  1  0  0  0
  6  7  2  0  0  0
  7  8  1  0  0  0
  8  9  2  0  0  0
  9 10  1  0  0  0
  9 11  1  0  0  0
 11 12  2  0  0  0
  4 22  1  0  0  0
 22 23  2  0  0  0
 23 24  1  0  0  0
 24 25  2  0  0  0
 25 28  1  0  0  0
 28 29  1  0  0  0
 29 30  1  0  0  0
 30 31  1  0  0  0
 31 32  1  0  0  0
 32 33  1  0  0  0
 33 35  1  0  0  0
 35 36  1  0  0  0
 33 34  1  0  0  0
 25 26  1  0  0  0
 26 27  2  0  0  0
  3 14  1  0  0  0
 14 15  2  0  0  0
 15 16  1  0  0  0
 16 17  2  0  0  0
 17 18  1  0  0  0
 18 19  1  0  0  0
 18 20  2  0  0  0
 12  2  1  0  0  0
 27 22  1  0  0  0
 20 14  1  0  0  0
 12  6  1  0  0  0
 34 31  1  0  0  0
 10 13  1  0  0  0
 19 21  1  0  0  0
M  END
> <minimizedAffinity>
10.99541

> <CNNscore>
0.3399201334

> <CNNaffinity>
7.5807890892

> <CNN_VS>
2.5768628120

> <CNNaffinity_variance>
1.1853092909

$$$$
[H]C#Cc1c([H])c([H])c(C(=O)c2sc3c([H])c(O[H])c([H])c([H])c3c2-c2c([H])c([H])c(F)c([H])c2[H])c([H])c1[H]


 28 31  0  0  0  0  0  0  0  0999 V2000
    6.6524   51.8201  128.7897 O   0  0  0  0  0  0  0  0  0  0  0  0
    7.3120   50.6565  129.1259 C   0  0  0  0  0  0  0  0  0  0  0  0
    7.3238   49.5318  128.3353 C   0  0  0  0  0  0  0  0  0  0  0  0
    7.9792   48.3781  128.6714 C   0  0  0  0  0  0  0  0  0  0  0  0
    8.6960   48.2895  129.8867 C   0  0  0  0  0  0  0  0  0  0  0  0
    9.3856   47.2161  130.3464 C   0  0  0  0  0  0  0  0  0  0  0  0
   10.0095   47.3470  131.5587 C   0  0  0  0  0  0  0  0  0  0  0  0
    9.6238   48.9410  132.0194 S   0  0  0  0  0  0  0  0  0  0  0  0
    8.6847   49.4037  130.6714 C   0  0  0  0  0  0  0  0  0  0  0  0
    8.0016   50.5791  130.3007 C   0  0  0  0  0  0  0  0  0  0  0  0
    6.6424   52.6464  129.3627 H   0  0  0  0  0  0  0  0  0  0  0  0
    9.5174   45.9195  129.6091 C   0  0  0  0  0  0  0  0  0  0  0  0
   10.6314   45.7014  128.8207 C   0  0  0  0  0  0  0  0  0  0  0  0
   10.8063   44.5272  128.1176 C   0  0  0  0  0  0  0  0  0  0  0  0
    9.8539   43.5329  128.1927 C   0  0  0  0  0  0  0  0  0  0  0  0
   10.0002   42.3597  127.5035 F   0  0  0  0  0  0  0  0  0  0  0  0
    8.7390   43.7580  128.9850 C   0  0  0  0  0  0  0  0  0  0  0  0
    8.5762   44.9346  129.6807 C   0  0  0  0  0  0  0  0  0  0  0  0
   10.7939   46.3212  132.2762 C   0  0  0  0  0  0  0  0  0  0  0  0
   12.0154   46.4533  132.5227 O   0  0  0  0  0  0  0  0  0  0  0  0
   10.1145   45.1223  132.7070 C   0  0  0  0  0  0  0  0  0  0  0  0
   10.6965   43.8847  132.5641 C   0  0  0  0  0  0  0  0  0  0  0  0
    9.9921   42.7596  133.0013 C   0  0  0  0  0  0  0  0  0  0  0  0
    8.7334   42.8778  133.5675 C   0  0  0  0  0  0  0  0  0  0  0  0
    8.2055   44.1396  133.6827 C   0  0  0  0  0  0  0  0  0  0  0  0
    8.8638   45.2604  133.2677 C   0  0  0  0  0  0  0  0  0  0  0  0
    7.9920   41.7249  134.0198 C   0  0  0  0  0  0  0  0  0  0  0  0
    7.3527   40.7764  134.4002 C   0  0  0  0  0  0  0  0  0  0  0  0
  1  2  1  0  0  0
  2  3  2  0  0  0
  3  4  1  0  0  0
  4  5  2  0  0  0
  5  6  1  0  0  0
  6  7  2  0  0  0
  7  8  1  0  0  0
  8  9  1  0  0  0
  9 10  2  0  0  0
  7 19  1  0  0  0
 19 20  2  0  0  0
 19 21  1  0  0  0
 21 22  2  0  0  0
 22 23  1  0  0  0
 23 24  2  0  0  0
 24 25  1  0  0  0
 25 26  2  0  0  0
 24 27  1  0  0  0
 27 28  3  0  0  0
  6 12  1  0  0  0
 12 13  2  0  0  0
 13 14  1  0  0  0
 14 15  2  0  0  0
 15 16  1  0  0  0
 15 17  1  0  0  0
 17 18  2  0  0  0
 10  2  1  0  0  0
 26 21  1  0  0  0
 18 12  1  0  0  0
  9  5  1  0  0  0
  1 11  1  0  0  0
M  END
> <minimizedAffinity>
-3.97717

> <CNNscore>
0.5994904637

> <CNNaffinity>
8.0615224838

> <CNN_VS>
4.8328056335

> <CNNaffinity_variance>
1.2756239176

$$$$
[H]C#Cc1c([H])c([H])c(C(=O)c2sc3c([H])c(O[H])c([H])c([H])c3c2-c2c([H])c([H])c(F)c([H])c2[H])c([H])c1[H]


 28 31  0  0  0  0  0  0  0  0999 V2000
    6.9485   51.8537  129.4353 O   0  0  0  0  0  0  0  0  0  0  0  0
    7.5470   50.6597  129.7795 C   0  0  0  0  0  0  0  0  0  0  0  0
    8.4815   50.5367  130.7804 C   0  0  0  0  0  0  0  0  0  0  0  0
    9.0741   49.3504  131.1199 C   0  0  0  0  0  0  0  0  0  0  0  0
    8.7404   48.1607  130.4331 C   0  0  0  0  0  0  0  0  0  0  0  0
    9.2464   46.9231  130.6599 C   0  0  0  0  0  0  0  0  0  0  0  0
    8.7819   45.9043  129.8710 C   0  0  0  0  0  0  0  0  0  0  0  0
    7.6674   46.6876  128.8482 S   0  0  0  0  0  0  0  0  0  0  0  0
    7.8145   48.2815  129.4406 C   0  0  0  0  0  0  0  0  0  0  0  0
    7.2195   49.5158  129.1118 C   0  0  0  0  0  0  0  0  0  0  0  0
    6.2628   51.9491  128.7061 H   0  0  0  0  0  0  0  0  0  0  0  0
   10.2567   46.6058  131.7185 C   0  0  0  0  0  0  0  0  0  0  0  0
   11.4622   46.0374  131.3526 C   0  0  0  0  0  0  0  0  0  0  0  0
   12.4302   45.7223  132.2839 C   0  0  0  0  0  0  0  0  0  0  0  0
   12.2059   45.9753  133.6207 C   0  0  0  0  0  0  0  0  0  0  0  0
   13.1472   45.6701  134.5661 F   0  0  0  0  0  0  0  0  0  0  0  0
   10.9948   46.5452  133.9810 C   0  0  0  0  0  0  0  0  0  0  0  0
   10.0370   46.8540  133.0418 C   0  0  0  0  0  0  0  0  0  0  0  0
    9.1936   44.4860  129.9073 C   0  0  0  0  0  0  0  0  0  0  0  0
   10.0458   44.0085  129.1224 O   0  0  0  0  0  0  0  0  0  0  0  0
    8.5830   43.6247  130.8922 C   0  0  0  0  0  0  0  0  0  0  0  0
    7.9300   42.4726  130.5224 C   0  0  0  0  0  0  0  0  0  0  0  0
    7.3600   41.6769  131.5200 C   0  0  0  0  0  0  0  0  0  0  0  0
    7.4450   42.0329  132.8560 C   0  0  0  0  0  0  0  0  0  0  0  0
    8.1093   43.1944  133.1621 C   0  0  0  0  0  0  0  0  0  0  0  0
    8.6785   43.9956  132.2155 C   0  0  0  0  0  0  0  0  0  0  0  0
    6.8579   41.2237  133.8971 C   0  0  0  0  0  0  0  0  0  0  0  0
    6.3474   40.5448  134.7524 C   0  0  0  0  0  0  0  0  0  0  0  0
  1  2  1  0  0  0
  2  3  2  0  0  0
  3  4  1  0  0  0
  4  5  2  0  0  0
  5  6  1  0  0  0
  6  7  2  0  0  0
  7  8  1  0  0  0
  8  9  1  0  0  0
  9 10  2  0  0  0
  7 19  1  0  0  0
 19 20  2  0  0  0
 19 21  1  0  0  0
 21 22  2  0  0  0
 22 23  1  0  0  0
 23 24  2  0  0  0
 24 25  1  0  0  0
 25 26  2  0  0  0
 24 27  1  0  0  0
 27 28  3  0  0  0
  6 12  1  0  0  0
 12 13  2  0  0  0
 13 14  1  0  0  0
 14 15  2  0  0  0
 15 16  1  0  0  0
 15 17  1  0  0  0
 17 18  2  0  0  0
 10  2  1  0  0  0
 26 21  1  0  0  0
 18 12  1  0  0  0
  9  5  1  0  0  0
  1 11  1  0  0  0
M  END
> <minimizedAffinity>
-0.24693

> <CNNscore>
0.5818793178

> <CNNaffinity>
7.8959808350

> <CNN_VS>
4.5945081711

> <CNNaffinity_variance>
1.4031474590

$$$$
[H]C#Cc1c([H])c([H])c(C(=O)c2sc3c([H])c(O[H])c([H])c([H])c3c2-c2c([H])c([H])c(F)c([H])c2[H])c([H])c1[H]


 28 31  0  0  0  0  0  0  0  0999 V2000
    6.7046   51.8077  128.3570 O   0  0  0  0  0  0  0  0  0  0  0  0
    7.1093   50.6612  129.0081 C   0  0  0  0  0  0  0  0  0  0  0  0
    7.3898   50.6076  130.3531 C   0  0  0  0  0  0  0  0  0  0  0  0
    7.7915   49.4684  130.9968 C   0  0  0  0  0  0  0  0  0  0  0  0
    7.9408   48.2572  130.2833 C   0  0  0  0  0  0  0  0  0  0  0  0
    8.3309   47.0604  130.7879 C   0  0  0  0  0  0  0  0  0  0  0  0
    8.4115   46.0100  129.9125 C   0  0  0  0  0  0  0  0  0  0  0  0
    7.9477   46.7087  128.4298 S   0  0  0  0  0  0  0  0  0  0  0  0
    7.6634   48.3092  128.9501 C   0  0  0  0  0  0  0  0  0  0  0  0
    7.2510   49.4962  128.3123 C   0  0  0  0  0  0  0  0  0  0  0  0
    6.4957   51.8521  127.3744 H   0  0  0  0  0  0  0  0  0  0  0  0
    8.6580   46.8187  132.2289 C   0  0  0  0  0  0  0  0  0  0  0  0
    9.8020   47.3792  132.7647 C   0  0  0  0  0  0  0  0  0  0  0  0
   10.1551   47.1900  134.0851 C   0  0  0  0  0  0  0  0  0  0  0  0
    9.3555   46.4244  134.9072 C   0  0  0  0  0  0  0  0  0  0  0  0
    9.6831   46.2177  136.2198 F   0  0  0  0  0  0  0  0  0  0  0  0
    8.2097   45.8650  134.3636 C   0  0  0  0  0  0  0  0  0  0  0  0
    7.8694   46.0608  133.0443 C   0  0  0  0  0  0  0  0  0  0  0  0
    8.8320   44.6260  130.2126 C   0  0  0  0  0  0  0  0  0  0  0  0
    8.3056   43.6263  129.6706 O   0  0  0  0  0  0  0  0  0  0  0  0
    9.8946   44.4297  131.1703 C   0  0  0  0  0  0  0  0  0  0  0  0
   11.1236   45.0222  131.0002 C   0  0  0  0  0  0  0  0  0  0  0  0
   12.1133   44.7978  131.9611 C   0  0  0  0  0  0  0  0  0  0  0  0
   11.8714   43.9967  133.0650 C   0  0  0  0  0  0  0  0  0  0  0  0
   10.6251   43.4329  133.1789 C   0  0  0  0  0  0  0  0  0  0  0  0
    9.6346   43.6299  132.2614 C   0  0  0  0  0  0  0  0  0  0  0  0
   12.8846   43.7523  134.0635 C   0  0  0  0  0  0  0  0  0  0  0  0
   13.7224   43.5676  134.9104 C   0  0  0  0  0  0  0  0  0  0  0  0
  1  2  1  0  0  0
  2  3  2  0  0  0
  3  4  1  0  0  0
  4  5  2  0  0  0
  5  6  1  0  0  0
  6  7  2  0  0  0
  7  8  1  0  0  0
  8  9  1  0  0  0
  9 10  2  0  0  0
  7 19  1  0  0  0
 19 20  2  0  0  0
 19 21  1  0  0  0
 21 22  2  0  0  0
 22 23  1  0  0  0
 23 24  2  0  0  0
 24 25  1  0  0  0
 25 26  2  0  0  0
 24 27  1  0  0  0
 27 28  3  0  0  0
  6 12  1  0  0  0
 12 13  2  0  0  0
 13 14  1  0  0  0
 14 15  2  0  0  0
 15 16  1  0  0  0
 15 17  1  0  0  0
 17 18  2  0  0  0
 10  2  1  0  0  0
 26 21  1  0  0  0
 18 12  1  0  0  0
  9  5  1  0  0  0
  1 11  1  0  0  0
M  END
> <minimizedAffinity>
-5.25732

> <CNNscore>
0.5519600511

> <CNNaffinity>
7.6883783340

> <CNN_VS>
4.2436776161

> <CNNaffinity_variance>
0.4298074841

$$$$
[H]C#Cc1c([H])c([H])c(C(=O)c2sc3c([H])c(O[H])c([H])c([H])c3c2-c2c([H])c([H])c(F)c([H])c2[H])c([H])c1[H]


 28 31  0  0  0  0  0  0  0  0999 V2000
    6.4153   51.6094  128.6388 O   0  0  0  0  0  0  0  0  0  0  0  0
    7.0115   50.4319  129.0390 C   0  0  0  0  0  0  0  0  0  0  0  0
    7.2710   49.3823  128.1896 C   0  0  0  0  0  0  0  0  0  0  0  0
    7.8628   48.2146  128.5895 C   0  0  0  0  0  0  0  0  0  0  0  0
    8.2454   48.0305  129.9379 C   0  0  0  0  0  0  0  0  0  0  0  0
    8.8352   46.9323  130.4719 C   0  0  0  0  0  0  0  0  0  0  0  0
    9.1203   46.9655  131.8112 C   0  0  0  0  0  0  0  0  0  0  0  0
    8.5663   48.5054  132.2841 S   0  0  0  0  0  0  0  0  0  0  0  0
    7.9884   49.0701  130.7807 C   0  0  0  0  0  0  0  0  0  0  0  0
    7.3779   50.2620  130.3422 C   0  0  0  0  0  0  0  0  0  0  0  0
    6.2255   52.3811  129.2549 H   0  0  0  0  0  0  0  0  0  0  0  0
    9.2036   45.7089  129.6911 C   0  0  0  0  0  0  0  0  0  0  0  0
   10.3773   45.7016  128.9615 C   0  0  0  0  0  0  0  0  0  0  0  0
   10.7675   44.6038  128.2224 C   0  0  0  0  0  0  0  0  0  0  0  0
    9.9772   43.4741  128.2003 C   0  0  0  0  0  0  0  0  0  0  0  0
   10.3383   42.3723  127.4734 F   0  0  0  0  0  0  0  0  0  0  0  0
    8.8013   43.4880  128.9341 C   0  0  0  0  0  0  0  0  0  0  0  0
    8.4231   44.5903  129.6666 C   0  0  0  0  0  0  0  0  0  0  0  0
    9.7334   45.8935  132.6219 C   0  0  0  0  0  0  0  0  0  0  0  0
    9.2791   44.7260  132.6546 O   0  0  0  0  0  0  0  0  0  0  0  0
   10.9039   46.2156  133.4034 C   0  0  0  0  0  0  0  0  0  0  0  0
   12.0108   45.3998  133.3956 C   0  0  0  0  0  0  0  0  0  0  0  0
   13.1156   45.7636  134.1703 C   0  0  0  0  0  0  0  0  0  0  0  0
   13.1057   46.9193  134.9339 C   0  0  0  0  0  0  0  0  0  0  0  0
   11.9717   47.6921  134.9005 C   0  0  0  0  0  0  0  0  0  0  0  0
   10.8749   47.3691  134.1560 C   0  0  0  0  0  0  0  0  0  0  0  0
   14.2372   47.3061  135.7422 C   0  0  0  0  0  0  0  0  0  0  0  0
   15.1969   47.6270  136.3973 C   0  0  0  0  0  0  0  0  0  0  0  0
  1  2  1  0  0  0
  2  3  2  0  0  0
  3  4  1  0  0  0
  4  5  2  0  0  0
  5  6  1  0  0  0
  6  7  2  0  0  0
  7  8  1  0  0  0
  8  9  1  0  0  0
  9 10  2  0  0  0
  7 19  1  0  0  0
 19 20  2  0  0  0
 19 21  1  0  0  0
 21 22  2  0  0  0
 22 23  1  0  0  0
 23 24  2  0  0  0
 24 25  1  0  0  0
 25 26  2  0  0  0
 24 27  1  0  0  0
 27 28  3  0  0  0
  6 12  1  0  0  0
 12 13  2  0  0  0
 13 14  1  0  0  0
 14 15  2  0  0  0
 15 16  1  0  0  0
 15 17  1  0  0  0
 17 18  2  0  0  0
 10  2  1  0  0  0
 26 21  1  0  0  0
 18 12  1  0  0  0
  9  5  1  0  0  0
  1 11  1  0  0  0
M  END
> <minimizedAffinity>
1.12101

> <CNNscore>
0.5515520573

> <CNNaffinity>
7.7771096230

> <CNN_VS>
4.2894806862

> <CNNaffinity_variance>
1.5472017527

$$$$
[H]C#Cc1c([H])c([H])c(C(=O)c2sc3c([H])c(O[H])c([H])c([H])c3c2-c2c([H])c([H])c(F)c([H])c2[H])c([H])c1[H]


 28 31  0  0  0  0  0  0  0  0999 V2000
    6.5087   52.2144  128.7077 O   0  0  0  0  0  0  0  0  0  0  0  0
    6.9773   51.0461  129.2713 C   0  0  0  0  0  0  0  0  0  0  0  0
    7.3458   50.9311  130.5909 C   0  0  0  0  0  0  0  0  0  0  0  0
    7.8108   49.7704  131.1477 C   0  0  0  0  0  0  0  0  0  0  0  0
    7.9370   48.6004  130.3643 C   0  0  0  0  0  0  0  0  0  0  0  0
    8.3825   47.3889  130.7802 C   0  0  0  0  0  0  0  0  0  0  0  0
    8.4264   46.3861  129.8482 C   0  0  0  0  0  0  0  0  0  0  0  0
    7.8534   47.1480  128.4365 S   0  0  0  0  0  0  0  0  0  0  0  0
    7.5724   48.7133  129.0561 C   0  0  0  0  0  0  0  0  0  0  0  0
    7.0962   49.9211  128.5084 C   0  0  0  0  0  0  0  0  0  0  0  0
    6.2354   52.3035  127.7441 H   0  0  0  0  0  0  0  0  0  0  0  0
    8.8074   47.0825  132.1829 C   0  0  0  0  0  0  0  0  0  0  0  0
    8.0218   46.2527  132.9603 C   0  0  0  0  0  0  0  0  0  0  0  0
    8.3621   45.9361  134.2594 C   0  0  0  0  0  0  0  0  0  0  0  0
    9.5147   46.4522  134.8130 C   0  0  0  0  0  0  0  0  0  0  0  0
    9.8748   46.1573  136.1000 F   0  0  0  0  0  0  0  0  0  0  0  0
   10.2980   47.2838  134.0281 C   0  0  0  0  0  0  0  0  0  0  0  0
    9.9466   47.5925  132.7335 C   0  0  0  0  0  0  0  0  0  0  0  0
    8.8926   44.9987  130.0486 C   0  0  0  0  0  0  0  0  0  0  0  0
    8.1183   44.0624  130.3552 O   0  0  0  0  0  0  0  0  0  0  0  0
   10.2997   44.7223  129.8807 C   0  0  0  0  0  0  0  0  0  0  0  0
   11.0911   44.3853  130.9535 C   0  0  0  0  0  0  0  0  0  0  0  0
   12.4462   44.1264  130.7300 C   0  0  0  0  0  0  0  0  0  0  0  0
   12.9904   44.2055  129.4586 C   0  0  0  0  0  0  0  0  0  0  0  0
   12.1497   44.5468  128.4287 C   0  0  0  0  0  0  0  0  0  0  0  0
   10.8222   44.8058  128.6088 C   0  0  0  0  0  0  0  0  0  0  0  0
   14.3887   43.9451  129.2127 C   0  0  0  0  0  0  0  0  0  0  0  0
   15.5535   43.7354  128.9840 C   0  0  0  0  0  0  0  0  0  0  0  0
  1  2  1  0  0  0
  2  3  2  0  0  0
  3  4  1  0  0  0
  4  5  2  0  0  0
  5  6  1  0  0  0
  6  7  2  0  0  0
  7  8  1  0  0  0
  8  9  1  0  0  0
  9 10  2  0  0  0
  7 19  1  0  0  0
 19 20  2  0  0  0
 19 21  1  0  0  0
 21 22  2  0  0  0
 22 23  1  0  0  0
 23 24  2  0  0  0
 24 25  1  0  0  0
 25 26  2  0  0  0
 24 27  1  0  0  0
 27 28  3  0  0  0
  6 12  1  0  0  0
 12 13  2  0  0  0
 13 14  1  0  0  0
 14 15  2  0  0  0
 15 16  1  0  0  0
 15 17  1  0  0  0
 17 18  2  0  0  0
 10  2  1  0  0  0
 26 21  1  0  0  0
 18 12  1  0  0  0
  9  5  1  0  0  0
  1 11  1  0  0  0
M  END
> <minimizedAffinity>
-4.85064

> <CNNscore>
0.5385990143

> <CNNaffinity>
7.4902815819

> <CNN_VS>
4.0342583656

> <CNNaffinity_variance>
0.5221179724

$$$$
[H]C#Cc1c([H])c([H])c(C(=O)c2sc3c([H])c(O[H])c([H])c([H])c3c2-c2c([H])c([H])c(F)c([H])c2[H])c([H])c1[H]


 28 31  0  0  0  0  0  0  0  0999 V2000
    4.5704   50.2785  128.7695 O   0  0  0  0  0  0  0  0  0  0  0  0
    5.4690   49.3672  129.2835 C   0  0  0  0  0  0  0  0  0  0  0  0
    5.4269   48.0199  129.0125 C   0  0  0  0  0  0  0  0  0  0  0  0
    6.3199   47.1175  129.5240 C   0  0  0  0  0  0  0  0  0  0  0  0
    7.3587   47.5454  130.3822 C   0  0  0  0  0  0  0  0  0  0  0  0
    8.3070   46.7671  130.9601 C   0  0  0  0  0  0  0  0  0  0  0  0
    9.2234   47.3921  131.7636 C   0  0  0  0  0  0  0  0  0  0  0  0
    8.7456   49.0257  131.6932 S   0  0  0  0  0  0  0  0  0  0  0  0
    7.4012   48.8806  130.6517 C   0  0  0  0  0  0  0  0  0  0  0  0
    6.4688   49.7882  130.1109 C   0  0  0  0  0  0  0  0  0  0  0  0
    4.5979   51.2651  128.9622 H   0  0  0  0  0  0  0  0  0  0  0  0
    8.4200   45.2873  130.7609 C   0  0  0  0  0  0  0  0  0  0  0  0
    8.7052   44.7955  129.5013 C   0  0  0  0  0  0  0  0  0  0  0  0
    8.8200   43.4423  129.2575 C   0  0  0  0  0  0  0  0  0  0  0  0
    8.6495   42.5417  130.2877 C   0  0  0  0  0  0  0  0  0  0  0  0
    8.7547   41.1941  130.0738 F   0  0  0  0  0  0  0  0  0  0  0  0
    8.3635   43.0415  131.5485 C   0  0  0  0  0  0  0  0  0  0  0  0
    8.2507   44.3941  131.7780 C   0  0  0  0  0  0  0  0  0  0  0  0
   10.3277   46.7638  132.5173 C   0  0  0  0  0  0  0  0  0  0  0  0
   10.4160   46.8257  133.7658 O   0  0  0  0  0  0  0  0  0  0  0  0
   11.3402   46.0513  131.7745 C   0  0  0  0  0  0  0  0  0  0  0  0
   12.2394   45.2267  132.4088 C   0  0  0  0  0  0  0  0  0  0  0  0
   13.1960   44.5609  131.6376 C   0  0  0  0  0  0  0  0  0  0  0  0
   13.2461   44.7218  130.2626 C   0  0  0  0  0  0  0  0  0  0  0  0
   12.3221   45.5583  129.6877 C   0  0  0  0  0  0  0  0  0  0  0  0
   11.3737   46.2241  130.4082 C   0  0  0  0  0  0  0  0  0  0  0  0
   14.2307   44.0443  129.4534 C   0  0  0  0  0  0  0  0  0  0  0  0
   15.0700   43.4950  128.7849 C   0  0  0  0  0  0  0  0  0  0  0  0
  1  2  1  0  0  0
  2  3  2  0  0  0
  3  4  1  0  0  0
  4  5  2  0  0  0
  5  6  1  0  0  0
  6  7  2  0  0  0
  7  8  1  0  0  0
  8  9  1  0  0  0
  9 10  2  0  0  0
  7 19  1  0  0  0
 19 20  2  0  0  0
 19 21  1  0  0  0
 21 22  2  0  0  0
 22 23  1  0  0  0
 23 24  2  0  0  0
 24 25  1  0  0  0
 25 26  2  0  0  0
 24 27  1  0  0  0
 27 28  3  0  0  0
  6 12  1  0  0  0
 12 13  2  0  0  0
 13 14  1  0  0  0
 14 15  2  0  0  0
 15 16  1  0  0  0
 15 17  1  0  0  0
 17 18  2  0  0  0
 10  2  1  0  0  0
 26 21  1  0  0  0
 18 12  1  0  0  0
  9  5  1  0  0  0
  1 11  1  0  0  0
M  END
> <minimizedAffinity>
-2.71698

> <CNNscore>
0.5287997127

> <CNNaffinity>
7.8930830956

> <CNN_VS>
4.1738600731

> <CNNaffinity_variance>
1.3505524397

$$$$
[H]C#Cc1c([H])c([H])c(C(=O)c2sc3c([H])c(O[H])c([H])c([H])c3c2-c2c([H])c([H])c(F)c([H])c2[H])c([H])c1[H]


 28 31  0  0  0  0  0  0  0  0999 V2000
    4.3200   50.4010  129.0594 O   0  0  0  0  0  0  0  0  0  0  0  0
    5.4090   49.5893  129.2986 C   0  0  0  0  0  0  0  0  0  0  0  0
    5.6919   48.4592  128.5683 C   0  0  0  0  0  0  0  0  0  0  0  0
    6.7735   47.6552  128.8080 C   0  0  0  0  0  0  0  0  0  0  0  0
    7.6765   47.9615  129.8516 C   0  0  0  0  0  0  0  0  0  0  0  0
    8.7817   47.2579  130.2016 C   0  0  0  0  0  0  0  0  0  0  0  0
    9.5190   47.7352  131.2527 C   0  0  0  0  0  0  0  0  0  0  0  0
    8.6639   49.1329  131.7188 S   0  0  0  0  0  0  0  0  0  0  0  0
    7.3969   49.0812  130.5763 C   0  0  0  0  0  0  0  0  0  0  0  0
    6.2760   49.8918  130.3078 C   0  0  0  0  0  0  0  0  0  0  0  0
    4.1097   51.2299  129.5885 H   0  0  0  0  0  0  0  0  0  0  0  0
    9.2468   46.0164  129.5057 C   0  0  0  0  0  0  0  0  0  0  0  0
    8.5468   44.8385  129.6868 C   0  0  0  0  0  0  0  0  0  0  0  0
    8.9290   43.6636  129.0726 C   0  0  0  0  0  0  0  0  0  0  0  0
   10.0366   43.6460  128.2517 C   0  0  0  0  0  0  0  0  0  0  0  0
   10.4399   42.4942  127.6323 F   0  0  0  0  0  0  0  0  0  0  0  0
   10.7342   44.8306  128.0744 C   0  0  0  0  0  0  0  0  0  0  0  0
   10.3429   45.9959  128.6939 C   0  0  0  0  0  0  0  0  0  0  0  0
   10.7392   47.1383  131.8334 C   0  0  0  0  0  0  0  0  0  0  0  0
   11.6974   47.8292  132.2515 O   0  0  0  0  0  0  0  0  0  0  0  0
   10.8192   45.6992  131.9183 C   0  0  0  0  0  0  0  0  0  0  0  0
    9.8562   44.9711  132.5766 C   0  0  0  0  0  0  0  0  0  0  0  0
    9.9851   43.5804  132.6245 C   0  0  0  0  0  0  0  0  0  0  0  0
   11.0569   42.9392  132.0251 C   0  0  0  0  0  0  0  0  0  0  0  0
   11.9854   43.7204  131.3835 C   0  0  0  0  0  0  0  0  0  0  0  0
   11.8922   45.0800  131.3159 C   0  0  0  0  0  0  0  0  0  0  0  0
   11.2059   41.5042  132.0697 C   0  0  0  0  0  0  0  0  0  0  0  0
   11.3175   40.3041  132.0857 C   0  0  0  0  0  0  0  0  0  0  0  0
  1  2  1  0  0  0
  2  3  2  0  0  0
  3  4  1  0  0  0
  4  5  2  0  0  0
  5  6  1  0  0  0
  6  7  2  0  0  0
  7  8  1  0  0  0
  8  9  1  0  0  0
  9 10  2  0  0  0
  7 19  1  0  0  0
 19 20  2  0  0  0
 19 21  1  0  0  0
 21 22  2  0  0  0
 22 23  1  0  0  0
 23 24  2  0  0  0
 24 25  1  0  0  0
 25 26  2  0  0  0
 24 27  1  0  0  0
 27 28  3  0  0  0
  6 12  1  0  0  0
 12 13  2  0  0  0
 13 14  1  0  0  0
 14 15  2  0  0  0
 15 16  1  0  0  0
 15 17  1  0  0  0
 17 18  2  0  0  0
 10  2  1  0  0  0
 26 21  1  0  0  0
 18 12  1  0  0  0
  9  5  1  0  0  0
  1 11  1  0  0  0
M  END
> <minimizedAffinity>
-4.85564

> <CNNscore>
0.5251011848

> <CNNaffinity>
7.8028306961

> <CNN_VS>
4.0972757339

> <CNNaffinity_variance>
0.7998093367

$$$$
[H]C#Cc1c([H])c([H])c(C(=O)c2sc3c([H])c(O[H])c([H])c([H])c3c2-c2c([H])c([H])c(F)c([H])c2[H])c([H])c1[H]


 28 31  0  0  0  0  0  0  0  0999 V2000
    6.6227   51.7119  128.5490 O   0  0  0  0  0  0  0  0  0  0  0  0
    7.2293   50.6441  129.1768 C   0  0  0  0  0  0  0  0  0  0  0  0
    7.3585   50.5357  130.5413 C   0  0  0  0  0  0  0  0  0  0  0  0
    7.9611   49.4749  131.1619 C   0  0  0  0  0  0  0  0  0  0  0  0
    8.4952   48.4094  130.4017 C   0  0  0  0  0  0  0  0  0  0  0  0
    9.1173   47.3031  130.8794 C   0  0  0  0  0  0  0  0  0  0  0  0
    9.5628   46.3910  129.9598 C   0  0  0  0  0  0  0  0  0  0  0  0
    9.1088   47.0898  128.4741 S   0  0  0  0  0  0  0  0  0  0  0  0
    8.3680   48.5159  129.0491 C   0  0  0  0  0  0  0  0  0  0  0  0
    7.7422   49.6196  128.4360 C   0  0  0  0  0  0  0  0  0  0  0  0
    6.5232   51.7952  127.5519 H   0  0  0  0  0  0  0  0  0  0  0  0
    9.3282   47.0157  132.3337 C   0  0  0  0  0  0  0  0  0  0  0  0
    8.2994   46.4560  133.0674 C   0  0  0  0  0  0  0  0  0  0  0  0
    8.4353   46.1705  134.4104 C   0  0  0  0  0  0  0  0  0  0  0  0
    9.6237   46.4439  135.0541 C   0  0  0  0  0  0  0  0  0  0  0  0
    9.7851   46.1739  136.3860 F   0  0  0  0  0  0  0  0  0  0  0  0
   10.6514   47.0053  134.3127 C   0  0  0  0  0  0  0  0  0  0  0  0
   10.5024   47.2862  132.9734 C   0  0  0  0  0  0  0  0  0  0  0  0
   10.2854   45.1306  130.2279 C   0  0  0  0  0  0  0  0  0  0  0  0
   11.3688   44.8400  129.6694 O   0  0  0  0  0  0  0  0  0  0  0  0
    9.7107   44.2043  131.1746 C   0  0  0  0  0  0  0  0  0  0  0  0
   10.4226   43.7726  132.2689 C   0  0  0  0  0  0  0  0  0  0  0  0
    9.8137   42.8772  133.1524 C   0  0  0  0  0  0  0  0  0  0  0  0
    8.5209   42.4277  132.9391 C   0  0  0  0  0  0  0  0  0  0  0  0
    7.8620   42.8944  131.8291 C   0  0  0  0  0  0  0  0  0  0  0  0
    8.4239   43.7689  130.9453 C   0  0  0  0  0  0  0  0  0  0  0  0
    7.8803   41.4998  133.8403 C   0  0  0  0  0  0  0  0  0  0  0  0
    7.3232   40.7344  134.5864 C   0  0  0  0  0  0  0  0  0  0  0  0
  1  2  1  0  0  0
  2  3  2  0  0  0
  3  4  1  0  0  0
  4  5  2  0  0  0
  5  6  1  0  0  0
  6  7  2  0  0  0
  7  8  1  0  0  0
  8  9  1  0  0  0
  9 10  2  0  0  0
  7 19  1  0  0  0
 19 20  2  0  0  0
 19 21  1  0  0  0
 21 22  2  0  0  0
 22 23  1  0  0  0
 23 24  2  0  0  0
 24 25  1  0  0  0
 25 26  2  0  0  0
 24 27  1  0  0  0
 27 28  3  0  0  0
  6 12  1  0  0  0
 12 13  2  0  0  0
 13 14  1  0  0  0
 14 15  2  0  0  0
 15 16  1  0  0  0
 15 17  1  0  0  0
 17 18  2  0  0  0
 10  2  1  0  0  0
 26 21  1  0  0  0
 18 12  1  0  0  0
  9  5  1  0  0  0
  1 11  1  0  0  0
M  END
> <minimizedAffinity>
-1.93868

> <CNNscore>
0.5169795752

> <CNNaffinity>
7.6853914261

> <CNN_VS>
3.9731903076

> <CNNaffinity_variance>
0.9298380613

$$$$
[H]C#Cc1c([H])c([H])c(C(=O)c2sc3c([H])c(O[H])c([H])c([H])c3c2-c2c([H])c([H])c(F)c([H])c2[H])c([H])c1[H]


 28 31  0  0  0  0  0  0  0  0999 V2000
    3.7120   50.1346  128.8421 O   0  0  0  0  0  0  0  0  0  0  0  0
    4.8848   49.4694  129.1324 C   0  0  0  0  0  0  0  0  0  0  0  0
    5.1372   48.1710  128.7572 C   0  0  0  0  0  0  0  0  0  0  0  0
    6.3021   47.5131  129.0468 C   0  0  0  0  0  0  0  0  0  0  0  0
    7.3304   48.1612  129.7686 C   0  0  0  0  0  0  0  0  0  0  0  0
    8.5280   47.6346  130.1255 C   0  0  0  0  0  0  0  0  0  0  0  0
    9.3810   48.4430  130.8291 C   0  0  0  0  0  0  0  0  0  0  0  0
    8.5031   49.8958  130.9725 S   0  0  0  0  0  0  0  0  0  0  0  0
    7.0812   49.4481  130.1413 C   0  0  0  0  0  0  0  0  0  0  0  0
    5.8725   50.1020  129.8294 C   0  0  0  0  0  0  0  0  0  0  0  0
    3.5231   51.0847  129.1118 H   0  0  0  0  0  0  0  0  0  0  0  0
    8.9738   46.2461  129.7859 C   0  0  0  0  0  0  0  0  0  0  0  0
    9.9723   46.0682  128.8471 C   0  0  0  0  0  0  0  0  0  0  0  0
   10.4227   44.8130  128.4931 C   0  0  0  0  0  0  0  0  0  0  0  0
    9.8733   43.6943  129.0830 C   0  0  0  0  0  0  0  0  0  0  0  0
   10.2988   42.4372  128.7487 F   0  0  0  0  0  0  0  0  0  0  0  0
    8.8723   43.8795  130.0236 C   0  0  0  0  0  0  0  0  0  0  0  0
    8.4313   45.1375  130.3671 C   0  0  0  0  0  0  0  0  0  0  0  0
   10.7195   48.0945  131.3479 C   0  0  0  0  0  0  0  0  0  0  0  0
   11.7677   48.6493  130.9430 O   0  0  0  0  0  0  0  0  0  0  0  0
   10.8113   47.0723  132.3634 C   0  0  0  0  0  0  0  0  0  0  0  0
   10.0431   47.1304  133.5024 C   0  0  0  0  0  0  0  0  0  0  0  0
   10.1730   46.1113  134.4498 C   0  0  0  0  0  0  0  0  0  0  0  0
   11.0546   45.0606  134.2554 C   0  0  0  0  0  0  0  0  0  0  0  0
   11.7940   45.0585  133.0989 C   0  0  0  0  0  0  0  0  0  0  0  0
   11.6934   46.0356  132.1518 C   0  0  0  0  0  0  0  0  0  0  0  0
   11.2029   44.0031  135.2265 C   0  0  0  0  0  0  0  0  0  0  0  0
   11.3430   43.1340  136.0500 C   0  0  0  0  0  0  0  0  0  0  0  0
  1  2  1  0  0  0
  2  3  2  0  0  0
  3  4  1  0  0  0
  4  5  2  0  0  0
  5  6  1  0  0  0
  6  7  2  0  0  0
  7  8  1  0  0  0
  8  9  1  0  0  0
  9 10  2  0  0  0
  7 19  1  0  0  0
 19 20  2  0  0  0
 19 21  1  0  0  0
 21 22  2  0  0  0
 22 23  1  0  0  0
 23 24  2  0  0  0
 24 25  1  0  0  0
 25 26  2  0  0  0
 24 27  1  0  0  0
 27 28  3  0  0  0
  6 12  1  0  0  0
 12 13  2  0  0  0
 13 14  1  0  0  0
 14 15  2  0  0  0
 15 16  1  0  0  0
 15 17  1  0  0  0
 17 18  2  0  0  0
 10  2  1  0  0  0
 26 21  1  0  0  0
 18 12  1  0  0  0
  9  5  1  0  0  0
  1 11  1  0  0  0
M  END
> <minimizedAffinity>
-3.31475

> <CNNscore>
0.5067282319

> <CNNaffinity>
7.5637640953

> <CNN_VS>
3.8327727318

> <CNNaffinity_variance>
0.6915435791

$$$$
[H]Oc1c([H])c([H])c(C2=C(c3c([H])c([H])c([H])c([H])c3[H])c3c([H])c(O[H])c([H])c(O[H])c3C2=O)c([H])c1[H]


 28 31  0  0  0  0  0  0  0  0999 V2000
    8.9418   46.0597  130.7081 C   0  0  0  0  0  0  0  0  0  0  0  0
    8.8681   47.1174  131.4404 C   0  0  0  0  0  0  0  0  0  0  0  0
    8.2017   48.2188  130.6829 C   0  0  0  0  0  0  0  0  0  0  0  0
    7.8815   49.5148  130.9878 C   0  0  0  0  0  0  0  0  0  0  0  0
    7.2447   50.3378  130.0636 C   0  0  0  0  0  0  0  0  0  0  0  0
    6.9216   51.6584  130.3829 O   0  0  0  0  0  0  0  0  0  0  0  0
    6.9363   49.8279  128.8239 C   0  0  0  0  0  0  0  0  0  0  0  0
    7.2440   48.5287  128.4841 C   0  0  0  0  0  0  0  0  0  0  0  0
    6.9526   47.9905  127.2632 O   0  0  0  0  0  0  0  0  0  0  0  0
    7.8759   47.7465  129.4310 C   0  0  0  0  0  0  0  0  0  0  0  0
    8.3208   46.3672  129.3752 C   0  0  0  0  0  0  0  0  0  0  0  0
    8.2464   45.5179  128.4422 O   0  0  0  0  0  0  0  0  0  0  0  0
    7.6391   52.3509  130.1655 H   0  0  0  0  0  0  0  0  0  0  0  0
    7.1408   47.0791  126.9535 H   0  0  0  0  0  0  0  0  0  0  0  0
   11.4879   41.1080  131.9032 O   0  0  0  0  0  0  0  0  0  0  0  0
   10.8418   42.3044  131.6024 C   0  0  0  0  0  0  0  0  0  0  0  0
    9.4707   42.3689  131.5035 C   0  0  0  0  0  0  0  0  0  0  0  0
    8.8322   43.5796  131.2001 C   0  0  0  0  0  0  0  0  0  0  0  0
    9.4942   44.7479  130.9877 C   0  0  0  0  0  0  0  0  0  0  0  0
   10.9011   44.6585  131.0934 C   0  0  0  0  0  0  0  0  0  0  0  0
   11.5320   43.4767  131.3895 C   0  0  0  0  0  0  0  0  0  0  0  0
   11.7947   40.4535  131.1872 H   0  0  0  0  0  0  0  0  0  0  0  0
    9.3058   47.3752  132.7973 C   0  0  0  0  0  0  0  0  0  0  0  0
    8.6897   46.6558  133.8464 C   0  0  0  0  0  0  0  0  0  0  0  0
    9.0371   46.7640  135.1482 C   0  0  0  0  0  0  0  0  0  0  0  0
   10.0459   47.6117  135.5325 C   0  0  0  0  0  0  0  0  0  0  0  0
   10.6776   48.3343  134.5482 C   0  0  0  0  0  0  0  0  0  0  0  0
   10.3067   48.2113  133.2001 C   0  0  0  0  0  0  0  0  0  0  0  0
 15 16  1  0  0  0
 16 17  2  0  0  0
 17 18  1  0  0  0
 18 19  2  0  0  0
 19 20  1  0  0  0
 20 21  2  0  0  0
 19  1  1  0  0  0
  1  2  2  0  0  0
  2  3  1  0  0  0
  3  4  2  0  0  0
  4  5  1  0  0  0
  5  6  1  0  0  0
  5  7  2  0  0  0
  7  8  1  0  0  0
  8  9  1  0  0  0
  8 10  2  0  0  0
 10 11  1  0  0  0
 11 12  2  0  0  0
  2 23  1  0  0  0
 23 24  2  0  0  0
 24 25  1  0  0  0
 25 26  2  0  0  0
 26 27  1  0  0  0
 27 28  2  0  0  0
 21 16  1  0  0  0
 11  1  1  0  0  0
 28 23  1  0  0  0
 10  3  1  0  0  0
 15 22  1  0  0  0
  6 13  1  0  0  0
  9 14  1  0  0  0
M  END
> <minimizedAffinity>
-4.66854

> <CNNscore>
0.4385180473

> <CNNaffinity>
7.1208753586

> <CNN_VS>
3.1226322651

> <CNNaffinity_variance>
0.5242533088

$$$$
[H]Oc1c([H])c([H])c(C2=C(c3c([H])c([H])c([H])c([H])c3[H])c3c([H])c(O[H])c([H])c(O[H])c3C2=O)c([H])c1[H]


 28 31  0  0  0  0  0  0  0  0999 V2000
    8.9571   47.2111  131.6151 C   0  0  0  0  0  0  0  0  0  0  0  0
    9.4741   46.0534  131.3858 C   0  0  0  0  0  0  0  0  0  0  0  0
    9.9492   45.4429  132.6636 C   0  0  0  0  0  0  0  0  0  0  0  0
   10.5580   44.2561  132.9735 C   0  0  0  0  0  0  0  0  0  0  0  0
   10.8981   43.9403  134.2857 C   0  0  0  0  0  0  0  0  0  0  0  0
   11.5188   42.7276  134.5931 O   0  0  0  0  0  0  0  0  0  0  0  0
   10.6119   44.8456  135.2809 C   0  0  0  0  0  0  0  0  0  0  0  0
   10.0001   46.0487  135.0042 C   0  0  0  0  0  0  0  0  0  0  0  0
    9.7018   46.9699  135.9671 O   0  0  0  0  0  0  0  0  0  0  0  0
    9.6798   46.3221  133.6887 C   0  0  0  0  0  0  0  0  0  0  0  0
    9.0430   47.4799  133.0907 C   0  0  0  0  0  0  0  0  0  0  0  0
    8.6135   48.5446  133.6190 O   0  0  0  0  0  0  0  0  0  0  0  0
   12.5390   42.7383  134.5704 H   0  0  0  0  0  0  0  0  0  0  0  0
    9.2696   47.8418  135.8442 H   0  0  0  0  0  0  0  0  0  0  0  0
    6.8440   51.3344  128.3039 O   0  0  0  0  0  0  0  0  0  0  0  0
    7.3444   50.3068  129.0996 C   0  0  0  0  0  0  0  0  0  0  0  0
    7.2735   48.9932  128.6954 C   0  0  0  0  0  0  0  0  0  0  0  0
    7.7810   47.9678  129.5058 C   0  0  0  0  0  0  0  0  0  0  0  0
    8.3654   48.1821  130.7144 C   0  0  0  0  0  0  0  0  0  0  0  0
    8.4269   49.5379  131.1099 C   0  0  0  0  0  0  0  0  0  0  0  0
    7.9316   50.5459  130.3219 C   0  0  0  0  0  0  0  0  0  0  0  0
    5.8838   51.6640  128.3709 H   0  0  0  0  0  0  0  0  0  0  0  0
    9.6483   45.3091  130.1550 C   0  0  0  0  0  0  0  0  0  0  0  0
   10.8357   45.5095  129.4150 C   0  0  0  0  0  0  0  0  0  0  0  0
   11.1448   44.8442  128.2796 C   0  0  0  0  0  0  0  0  0  0  0  0
   10.2869   43.9030  127.7675 C   0  0  0  0  0  0  0  0  0  0  0  0
    9.1173   43.6708  128.4516 C   0  0  0  0  0  0  0  0  0  0  0  0
    8.8097   44.3687  129.6300 C   0  0  0  0  0  0  0  0  0  0  0  0
 15 16  1  0  0  0
 16 17  2  0  0  0
 17 18  1  0  0  0
 18 19  2  0  0  0
 19 20  1  0  0  0
 20 21  2  0  0  0
 19  1  1  0  0  0
  1  2  2  0  0  0
  2  3  1  0  0  0
  3  4  2  0  0  0
  4  5  1  0  0  0
  5  6  1  0  0  0
  5  7  2  0  0  0
  7  8  1  0  0  0
  8  9  1  0  0  0
  8 10  2  0  0  0
 10 11  1  0  0  0
 11 12  2  0  0  0
  2 23  1  0  0  0
 23 24  2  0  0  0
 24 25  1  0  0  0
 25 26  2  0  0  0
 26 27  1  0  0  0
 27 28  2  0  0  0
 21 16  1  0  0  0
 11  1  1  0  0  0
 28 23  1  0  0  0
 10  3  1  0  0  0
 15 22  1  0  0  0
  6 13  1  0  0  0
  9 14  1  0  0  0
M  END
> <minimizedAffinity>
-8.03573

> <CNNscore>
0.4244330227

> <CNNaffinity>
7.2219491005

> <CNN_VS>
3.0652337074

> <CNNaffinity_variance>
0.3054444790

$$$$
[H]Oc1c([H])c([H])c(C2=C(c3c([H])c([H])c([H])c([H])c3[H])c3c([H])c(O[H])c([H])c(O[H])c3C2=O)c([H])c1[H]


 28 31  0  0  0  0  0  0  0  0999 V2000
    8.6756   45.9887  130.3733 C   0  0  0  0  0  0  0  0  0  0  0  0
    9.5541   46.1415  131.3034 C   0  0  0  0  0  0  0  0  0  0  0  0
   10.3365   44.8815  131.4805 C   0  0  0  0  0  0  0  0  0  0  0  0
   11.3614   44.5158  132.3117 C   0  0  0  0  0  0  0  0  0  0  0  0
   11.9147   43.2399  132.2575 C   0  0  0  0  0  0  0  0  0  0  0  0
   12.9599   42.8752  133.1089 O   0  0  0  0  0  0  0  0  0  0  0  0
   11.4138   42.3384  131.3474 C   0  0  0  0  0  0  0  0  0  0  0  0
   10.3834   42.6731  130.4963 C   0  0  0  0  0  0  0  0  0  0  0  0
    9.8624   41.8034  129.5814 O   0  0  0  0  0  0  0  0  0  0  0  0
    9.8634   43.9498  130.5835 C   0  0  0  0  0  0  0  0  0  0  0  0
    8.7962   44.5899  129.8387 C   0  0  0  0  0  0  0  0  0  0  0  0
    8.0606   44.1451  128.9123 O   0  0  0  0  0  0  0  0  0  0  0  0
   12.6777   42.4690  134.0016 H   0  0  0  0  0  0  0  0  0  0  0  0
    9.1333   41.9716  128.9472 H   0  0  0  0  0  0  0  0  0  0  0  0
    4.5118   49.4156  128.5430 O   0  0  0  0  0  0  0  0  0  0  0  0
    5.5477   48.5887  128.9705 C   0  0  0  0  0  0  0  0  0  0  0  0
    6.8608   48.8852  128.6847 C   0  0  0  0  0  0  0  0  0  0  0  0
    7.8945   48.0446  129.1210 C   0  0  0  0  0  0  0  0  0  0  0  0
    7.6894   46.9081  129.8383 C   0  0  0  0  0  0  0  0  0  0  0  0
    6.3337   46.6226  130.1197 C   0  0  0  0  0  0  0  0  0  0  0  0
    5.3175   47.4408  129.6952 C   0  0  0  0  0  0  0  0  0  0  0  0
    4.0457   49.2944  127.6468 H   0  0  0  0  0  0  0  0  0  0  0  0
    9.8721   47.2788  132.1429 C   0  0  0  0  0  0  0  0  0  0  0  0
    9.7813   48.5718  131.5792 C   0  0  0  0  0  0  0  0  0  0  0  0
   10.0015   49.7163  132.2639 C   0  0  0  0  0  0  0  0  0  0  0  0
   10.3379   49.6792  133.5941 C   0  0  0  0  0  0  0  0  0  0  0  0
   10.4386   48.4442  134.1894 C   0  0  0  0  0  0  0  0  0  0  0  0
   10.2064   47.2639  133.4661 C   0  0  0  0  0  0  0  0  0  0  0  0
 15 16  1  0  0  0
 16 17  2  0  0  0
 17 18  1  0  0  0
 18 19  2  0  0  0
 19 20  1  0  0  0
 20 21  2  0  0  0
 19  1  1  0  0  0
  1  2  2  0  0  0
  2  3  1  0  0  0
  3  4  2  0  0  0
  4  5  1  0  0  0
  5  6  1  0  0  0
  5  7  2  0  0  0
  7  8  1  0  0  0
  8  9  1  0  0  0
  8 10  2  0  0  0
 10 11  1  0  0  0
 11 12  2  0  0  0
  2 23  1  0  0  0
 23 24  2  0  0  0
 24 25  1  0  0  0
 25 26  2  0  0  0
 26 27  1  0  0  0
 27 28  2  0  0  0
 21 16  1  0  0  0
 11  1  1  0  0  0
 28 23  1  0  0  0
 10  3  1  0  0  0
 15 22  1  0  0  0
  6 13  1  0  0  0
  9 14  1  0  0  0
M  END
> <minimizedAffinity>
-6.25958

> <CNNscore>
0.4098951221

> <CNNaffinity>
6.9873442650

> <CNN_VS>
2.8640782833

> <CNNaffinity_variance>
0.5757187605

$$$$
[H]Oc1c([H])c([H])c(C2=C(c3c([H])c([H])c([H])c([H])c3[H])c3c([H])c(O[H])c([H])c(O[H])c3C2=O)c([H])c1[H]


 28 31  0  0  0  0  0  0  0  0999 V2000
    8.7272   46.4582  130.4042 C   0  0  0  0  0  0  0  0  0  0  0  0
    9.2283   45.9505  131.4773 C   0  0  0  0  0  0  0  0  0  0  0  0
    9.7303   44.5704  131.2043 C   0  0  0  0  0  0  0  0  0  0  0  0
   10.3367   43.6166  131.9773 C   0  0  0  0  0  0  0  0  0  0  0  0
   10.7072   42.3848  131.4458 C   0  0  0  0  0  0  0  0  0  0  0  0
   11.3253   41.4175  132.2412 O   0  0  0  0  0  0  0  0  0  0  0  0
   10.4540   42.1329  130.1175 C   0  0  0  0  0  0  0  0  0  0  0  0
    9.8456   43.0701  129.3113 C   0  0  0  0  0  0  0  0  0  0  0  0
    9.5795   42.8533  127.9894 O   0  0  0  0  0  0  0  0  0  0  0  0
    9.4944   44.2792  129.8792 C   0  0  0  0  0  0  0  0  0  0  0  0
    8.8527   45.4449  129.3022 C   0  0  0  0  0  0  0  0  0  0  0  0
    8.4456   45.6593  128.1251 O   0  0  0  0  0  0  0  0  0  0  0  0
   10.6946   40.7692  132.7139 H   0  0  0  0  0  0  0  0  0  0  0  0
    9.1518   43.4708  127.3586 H   0  0  0  0  0  0  0  0  0  0  0  0
    6.7480   51.7159  129.4712 O   0  0  0  0  0  0  0  0  0  0  0  0
    7.2048   50.4202  129.6999 C   0  0  0  0  0  0  0  0  0  0  0  0
    6.4120   49.3274  129.4336 C   0  0  0  0  0  0  0  0  0  0  0  0
    6.8837   48.0281  129.6682 C   0  0  0  0  0  0  0  0  0  0  0  0
    8.1210   47.7532  130.1598 C   0  0  0  0  0  0  0  0  0  0  0  0
    8.9177   48.8900  130.4268 C   0  0  0  0  0  0  0  0  0  0  0  0
    8.4619   50.1640  130.2000 C   0  0  0  0  0  0  0  0  0  0  0  0
    6.2569   52.2586  130.1779 H   0  0  0  0  0  0  0  0  0  0  0  0
    9.3672   46.4866  132.8161 C   0  0  0  0  0  0  0  0  0  0  0  0
    8.4514   46.0606  133.8050 C   0  0  0  0  0  0  0  0  0  0  0  0
    8.4994   46.4437  135.1004 C   0  0  0  0  0  0  0  0  0  0  0  0
    9.4788   47.2998  135.5385 C   0  0  0  0  0  0  0  0  0  0  0  0
   10.3950   47.7426  134.6142 C   0  0  0  0  0  0  0  0  0  0  0  0
   10.3334   47.3359  133.2722 C   0  0  0  0  0  0  0  0  0  0  0  0
 15 16  1  0  0  0
 16 17  2  0  0  0
 17 18  1  0  0  0
 18 19  2  0  0  0
 19 20  1  0  0  0
 20 21  2  0  0  0
 19  1  1  0  0  0
  1  2  2  0  0  0
  2  3  1  0  0  0
  3  4  2  0  0  0
  4  5  1  0  0  0
  5  6  1  0  0  0
  5  7  2  0  0  0
  7  8  1  0  0  0
  8  9  1  0  0  0
  8 10  2  0  0  0
 10 11  1  0  0  0
 11 12  2  0  0  0
  2 23  1  0  0  0
 23 24  2  0  0  0
 24 25  1  0  0  0
 25 26  2  0  0  0
 26 27  1  0  0  0
 27 28  2  0  0  0
 21 16  1  0  0  0
 11  1  1  0  0  0
 28 23  1  0  0  0
 10  3  1  0  0  0
 15 22  1  0  0  0
  6 13  1  0  0  0
  9 14  1  0  0  0
M  END
> <minimizedAffinity>
-6.76090

> <CNNscore>
0.3956235051

> <CNNaffinity>
7.1591072083

> <CNN_VS>
2.8323111534

> <CNNaffinity_variance>
0.4996210039

$$$$
[H]Oc1c([H])c([H])c(C2=C(c3c([H])c([H])c([H])c([H])c3[H])c3c([H])c(O[H])c([H])c(O[H])c3C2=O)c([H])c1[H]


 28 31  0  0  0  0  0  0  0  0999 V2000
    9.9206   46.6150  131.9030 C   0  0  0  0  0  0  0  0  0  0  0  0
    9.4309   46.3262  130.7467 C   0  0  0  0  0  0  0  0  0  0  0  0
    8.8052   47.5385  130.1386 C   0  0  0  0  0  0  0  0  0  0  0  0
    8.1601   47.7742  128.9539 C   0  0  0  0  0  0  0  0  0  0  0  0
    7.6653   49.0366  128.6400 C   0  0  0  0  0  0  0  0  0  0  0  0
    7.0087   49.2684  127.4294 O   0  0  0  0  0  0  0  0  0  0  0  0
    7.8338   50.0585  129.5451 C   0  0  0  0  0  0  0  0  0  0  0  0
    8.4779   49.8562  130.7462 C   0  0  0  0  0  0  0  0  0  0  0  0
    8.6624   50.8475  131.6672 O   0  0  0  0  0  0  0  0  0  0  0  0
    8.9534   48.5881  131.0177 C   0  0  0  0  0  0  0  0  0  0  0  0
    9.6605   48.0698  132.1731 C   0  0  0  0  0  0  0  0  0  0  0  0
   10.0273   48.6451  133.2369 O   0  0  0  0  0  0  0  0  0  0  0  0
    5.9984   49.1244  127.4432 H   0  0  0  0  0  0  0  0  0  0  0  0
    9.1088   50.7766  132.5376 H   0  0  0  0  0  0  0  0  0  0  0  0
   12.2683   43.2587  135.8596 O   0  0  0  0  0  0  0  0  0  0  0  0
   11.7205   44.0886  134.8845 C   0  0  0  0  0  0  0  0  0  0  0  0
   12.4792   44.5503  133.8332 C   0  0  0  0  0  0  0  0  0  0  0  0
   11.9158   45.3853  132.8579 C   0  0  0  0  0  0  0  0  0  0  0  0
   10.6183   45.7908  132.8716 C   0  0  0  0  0  0  0  0  0  0  0  0
    9.8580   45.3056  133.9601 C   0  0  0  0  0  0  0  0  0  0  0  0
   10.4035   44.4887  134.9181 C   0  0  0  0  0  0  0  0  0  0  0  0
   12.7050   43.6180  136.7054 H   0  0  0  0  0  0  0  0  0  0  0  0
    9.4022   45.0836  130.0021 C   0  0  0  0  0  0  0  0  0  0  0  0
   10.2412   44.9627  128.8710 C   0  0  0  0  0  0  0  0  0  0  0  0
   10.3476   43.8438  128.1202 C   0  0  0  0  0  0  0  0  0  0  0  0
    9.6171   42.7238  128.4304 C   0  0  0  0  0  0  0  0  0  0  0  0
    8.7855   42.7907  129.5230 C   0  0  0  0  0  0  0  0  0  0  0  0
    8.6856   43.9593  130.2942 C   0  0  0  0  0  0  0  0  0  0  0  0
 15 16  1  0  0  0
 16 17  2  0  0  0
 17 18  1  0  0  0
 18 19  2  0  0  0
 19 20  1  0  0  0
 20 21  2  0  0  0
 19  1  1  0  0  0
  1  2  2  0  0  0
  2  3  1  0  0  0
  3  4  2  0  0  0
  4  5  1  0  0  0
  5  6  1  0  0  0
  5  7  2  0  0  0
  7  8  1  0  0  0
  8  9  1  0  0  0
  8 10  2  0  0  0
 10 11  1  0  0  0
 11 12  2  0  0  0
  2 23  1  0  0  0
 23 24  2  0  0  0
 24 25  1  0  0  0
 25 26  2  0  0  0
 26 27  1  0  0  0
 27 28  2  0  0  0
 21 16  1  0  0  0
 11  1  1  0  0  0
 28 23  1  0  0  0
 10  3  1  0  0  0
 15 22  1  0  0  0
  6 13  1  0  0  0
  9 14  1  0  0  0
M  END
> <minimizedAffinity>
-6.54741

> <CNNscore>
0.3766167760

> <CNNaffinity>
7.0752954483

> <CNN_VS>
2.6646749973

> <CNNaffinity_variance>
0.6895964742

$$$$
[H]Oc1c([H])c([H])c(C2=C(c3c([H])c([H])c([H])c([H])c3[H])c3c([H])c(O[H])c([H])c(O[H])c3C2=O)c([H])c1[H]


 28 31  0  0  0  0  0  0  0  0999 V2000
    9.3843   46.5217  130.8347 C   0  0  0  0  0  0  0  0  0  0  0  0
    9.6266   45.5824  131.6828 C   0  0  0  0  0  0  0  0  0  0  0  0
    9.7789   44.2777  130.9716 C   0  0  0  0  0  0  0  0  0  0  0  0
   10.0369   42.9994  131.3895 C   0  0  0  0  0  0  0  0  0  0  0  0
   10.1271   41.9477  130.4825 C   0  0  0  0  0  0  0  0  0  0  0  0
   10.3906   40.6469  130.9173 O   0  0  0  0  0  0  0  0  0  0  0  0
    9.9520   42.2101  129.1437 C   0  0  0  0  0  0  0  0  0  0  0  0
    9.6911   43.4842  128.6890 C   0  0  0  0  0  0  0  0  0  0  0  0
    9.5120   43.7800  127.3678 O   0  0  0  0  0  0  0  0  0  0  0  0
    9.6098   44.4986  129.6229 C   0  0  0  0  0  0  0  0  0  0  0  0
    9.3530   45.9167  129.4599 C   0  0  0  0  0  0  0  0  0  0  0  0
    9.1357   46.5969  128.4172 O   0  0  0  0  0  0  0  0  0  0  0  0
    9.5695   40.0842  131.1421 H   0  0  0  0  0  0  0  0  0  0  0  0
    9.3243   44.6584  126.9740 H   0  0  0  0  0  0  0  0  0  0  0  0
    8.9164   52.1216  131.7586 O   0  0  0  0  0  0  0  0  0  0  0  0
    9.0031   50.7514  131.5246 C   0  0  0  0  0  0  0  0  0  0  0  0
    8.0986   50.1087  130.7105 C   0  0  0  0  0  0  0  0  0  0  0  0
    8.1968   48.7287  130.4828 C   0  0  0  0  0  0  0  0  0  0  0  0
    9.1618   47.9419  131.0286 C   0  0  0  0  0  0  0  0  0  0  0  0
   10.0792   48.6224  131.8615 C   0  0  0  0  0  0  0  0  0  0  0  0
    9.9883   49.9724  132.0888 C   0  0  0  0  0  0  0  0  0  0  0  0
    8.3783   52.5151  132.5272 H   0  0  0  0  0  0  0  0  0  0  0  0
    9.7645   45.6062  133.1249 C   0  0  0  0  0  0  0  0  0  0  0  0
    8.7505   46.2347  133.8829 C   0  0  0  0  0  0  0  0  0  0  0  0
    8.7316   46.2835  135.2336 C   0  0  0  0  0  0  0  0  0  0  0  0
    9.7361   45.7022  135.9665 C   0  0  0  0  0  0  0  0  0  0  0  0
   10.7465   45.0770  135.2750 C   0  0  0  0  0  0  0  0  0  0  0  0
   10.7528   45.0335  133.8720 C   0  0  0  0  0  0  0  0  0  0  0  0
 15 16  1  0  0  0
 16 17  2  0  0  0
 17 18  1  0  0  0
 18 19  2  0  0  0
 19 20  1  0  0  0
 20 21  2  0  0  0
 19  1  1  0  0  0
  1  2  2  0  0  0
  2  3  1  0  0  0
  3  4  2  0  0  0
  4  5  1  0  0  0
  5  6  1  0  0  0
  5  7  2  0  0  0
  7  8  1  0  0  0
  8  9  1  0  0  0
  8 10  2  0  0  0
 10 11  1  0  0  0
 11 12  2  0  0  0
  2 23  1  0  0  0
 23 24  2  0  0  0
 24 25  1  0  0  0
 25 26  2  0  0  0
 26 27  1  0  0  0
 27 28  2  0  0  0
 21 16  1  0  0  0
 11  1  1  0  0  0
 28 23  1  0  0  0
 10  3  1  0  0  0
 15 22  1  0  0  0
  6 13  1  0  0  0
  9 14  1  0  0  0
M  END
> <minimizedAffinity>
0.56724

> <CNNscore>
0.3441692293

> <CNNaffinity>
6.9324035645

> <CNN_VS>
2.3859200478

> <CNNaffinity_variance>
1.3108110428

$$$$
[H]Oc1c([H])c([H])c(C2=C(c3c([H])c([H])c([H])c([H])c3[H])c3c([H])c(O[H])c([H])c(O[H])c3C2=O)c([H])c1[H]


 28 31  0  0  0  0  0  0  0  0999 V2000
    9.4990   46.5044  130.2526 C   0  0  0  0  0  0  0  0  0  0  0  0
    9.9982   46.8473  131.3900 C   0  0  0  0  0  0  0  0  0  0  0  0
    9.6824   48.2788  131.6768 C   0  0  0  0  0  0  0  0  0  0  0  0
    9.9684   49.1175  132.7207 C   0  0  0  0  0  0  0  0  0  0  0  0
    9.5356   50.4403  132.7235 C   0  0  0  0  0  0  0  0  0  0  0  0
    9.8316   51.2890  133.7923 O   0  0  0  0  0  0  0  0  0  0  0  0
    8.8077   50.9018  131.6516 C   0  0  0  0  0  0  0  0  0  0  0  0
    8.5022   50.0850  130.5848 C   0  0  0  0  0  0  0  0  0  0  0  0
    7.7821   50.5102  129.5052 O   0  0  0  0  0  0  0  0  0  0  0  0
    8.9512   48.7793  130.6227 C   0  0  0  0  0  0  0  0  0  0  0  0
    8.7945   47.6967  129.6704 C   0  0  0  0  0  0  0  0  0  0  0  0
    8.2042   47.6653  128.5533 O   0  0  0  0  0  0  0  0  0  0  0  0
   10.7041   51.8119  133.7094 H   0  0  0  0  0  0  0  0  0  0  0  0
    7.5286   49.9877  128.7148 H   0  0  0  0  0  0  0  0  0  0  0  0
   10.0222   41.6577  127.3087 O   0  0  0  0  0  0  0  0  0  0  0  0
    9.8675   42.8351  128.0363 C   0  0  0  0  0  0  0  0  0  0  0  0
    8.9208   42.9401  129.0295 C   0  0  0  0  0  0  0  0  0  0  0  0
    8.7751   44.1310  129.7550 C   0  0  0  0  0  0  0  0  0  0  0  0
    9.5330   45.2396  129.5432 C   0  0  0  0  0  0  0  0  0  0  0  0
   10.4981   45.1097  128.5185 C   0  0  0  0  0  0  0  0  0  0  0  0
   10.6453   43.9474  127.8046 C   0  0  0  0  0  0  0  0  0  0  0  0
    9.5126   41.4724  126.4478 H   0  0  0  0  0  0  0  0  0  0  0  0
   10.7662   46.0981  132.3637 C   0  0  0  0  0  0  0  0  0  0  0  0
   10.1112   45.6581  133.5363 C   0  0  0  0  0  0  0  0  0  0  0  0
   10.6964   44.9103  134.4984 C   0  0  0  0  0  0  0  0  0  0  0  0
   12.0086   44.5252  134.3805 C   0  0  0  0  0  0  0  0  0  0  0  0
   12.6900   44.9280  133.2565 C   0  0  0  0  0  0  0  0  0  0  0  0
   12.0692   45.7038  132.2651 C   0  0  0  0  0  0  0  0  0  0  0  0
 15 16  1  0  0  0
 16 17  2  0  0  0
 17 18  1  0  0  0
 18 19  2  0  0  0
 19 20  1  0  0  0
 20 21  2  0  0  0
 19  1  1  0  0  0
  1  2  2  0  0  0
  2  3  1  0  0  0
  3  4  2  0  0  0
  4  5  1  0  0  0
  5  6  1  0  0  0
  5  7  2  0  0  0
  7  8  1  0  0  0
  8  9  1  0  0  0
  8 10  2  0  0  0
 10 11  1  0  0  0
 11 12  2  0  0  0
  2 23  1  0  0  0
 23 24  2  0  0  0
 24 25  1  0  0  0
 25 26  2  0  0  0
 26 27  1  0  0  0
 27 28  2  0  0  0
 21 16  1  0  0  0
 11  1  1  0  0  0
 28 23  1  0  0  0
 10  3  1  0  0  0
 15 22  1  0  0  0
  6 13  1  0  0  0
  9 14  1  0  0  0
M  END
> <minimizedAffinity>
-4.22851

> <CNNscore>
0.3291673064

> <CNNaffinity>
6.8708724976

> <CNN_VS>
2.2616665363

> <CNNaffinity_variance>
1.2518579960

$$$$
[H]Oc1c([H])c([H])c(C2=C(c3c([H])c([H])c([H])c([H])c3[H])c3c([H])c(O[H])c([H])c(O[H])c3C2=O)c([H])c1[H]


 28 31  0  0  0  0  0  0  0  0999 V2000
    9.1257   46.5769  130.4278 C   0  0  0  0  0  0  0  0  0  0  0  0
    9.4956   46.1370  131.5811 C   0  0  0  0  0  0  0  0  0  0  0  0
   10.6369   45.1862  131.4241 C   0  0  0  0  0  0  0  0  0  0  0  0
   11.3849   44.4553  132.3081 C   0  0  0  0  0  0  0  0  0  0  0  0
   12.4158   43.6289  131.8708 C   0  0  0  0  0  0  0  0  0  0  0  0
   13.1738   42.8868  132.7792 O   0  0  0  0  0  0  0  0  0  0  0  0
   12.6785   43.5535  130.5228 C   0  0  0  0  0  0  0  0  0  0  0  0
   11.9456   44.2752  129.6060 C   0  0  0  0  0  0  0  0  0  0  0  0
   12.1792   44.2241  128.2615 O   0  0  0  0  0  0  0  0  0  0  0  0
   10.9317   45.0830  130.0829 C   0  0  0  0  0  0  0  0  0  0  0  0
   10.0021   45.9480  129.3821 C   0  0  0  0  0  0  0  0  0  0  0  0
    9.8764   46.1893  128.1480 O   0  0  0  0  0  0  0  0  0  0  0  0
   12.8185   41.9533  132.9883 H   0  0  0  0  0  0  0  0  0  0  0  0
   11.7006   44.7072  127.5547 H   0  0  0  0  0  0  0  0  0  0  0  0
    4.7195   49.9010  129.0254 O   0  0  0  0  0  0  0  0  0  0  0  0
    5.8151   49.1099  129.3624 C   0  0  0  0  0  0  0  0  0  0  0  0
    7.0264   49.6733  129.6928 C   0  0  0  0  0  0  0  0  0  0  0  0
    8.1217   48.8658  130.0303 C   0  0  0  0  0  0  0  0  0  0  0  0
    8.0759   47.5074  130.0586 C   0  0  0  0  0  0  0  0  0  0  0  0
    6.8228   46.9503  129.7152 C   0  0  0  0  0  0  0  0  0  0  0  0
    5.7473   47.7348  129.3835 C   0  0  0  0  0  0  0  0  0  0  0  0
    4.5226   50.1892  128.0697 H   0  0  0  0  0  0  0  0  0  0  0  0
    9.0010   46.4123  132.9148 C   0  0  0  0  0  0  0  0  0  0  0  0
    9.2636   47.6826  133.4760 C   0  0  0  0  0  0  0  0  0  0  0  0
    8.8182   48.0849  134.6872 C   0  0  0  0  0  0  0  0  0  0  0  0
    8.0581   47.2467  135.4642 C   0  0  0  0  0  0  0  0  0  0  0  0
    7.7743   45.9988  134.9621 C   0  0  0  0  0  0  0  0  0  0  0  0
    8.2430   45.5947  133.7023 C   0  0  0  0  0  0  0  0  0  0  0  0
 15 16  1  0  0  0
 16 17  2  0  0  0
 17 18  1  0  0  0
 18 19  2  0  0  0
 19 20  1  0  0  0
 20 21  2  0  0  0
 19  1  1  0  0  0
  1  2  2  0  0  0
  2  3  1  0  0  0
  3  4  2  0  0  0
  4  5  1  0  0  0
  5  6  1  0  0  0
  5  7  2  0  0  0
  7  8  1  0  0  0
  8  9  1  0  0  0
  8 10  2  0  0  0
 10 11  1  0  0  0
 11 12  2  0  0  0
  2 23  1  0  0  0
 23 24  2  0  0  0
 24 25  1  0  0  0
 25 26  2  0  0  0
 26 27  1  0  0  0
 27 28  2  0  0  0
 21 16  1  0  0  0
 11  1  1  0  0  0
 28 23  1  0  0  0
 10  3  1  0  0  0
 15 22  1  0  0  0
  6 13  1  0  0  0
  9 14  1  0  0  0
M  END
> <minimizedAffinity>
-6.10133

> <CNNscore>
0.3122555315

> <CNNaffinity>
6.9417090416

> <CNN_VS>
2.1675870419

> <CNNaffinity_variance>
0.5042217970

$$$$
[H]Oc1c([H])c([H])c(C2=C(c3c([H])c([H])c([H])c([H])c3[H])c3c([H])c(O[H])c([H])c(O[H])c3C2=O)c([H])c1[H]


 28 31  0  0  0  0  0  0  0  0999 V2000
   10.3536   45.7888  131.6148 C   0  0  0  0  0  0  0  0  0  0  0  0
    9.8197   46.1860  130.5114 C   0  0  0  0  0  0  0  0  0  0  0  0
    9.4133   47.6188  130.6262 C   0  0  0  0  0  0  0  0  0  0  0  0
    8.8175   48.5026  129.7665 C   0  0  0  0  0  0  0  0  0  0  0  0
    8.5492   49.8133  130.1501 C   0  0  0  0  0  0  0  0  0  0  0  0
    7.9412   50.7083  129.2671 O   0  0  0  0  0  0  0  0  0  0  0  0
    8.8938   50.2163  131.4192 C   0  0  0  0  0  0  0  0  0  0  0  0
    9.4945   49.3531  132.3094 C   0  0  0  0  0  0  0  0  0  0  0  0
    9.8495   49.7197  133.5761 O   0  0  0  0  0  0  0  0  0  0  0  0
    9.7428   48.0614  131.8879 C   0  0  0  0  0  0  0  0  0  0  0  0
   10.3506   46.9407  132.5793 C   0  0  0  0  0  0  0  0  0  0  0  0
   10.8131   46.8530  133.7522 O   0  0  0  0  0  0  0  0  0  0  0  0
    6.9213   50.7302  129.2968 H   0  0  0  0  0  0  0  0  0  0  0  0
   10.2780   49.1621  134.2598 H   0  0  0  0  0  0  0  0  0  0  0  0
   12.1818   40.5427  132.8664 O   0  0  0  0  0  0  0  0  0  0  0  0
   11.7541   41.8365  132.5788 C   0  0  0  0  0  0  0  0  0  0  0  0
   12.5549   42.9257  132.8361 C   0  0  0  0  0  0  0  0  0  0  0  0
   12.1127   44.2232  132.5419 C   0  0  0  0  0  0  0  0  0  0  0  0
   10.8988   44.4997  131.9959 C   0  0  0  0  0  0  0  0  0  0  0  0
   10.0928   43.3668  131.7407 C   0  0  0  0  0  0  0  0  0  0  0  0
   10.5193   42.0946  132.0268 C   0  0  0  0  0  0  0  0  0  0  0  0
   12.0132   40.0946  133.7641 H   0  0  0  0  0  0  0  0  0  0  0  0
    9.5746   45.4937  129.2625 C   0  0  0  0  0  0  0  0  0  0  0  0
   10.5665   45.5568  128.2575 C   0  0  0  0  0  0  0  0  0  0  0  0
   10.4860   44.9173  127.0694 C   0  0  0  0  0  0  0  0  0  0  0  0
    9.3934   44.1436  126.7666 C   0  0  0  0  0  0  0  0  0  0  0  0
    8.4002   44.0495  127.7125 C   0  0  0  0  0  0  0  0  0  0  0  0
    8.4976   44.7187  128.9425 C   0  0  0  0  0  0  0  0  0  0  0  0
 15 16  1  0  0  0
 16 17  2  0  0  0
 17 18  1  0  0  0
 18 19  2  0  0  0
 19 20  1  0  0  0
 20 21  2  0  0  0
 19  1  1  0  0  0
  1  2  2  0  0  0
  2  3  1  0  0  0
  3  4  2  0  0  0
  4  5  1  0  0  0
  5  6  1  0  0  0
  5  7  2  0  0  0
  7  8  1  0  0  0
  8  9  1  0  0  0
  8 10  2  0  0  0
 10 11  1  0  0  0
 11 12  2  0  0  0
  2 23  1  0  0  0
 23 24  2  0  0  0
 24 25  1  0  0  0
 25 26  2  0  0  0
 26 27  1  0  0  0
 27 28  2  0  0  0
 21 16  1  0  0  0
 11  1  1  0  0  0
 28 23  1  0  0  0
 10  3  1  0  0  0
 15 22  1  0  0  0
  6 13  1  0  0  0
  9 14  1  0  0  0
M  END
> <minimizedAffinity>
1.13587

> <CNNscore>
0.2405279577

> <CNNaffinity>
6.9028182030

> <CNN_VS>
1.6603207588

> <CNNaffinity_variance>
1.3160383701

$$$$
[H]Oc1c([H])c([H])c(-c2nn(C([H])([H])C([H])([H])C([H])([H])[H])c3c(Cl)c([H])c([H])c([H])c23)c([H])c1[H]


 21 23  0  0  0  0  0  0  0  0999 V2000
   10.8925   45.4174  131.4950 N   0  0  0  0  0  0  0  0  0  0  0  0
   10.3586   46.2940  130.6472 N   0  0  0  0  0  0  0  0  0  0  0  0
    9.5325   47.1304  131.2609 C   0  0  0  0  0  0  0  0  0  0  0  0
    9.5086   46.8031  132.5780 C   0  0  0  0  0  0  0  0  0  0  0  0
    8.8329   47.3191  133.6830 C   0  0  0  0  0  0  0  0  0  0  0  0
    9.0483   46.7245  134.8980 C   0  0  0  0  0  0  0  0  0  0  0  0
    9.8934   45.6565  135.0558 C   0  0  0  0  0  0  0  0  0  0  0  0
   10.5631   45.1505  133.9397 C   0  0  0  0  0  0  0  0  0  0  0  0
   11.6413   43.7861  134.1050 Cl  0  0  0  0  0  0  0  0  0  0  0  0
   10.3784   45.7130  132.7076 C   0  0  0  0  0  0  0  0  0  0  0  0
    8.7870   48.2080  130.5977 C   0  0  0  0  0  0  0  0  0  0  0  0
    8.1143   47.9809  129.4158 C   0  0  0  0  0  0  0  0  0  0  0  0
    7.4195   48.9815  128.7856 C   0  0  0  0  0  0  0  0  0  0  0  0
    7.3983   50.2460  129.3565 C   0  0  0  0  0  0  0  0  0  0  0  0
    6.6914   51.2611  128.7143 O   0  0  0  0  0  0  0  0  0  0  0  0
    8.0634   50.4894  130.5337 C   0  0  0  0  0  0  0  0  0  0  0  0
    8.7512   49.4625  131.1399 C   0  0  0  0  0  0  0  0  0  0  0  0
    5.7125   51.4390  128.9110 H   0  0  0  0  0  0  0  0  0  0  0  0
   11.8348   44.3994  131.1049 C   0  0  0  0  0  0  0  0  0  0  0  0
   10.0443   42.6867  130.7525 C   0  0  0  0  0  0  0  0  0  0  0  0
   11.2006   43.4315  130.1289 C   0  0  0  0  0  0  0  0  0  0  0  0
 20 21  1  0  0  0
 21 19  1  0  0  0
 19  1  1  0  0  0
  1  2  1  0  0  0
  2  3  2  0  0  0
  3 11  1  0  0  0
 11 12  2  0  0  0
 12 13  1  0  0  0
 13 14  2  0  0  0
 14 15  1  0  0  0
 14 16  1  0  0  0
 16 17  2  0  0  0
  3  4  1  0  0  0
  4  5  2  0  0  0
  5  6  1  0  0  0
  6  7  2  0  0  0
  7  8  1  0  0  0
  8  9  1  0  0  0
  8 10  2  0  0  0
 10  1  1  0  0  0
 17 11  1  0  0  0
 10  4  1  0  0  0
 15 18  1  0  0  0
M  END
> <minimizedAffinity>
-8.81213

> <CNNscore>
0.9026807547

> <CNNaffinity>
7.7942428589

> <CNN_VS>
7.0357131958

> <CNNaffinity_variance>
0.5869688988

$$$$
[H]Oc1c([H])c([H])c(-c2nn(C([H])([H])C([H])([H])C([H])([H])[H])c3c(Cl)c([H])c([H])c([H])c23)c([H])c1[H]


 21 23  0  0  0  0  0  0  0  0999 V2000
    8.6887   44.3982  130.9349 N   0  0  0  0  0  0  0  0  0  0  0  0
    8.2613   45.4173  130.1926 N   0  0  0  0  0  0  0  0  0  0  0  0
    8.3674   46.5721  130.8359 C   0  0  0  0  0  0  0  0  0  0  0  0
    8.8880   46.3202  132.0639 C   0  0  0  0  0  0  0  0  0  0  0  0
    9.2128   47.1281  133.1528 C   0  0  0  0  0  0  0  0  0  0  0  0
    9.7308   46.5213  134.2661 C   0  0  0  0  0  0  0  0  0  0  0  0
    9.9352   45.1675  134.3392 C   0  0  0  0  0  0  0  0  0  0  0  0
    9.6050   44.3712  133.2406 C   0  0  0  0  0  0  0  0  0  0  0  0
    9.8463   42.6423  133.3036 Cl  0  0  0  0  0  0  0  0  0  0  0  0
    9.0855   44.9343  132.1085 C   0  0  0  0  0  0  0  0  0  0  0  0
    7.9755   47.8760  130.2855 C   0  0  0  0  0  0  0  0  0  0  0  0
    7.3898   47.9728  129.0410 C   0  0  0  0  0  0  0  0  0  0  0  0
    7.0247   49.1859  128.5157 C   0  0  0  0  0  0  0  0  0  0  0  0
    7.2532   50.3351  129.2590 C   0  0  0  0  0  0  0  0  0  0  0  0
    6.8812   51.5668  128.7230 O   0  0  0  0  0  0  0  0  0  0  0  0
    7.8360   50.2566  130.5006 C   0  0  0  0  0  0  0  0  0  0  0  0
    8.1903   49.0228  130.9981 C   0  0  0  0  0  0  0  0  0  0  0  0
    5.9599   51.9616  128.8775 H   0  0  0  0  0  0  0  0  0  0  0  0
    8.7003   43.0297  130.4839 C   0  0  0  0  0  0  0  0  0  0  0  0
    9.8777   43.3239  128.2950 C   0  0  0  0  0  0  0  0  0  0  0  0
    9.9544   42.7417  129.6864 C   0  0  0  0  0  0  0  0  0  0  0  0
 20 21  1  0  0  0
 21 19  1  0  0  0
 19  1  1  0  0  0
  1  2  1  0  0  0
  2  3  2  0  0  0
  3 11  1  0  0  0
 11 12  2  0  0  0
 12 13  1  0  0  0
 13 14  2  0  0  0
 14 15  1  0  0  0
 14 16  1  0  0  0
 16 17  2  0  0  0
  3  4  1  0  0  0
  4  5  2  0  0  0
  5  6  1  0  0  0
  6  7  2  0  0  0
  7  8  1  0  0  0
  8  9  1  0  0  0
  8 10  2  0  0  0
 10  1  1  0  0  0
 17 11  1  0  0  0
 10  4  1  0  0  0
 15 18  1  0  0  0
M  END
> <minimizedAffinity>
-9.06131

> <CNNscore>
0.8903595805

> <CNNaffinity>
7.7969255447

> <CNN_VS>
6.9420671463

> <CNNaffinity_variance>
0.5904470682

$$$$
[H]Oc1c([H])c([H])c(-c2nn(C([H])([H])C([H])([H])C([H])([H])[H])c3c(Cl)c([H])c([H])c([H])c23)c([H])c1[H]


 21 23  0  0  0  0  0  0  0  0999 V2000
   10.9696   45.4715  131.5520 N   0  0  0  0  0  0  0  0  0  0  0  0
   10.4373   46.3386  130.6934 N   0  0  0  0  0  0  0  0  0  0  0  0
    9.5816   47.1577  131.2896 C   0  0  0  0  0  0  0  0  0  0  0  0
    9.5351   46.8281  132.6055 C   0  0  0  0  0  0  0  0  0  0  0  0
    8.8251   47.3292  133.6958 C   0  0  0  0  0  0  0  0  0  0  0  0
    9.0254   46.7373  134.9147 C   0  0  0  0  0  0  0  0  0  0  0  0
    9.8877   45.6859  135.0901 C   0  0  0  0  0  0  0  0  0  0  0  0
   10.5917   45.1948  133.9885 C   0  0  0  0  0  0  0  0  0  0  0  0
   11.6927   43.8517  134.1763 Cl  0  0  0  0  0  0  0  0  0  0  0  0
   10.4232   45.7552  132.7532 C   0  0  0  0  0  0  0  0  0  0  0  0
    8.8298   48.2213  130.6111 C   0  0  0  0  0  0  0  0  0  0  0  0
    8.7663   49.4928  131.1407 C   0  0  0  0  0  0  0  0  0  0  0  0
    8.0628   50.4918  130.5178 C   0  0  0  0  0  0  0  0  0  0  0  0
    7.4040   50.2084  129.3299 C   0  0  0  0  0  0  0  0  0  0  0  0
    6.6898   51.2253  128.6987 O   0  0  0  0  0  0  0  0  0  0  0  0
    7.4568   48.9467  128.7886 C   0  0  0  0  0  0  0  0  0  0  0  0
    8.1720   47.9672  129.4398 C   0  0  0  0  0  0  0  0  0  0  0  0
    7.1204   51.8357  128.0128 H   0  0  0  0  0  0  0  0  0  0  0  0
   11.9402   44.4729  131.1818 C   0  0  0  0  0  0  0  0  0  0  0  0
   10.1646   42.7602  130.7598 C   0  0  0  0  0  0  0  0  0  0  0  0
   11.3496   43.4990  130.1846 C   0  0  0  0  0  0  0  0  0  0  0  0
 20 21  1  0  0  0
 21 19  1  0  0  0
 19  1  1  0  0  0
  1  2  1  0  0  0
  2  3  2  0  0  0
  3 11  1  0  0  0
 11 12  2  0  0  0
 12 13  1  0  0  0
 13 14  2  0  0  0
 14 15  1  0  0  0
 14 16  1  0  0  0
 16 17  2  0  0  0
  3  4  1  0  0  0
  4  5  2  0  0  0
  5  6  1  0  0  0
  6  7  2  0  0  0
  7  8  1  0  0  0
  8  9  1  0  0  0
  8 10  2  0  0  0
 10  1  1  0  0  0
 17 11  1  0  0  0
 10  4  1  0  0  0
 15 18  1  0  0  0
M  END
> <minimizedAffinity>
-8.84086

> <CNNscore>
0.8887854218

> <CNNaffinity>
7.7527136803

> <CNN_VS>
6.8904991150

> <CNNaffinity_variance>
0.5704692602

$$$$
[H]Oc1c([H])c([H])c(-c2nn(C([H])([H])C([H])([H])C([H])([H])[H])c3c(Cl)c([H])c([H])c([H])c23)c([H])c1[H]


 21 23  0  0  0  0  0  0  0  0999 V2000
    9.5641   45.1001  132.1603 N   0  0  0  0  0  0  0  0  0  0  0  0
    8.9184   46.2533  132.0004 N   0  0  0  0  0  0  0  0  0  0  0  0
    9.0303   46.7113  130.7609 C   0  0  0  0  0  0  0  0  0  0  0  0
    9.7839   45.8294  130.0560 C   0  0  0  0  0  0  0  0  0  0  0  0
   10.2273   45.7872  128.7348 C   0  0  0  0  0  0  0  0  0  0  0  0
   10.9953   44.7193  128.3528 C   0  0  0  0  0  0  0  0  0  0  0  0
   11.3343   43.7096  129.2162 C   0  0  0  0  0  0  0  0  0  0  0  0
   10.8829   43.7658  130.5365 C   0  0  0  0  0  0  0  0  0  0  0  0
   11.3028   42.4993  131.6639 Cl  0  0  0  0  0  0  0  0  0  0  0  0
   10.1136   44.8129  130.9613 C   0  0  0  0  0  0  0  0  0  0  0  0
    8.4333   47.9612  130.2732 C   0  0  0  0  0  0  0  0  0  0  0  0
    7.7193   47.9927  129.0941 C   0  0  0  0  0  0  0  0  0  0  0  0
    7.1621   49.1557  128.6272 C   0  0  0  0  0  0  0  0  0  0  0  0
    7.3253   50.3206  129.3632 C   0  0  0  0  0  0  0  0  0  0  0  0
    6.7580   51.5012  128.8867 O   0  0  0  0  0  0  0  0  0  0  0  0
    8.0340   50.3069  130.5401 C   0  0  0  0  0  0  0  0  0  0  0  0
    8.5802   49.1223  130.9800 C   0  0  0  0  0  0  0  0  0  0  0  0
    5.8163   51.7820  129.1375 H   0  0  0  0  0  0  0  0  0  0  0  0
    9.6010   44.3696  133.4018 C   0  0  0  0  0  0  0  0  0  0  0  0
   11.9551   44.9780  133.9950 C   0  0  0  0  0  0  0  0  0  0  0  0
   10.5029   45.0618  134.4013 C   0  0  0  0  0  0  0  0  0  0  0  0
 20 21  1  0  0  0
 21 19  1  0  0  0
 19  1  1  0  0  0
  1  2  1  0  0  0
  2  3  2  0  0  0
  3 11  1  0  0  0
 11 12  2  0  0  0
 12 13  1  0  0  0
 13 14  2  0  0  0
 14 15  1  0  0  0
 14 16  1  0  0  0
 16 17  2  0  0  0
  3  4  1  0  0  0
  4  5  2  0  0  0
  5  6  1  0  0  0
  6  7  2  0  0  0
  7  8  1  0  0  0
  8  9  1  0  0  0
  8 10  2  0  0  0
 10  1  1  0  0  0
 17 11  1  0  0  0
 10  4  1  0  0  0
 15 18  1  0  0  0
M  END
> <minimizedAffinity>
-9.12363

> <CNNscore>
0.8586211205

> <CNNaffinity>
7.6383829117

> <CNN_VS>
6.5584769249

> <CNNaffinity_variance>
0.4951466620

$$$$
[H]Oc1c([H])c([H])c(-c2nn(C([H])([H])C([H])([H])C([H])([H])[H])c3c(Cl)c([H])c([H])c([H])c23)c([H])c1[H]


 21 23  0  0  0  0  0  0  0  0999 V2000
    9.9223   43.5796  130.3621 N   0  0  0  0  0  0  0  0  0  0  0  0
   10.8909   44.3586  130.8389 N   0  0  0  0  0  0  0  0  0  0  0  0
   10.8761   44.4056  132.1641 C   0  0  0  0  0  0  0  0  0  0  0  0
    9.8537   43.6254  132.5985 C   0  0  0  0  0  0  0  0  0  0  0  0
    9.3636   43.3021  133.8630 C   0  0  0  0  0  0  0  0  0  0  0  0
    8.2828   42.4636  133.9337 C   0  0  0  0  0  0  0  0  0  0  0  0
    7.6803   41.9431  132.8176 C   0  0  0  0  0  0  0  0  0  0  0  0
    8.1823   42.2762  131.5578 C   0  0  0  0  0  0  0  0  0  0  0  0
    7.4335   41.6358  130.1154 Cl  0  0  0  0  0  0  0  0  0  0  0  0
    9.2596   43.1093  131.4399 C   0  0  0  0  0  0  0  0  0  0  0  0
   11.8150   45.1812  132.9848 C   0  0  0  0  0  0  0  0  0  0  0  0
   12.8745   45.8497  132.4089 C   0  0  0  0  0  0  0  0  0  0  0  0
   13.7600   46.5725  133.1668 C   0  0  0  0  0  0  0  0  0  0  0  0
   13.5784   46.6269  134.5414 C   0  0  0  0  0  0  0  0  0  0  0  0
   14.4795   47.3622  135.3094 O   0  0  0  0  0  0  0  0  0  0  0  0
   12.5280   45.9664  135.1313 C   0  0  0  0  0  0  0  0  0  0  0  0
   11.6578   45.2499  134.3412 C   0  0  0  0  0  0  0  0  0  0  0  0
   14.3331   48.3451  135.5117 H   0  0  0  0  0  0  0  0  0  0  0  0
    9.7103   43.3359  128.9578 C   0  0  0  0  0  0  0  0  0  0  0  0
   10.9192   44.1373  126.9181 C   0  0  0  0  0  0  0  0  0  0  0  0
   10.1262   44.5393  128.1389 C   0  0  0  0  0  0  0  0  0  0  0  0
 20 21  1  0  0  0
 21 19  1  0  0  0
 19  1  1  0  0  0
  1  2  1  0  0  0
  2  3  2  0  0  0
  3 11  1  0  0  0
 11 12  2  0  0  0
 12 13  1  0  0  0
 13 14  2  0  0  0
 14 15  1  0  0  0
 14 16  1  0  0  0
 16 17  2  0  0  0
  3  4  1  0  0  0
  4  5  2  0  0  0
  5  6  1  0  0  0
  6  7  2  0  0  0
  7  8  1  0  0  0
  8  9  1  0  0  0
  8 10  2  0  0  0
 10  1  1  0  0  0
 17 11  1  0  0  0
 10  4  1  0  0  0
 15 18  1  0  0  0
M  END
> <minimizedAffinity>
12.06196

> <CNNscore>
0.2922309339

> <CNNaffinity>
6.3781752586

> <CNN_VS>
1.8639000654

> <CNNaffinity_variance>
2.1050682068

$$$$
[H]Oc1c([H])c([H])c(-c2nn(C([H])([H])C([H])([H])C([H])([H])[H])c3c(Cl)c([H])c([H])c([H])c23)c([H])c1[H]


 21 23  0  0  0  0  0  0  0  0999 V2000
   10.5138   47.4338  132.4288 N   0  0  0  0  0  0  0  0  0  0  0  0
   10.0617   46.9456  131.2757 N   0  0  0  0  0  0  0  0  0  0  0  0
   10.4438   45.6893  131.0905 C   0  0  0  0  0  0  0  0  0  0  0  0
   11.1852   45.3154  132.1642 C   0  0  0  0  0  0  0  0  0  0  0  0
   11.8396   44.1351  132.5146 C   0  0  0  0  0  0  0  0  0  0  0  0
   12.5154   44.1091  133.7057 C   0  0  0  0  0  0  0  0  0  0  0  0
   12.5660   45.1900  134.5476 C   0  0  0  0  0  0  0  0  0  0  0  0
   11.9058   46.3654  134.1830 C   0  0  0  0  0  0  0  0  0  0  0  0
   11.9565   47.7631  135.2296 Cl  0  0  0  0  0  0  0  0  0  0  0  0
   11.2187   46.4362  133.0034 C   0  0  0  0  0  0  0  0  0  0  0  0
   10.1081   44.8771  129.9140 C   0  0  0  0  0  0  0  0  0  0  0  0
   10.9406   44.8432  128.8154 C   0  0  0  0  0  0  0  0  0  0  0  0
   10.6339   44.0920  127.7096 C   0  0  0  0  0  0  0  0  0  0  0  0
    9.4591   43.3537  127.7047 C   0  0  0  0  0  0  0  0  0  0  0  0
    9.1497   42.5911  126.5799 O   0  0  0  0  0  0  0  0  0  0  0  0
    8.6183   43.3764  128.7910 C   0  0  0  0  0  0  0  0  0  0  0  0
    8.9563   44.1411  129.8847 C   0  0  0  0  0  0  0  0  0  0  0  0
    9.4511   41.6272  126.4871 H   0  0  0  0  0  0  0  0  0  0  0  0
   10.2410   48.7701  132.8935 C   0  0  0  0  0  0  0  0  0  0  0  0
    8.5413   47.3863  134.1018 C   0  0  0  0  0  0  0  0  0  0  0  0
    9.0235   48.7838  133.7930 C   0  0  0  0  0  0  0  0  0  0  0  0
 20 21  1  0  0  0
 21 19  1  0  0  0
 19  1  1  0  0  0
  1  2  1  0  0  0
  2  3  2  0  0  0
  3 11  1  0  0  0
 11 12  2  0  0  0
 12 13  1  0  0  0
 13 14  2  0  0  0
 14 15  1  0  0  0
 14 16  1  0  0  0
 16 17  2  0  0  0
  3  4  1  0  0  0
  4  5  2  0  0  0
  5  6  1  0  0  0
  6  7  2  0  0  0
  7  8  1  0  0  0
  8  9  1  0  0  0
  8 10  2  0  0  0
 10  1  1  0  0  0
 17 11  1  0  0  0
 10  4  1  0  0  0
 15 18  1  0  0  0
M  END
> <minimizedAffinity>
-0.19967

> <CNNscore>
0.2685104609

> <CNNaffinity>
6.4654607773

> <CNN_VS>
1.7360438108

> <CNNaffinity_variance>
0.8809870481

$$$$
[H]Oc1c([H])c([H])c(-c2nn(C([H])([H])C([H])([H])C([H])([H])[H])c3c(Cl)c([H])c([H])c([H])c23)c([H])c1[H]


 21 23  0  0  0  0  0  0  0  0999 V2000
    7.9020   47.6622  129.3948 N   0  0  0  0  0  0  0  0  0  0  0  0
    8.2991   46.4001  129.5426 N   0  0  0  0  0  0  0  0  0  0  0  0
    9.1119   46.2593  130.5809 C   0  0  0  0  0  0  0  0  0  0  0  0
    9.2694   47.4783  131.1568 C   0  0  0  0  0  0  0  0  0  0  0  0
    9.9968   47.9338  132.2556 C   0  0  0  0  0  0  0  0  0  0  0  0
    9.9269   49.2677  132.5590 C   0  0  0  0  0  0  0  0  0  0  0  0
    9.1764   50.1512  131.8270 C   0  0  0  0  0  0  0  0  0  0  0  0
    8.4534   49.6802  130.7290 C   0  0  0  0  0  0  0  0  0  0  0  0
    7.4929   50.7807  129.7710 Cl  0  0  0  0  0  0  0  0  0  0  0  0
    8.4935   48.3566  130.3898 C   0  0  0  0  0  0  0  0  0  0  0  0
    9.7204   44.9906  131.0016 C   0  0  0  0  0  0  0  0  0  0  0  0
   10.9581   44.6075  130.5299 C   0  0  0  0  0  0  0  0  0  0  0  0
   11.5329   43.4225  130.9124 C   0  0  0  0  0  0  0  0  0  0  0  0
   10.8475   42.5977  131.7929 C   0  0  0  0  0  0  0  0  0  0  0  0
   11.4337   41.3939  132.1802 O   0  0  0  0  0  0  0  0  0  0  0  0
    9.6132   42.9641  132.2722 C   0  0  0  0  0  0  0  0  0  0  0  0
    9.0650   44.1604  131.8679 C   0  0  0  0  0  0  0  0  0  0  0  0
   12.0352   41.3289  132.9942 H   0  0  0  0  0  0  0  0  0  0  0  0
    7.0054   48.1021  128.3561 C   0  0  0  0  0  0  0  0  0  0  0  0
    5.1090   46.9769  129.5400 C   0  0  0  0  0  0  0  0  0  0  0  0
    5.5983   48.2514  128.8942 C   0  0  0  0  0  0  0  0  0  0  0  0
 20 21  1  0  0  0
 21 19  1  0  0  0
 19  1  1  0  0  0
  1  2  1  0  0  0
  2  3  2  0  0  0
  3 11  1  0  0  0
 11 12  2  0  0  0
 12 13  1  0  0  0
 13 14  2  0  0  0
 14 15  1  0  0  0
 14 16  1  0  0  0
 16 17  2  0  0  0
  3  4  1  0  0  0
  4  5  2  0  0  0
  5  6  1  0  0  0
  6  7  2  0  0  0
  7  8  1  0  0  0
  8  9  1  0  0  0
  8 10  2  0  0  0
 10  1  1  0  0  0
 17 11  1  0  0  0
 10  4  1  0  0  0
 15 18  1  0  0  0
M  END
> <minimizedAffinity>
-7.85065

> <CNNscore>
0.2050010264

> <CNNaffinity>
6.6892418861

> <CNN_VS>
1.3713014126

> <CNNaffinity_variance>
0.0898445845

$$$$
[H]Oc1c([H])c([H])c(-c2nn(C([H])([H])C([H])([H])C([H])([H])[H])c3c(Cl)c([H])c([H])c([H])c23)c([H])c1[H]


 21 23  0  0  0  0  0  0  0  0999 V2000
    8.9913   44.1138  131.6886 N   0  0  0  0  0  0  0  0  0  0  0  0
    8.8462   45.3669  132.1141 N   0  0  0  0  0  0  0  0  0  0  0  0
    9.2475   46.2442  131.2043 C   0  0  0  0  0  0  0  0  0  0  0  0
    9.6817   45.5528  130.1199 C   0  0  0  0  0  0  0  0  0  0  0  0
   10.2086   45.9339  128.8866 C   0  0  0  0  0  0  0  0  0  0  0  0
   10.5534   44.9432  128.0059 C   0  0  0  0  0  0  0  0  0  0  0  0
   10.3984   43.6124  128.2969 C   0  0  0  0  0  0  0  0  0  0  0  0
    9.8695   43.2460  129.5363 C   0  0  0  0  0  0  0  0  0  0  0  0
    9.6657   41.5591  129.9414 Cl  0  0  0  0  0  0  0  0  0  0  0  0
    9.5113   44.2014  130.4460 C   0  0  0  0  0  0  0  0  0  0  0  0
    9.2170   47.7023  131.3768 C   0  0  0  0  0  0  0  0  0  0  0  0
    8.4701   48.4999  130.5359 C   0  0  0  0  0  0  0  0  0  0  0  0
    8.4388   49.8629  130.6851 C   0  0  0  0  0  0  0  0  0  0  0  0
    9.1773   50.4432  131.7065 C   0  0  0  0  0  0  0  0  0  0  0  0
    9.1439   51.8285  131.8562 O   0  0  0  0  0  0  0  0  0  0  0  0
    9.9271   49.6631  132.5532 C   0  0  0  0  0  0  0  0  0  0  0  0
    9.9362   48.2980  132.3753 C   0  0  0  0  0  0  0  0  0  0  0  0
    8.4559   52.2870  132.4436 H   0  0  0  0  0  0  0  0  0  0  0  0
    8.6244   42.9575  132.4662 C   0  0  0  0  0  0  0  0  0  0  0  0
   10.7055   43.5649  133.7168 C   0  0  0  0  0  0  0  0  0  0  0  0
    9.8141   42.4402  133.2464 C   0  0  0  0  0  0  0  0  0  0  0  0
 20 21  1  0  0  0
 21 19  1  0  0  0
 19  1  1  0  0  0
  1  2  1  0  0  0
  2  3  2  0  0  0
  3 11  1  0  0  0
 11 12  2  0  0  0
 12 13  1  0  0  0
 13 14  2  0  0  0
 14 15  1  0  0  0
 14 16  1  0  0  0
 16 17  2  0  0  0
  3  4  1  0  0  0
  4  5  2  0  0  0
  5  6  1  0  0  0
  6  7  2  0  0  0
  7  8  1  0  0  0
  8  9  1  0  0  0
  8 10  2  0  0  0
 10  1  1  0  0  0
 17 11  1  0  0  0
 10  4  1  0  0  0
 15 18  1  0  0  0
M  END
> <minimizedAffinity>
-5.06693

> <CNNscore>
0.1997320205

> <CNNaffinity>
6.8191337585

> <CNN_VS>
1.3619993925

> <CNNaffinity_variance>
0.6826887727

$$$$
[H]Oc1c([H])c([H])c(-c2nn(C([H])([H])C([H])([H])C([H])([H])[H])c3c(Cl)c([H])c([H])c([H])c23)c([H])c1[H]


 21 23  0  0  0  0  0  0  0  0999 V2000
    7.2538   47.1555  130.3995 N   0  0  0  0  0  0  0  0  0  0  0  0
    7.9579   46.0481  130.6236 N   0  0  0  0  0  0  0  0  0  0  0  0
    9.1210   46.3140  131.2024 C   0  0  0  0  0  0  0  0  0  0  0  0
    9.2042   47.6577  131.3753 C   0  0  0  0  0  0  0  0  0  0  0  0
   10.1767   48.4973  131.9170 C   0  0  0  0  0  0  0  0  0  0  0  0
    9.9241   49.8435  131.9276 C   0  0  0  0  0  0  0  0  0  0  0  0
    8.7643   50.3791  131.4299 C   0  0  0  0  0  0  0  0  0  0  0  0
    7.7996   49.5257  130.8903 C   0  0  0  0  0  0  0  0  0  0  0  0
    6.3140   50.1764  130.2415 Cl  0  0  0  0  0  0  0  0  0  0  0  0
    8.0093   48.1752  130.8594 C   0  0  0  0  0  0  0  0  0  0  0  0
   10.1216   45.3051  131.5731 C   0  0  0  0  0  0  0  0  0  0  0  0
    9.8976   44.4360  132.6198 C   0  0  0  0  0  0  0  0  0  0  0  0
   10.8277   43.4936  132.9774 C   0  0  0  0  0  0  0  0  0  0  0  0
   12.0164   43.4200  132.2654 C   0  0  0  0  0  0  0  0  0  0  0  0
   12.9599   42.4614  132.6306 O   0  0  0  0  0  0  0  0  0  0  0  0
   12.2556   44.2785  131.2197 C   0  0  0  0  0  0  0  0  0  0  0  0
   11.3007   45.2127  130.8873 C   0  0  0  0  0  0  0  0  0  0  0  0
   12.9617   41.5310  132.2269 H   0  0  0  0  0  0  0  0  0  0  0  0
    5.9466   47.1634  129.7934 C   0  0  0  0  0  0  0  0  0  0  0  0
    7.4312   48.0536  127.9857 C   0  0  0  0  0  0  0  0  0  0  0  0
    6.0134   47.7244  128.3889 C   0  0  0  0  0  0  0  0  0  0  0  0
 20 21  1  0  0  0
 21 19  1  0  0  0
 19  1  1  0  0  0
  1  2  1  0  0  0
  2  3  2  0  0  0
  3 11  1  0  0  0
 11 12  2  0  0  0
 12 13  1  0  0  0
 13 14  2  0  0  0
 14 15  1  0  0  0
 14 16  1  0  0  0
 16 17  2  0  0  0
  3  4  1  0  0  0
  4  5  2  0  0  0
  5  6  1  0  0  0
  6  7  2  0  0  0
  7  8  1  0  0  0
  8  9  1  0  0  0
  8 10  2  0  0  0
 10  1  1  0  0  0
 17 11  1  0  0  0
 10  4  1  0  0  0
 15 18  1  0  0  0
M  END
> <minimizedAffinity>
-6.86503

> <CNNscore>
0.1357063651

> <CNNaffinity>
6.6095757484

> <CNN_VS>
0.8969615102

> <CNNaffinity_variance>
0.0808385611

$$$$
[H]Oc1c([H])c([H])c(-c2sc3c([H])c(O[H])c([H])c([H])c3c2Oc2c([H])c([H])c(/C([H])=C(\[H])c3nnn(C([H])([H])[H])n3)c([H])c2[H])c([H])c1[H]


 34 38  0  0  0  0  0  0  0  0999 V2000
    8.3613   46.9950  131.1207 C   0  0  0  0  0  0  0  0  0  0  0  0
    9.3719   47.0898  132.0105 C   0  0  0  0  0  0  0  0  0  0  0  0
    9.7212   48.7887  131.9816 S   0  0  0  0  0  0  0  0  0  0  0  0
    8.5618   49.2849  130.8430 C   0  0  0  0  0  0  0  0  0  0  0  0
    8.2471   50.5282  130.3127 C   0  0  0  0  0  0  0  0  0  0  0  0
    7.2246   50.6374  129.3747 C   0  0  0  0  0  0  0  0  0  0  0  0
    6.8483   51.8287  128.7994 O   0  0  0  0  0  0  0  0  0  0  0  0
    6.5948   49.4795  129.0416 C   0  0  0  0  0  0  0  0  0  0  0  0
    6.9063   48.2706  129.5621 C   0  0  0  0  0  0  0  0  0  0  0  0
    7.9303   48.1137  130.5111 C   0  0  0  0  0  0  0  0  0  0  0  0
    6.1376   52.4275  129.1968 H   0  0  0  0  0  0  0  0  0  0  0  0
   10.1092   46.1504  132.8542 C   0  0  0  0  0  0  0  0  0  0  0  0
    9.5969   45.8093  134.1060 C   0  0  0  0  0  0  0  0  0  0  0  0
   10.2016   44.9225  134.9362 C   0  0  0  0  0  0  0  0  0  0  0  0
   11.3640   44.3181  134.5625 C   0  0  0  0  0  0  0  0  0  0  0  0
   11.9998   43.3993  135.4121 O   0  0  0  0  0  0  0  0  0  0  0  0
   11.8998   44.6232  133.3446 C   0  0  0  0  0  0  0  0  0  0  0  0
   11.2811   45.5338  132.4883 C   0  0  0  0  0  0  0  0  0  0  0  0
   12.6796   43.8263  136.0567 H   0  0  0  0  0  0  0  0  0  0  0  0
    7.7941   45.7227  130.8537 O   0  0  0  0  0  0  0  0  0  0  0  0
    9.7884   42.9884  128.4820 C   0  0  0  0  0  0  0  0  0  0  0  0
    9.1291   42.5250  129.6329 C   0  0  0  0  0  0  0  0  0  0  0  0
    8.4777   43.4687  130.3941 C   0  0  0  0  0  0  0  0  0  0  0  0
    8.4595   44.7959  130.0662 C   0  0  0  0  0  0  0  0  0  0  0  0
    9.1046   45.2134  128.9497 C   0  0  0  0  0  0  0  0  0  0  0  0
    9.7707   44.3230  128.1515 C   0  0  0  0  0  0  0  0  0  0  0  0
    9.8468   40.9113  127.2348 C   0  0  0  0  0  0  0  0  0  0  0  0
   10.4700   41.9751  127.6927 C   0  0  0  0  0  0  0  0  0  0  0  0
   13.3479   37.7970  125.7300 C   0  0  0  0  0  0  0  0  0  0  0  0
   12.0903   38.5442  125.8158 N   0  0  0  0  0  0  0  0  0  0  0  0
   11.0755   38.4079  124.9799 N   0  0  0  0  0  0  0  0  0  0  0  0
   10.1081   39.2401  125.3611 N   0  0  0  0  0  0  0  0  0  0  0  0
   10.5350   39.8914  126.4398 C   0  0  0  0  0  0  0  0  0  0  0  0
   11.7659   39.4455  126.7053 N   0  0  0  0  0  0  0  0  0  0  0  0
 29 30  1  0  0  0
 30 31  1  0  0  0
 31 32  2  0  0  0
 32 33  1  0  0  0
 33 27  1  0  0  0
 27 28  2  0  0  0
 28 21  1  0  0  0
 21 22  2  0  0  0
 22 23  1  0  0  0
 23 24  2  0  0  0
 24 20  1  0  0  0
 20  1  1  0  0  0
  1  2  2  0  0  0
  2  3  1  0  0  0
  3  4  1  0  0  0
  4  5  2  0  0  0
  5  6  1  0  0  0
  6  7  1  0  0  0
  6  8  2  0  0  0
  8  9  1  0  0  0
  9 10  2  0  0  0
  2 12  1  0  0  0
 12 13  2  0  0  0
 13 14  1  0  0  0
 14 15  2  0  0  0
 15 16  1  0  0  0
 15 17  1  0  0  0
 17 18  2  0  0  0
 24 25  1  0  0  0
 25 26  2  0  0  0
 33 34  2  0  0  0
 34 30  1  0  0  0
 26 21  1  0  0  0
 10  1  1  0  0  0
 18 12  1  0  0  0
 10  4  1  0  0  0
  7 11  1  0  0  0
 16 19  1  0  0  0
M  END
> <minimizedAffinity>
8.37236

> <CNNscore>
0.5617834330

> <CNNaffinity>
8.3620471954

> <CNN_VS>
4.6976594925

> <CNNaffinity_variance>
1.8276627064

$$$$
[H]Oc1c([H])c([H])c(-c2sc3c([H])c(O[H])c([H])c([H])c3c2Oc2c([H])c([H])c(/C([H])=C(\[H])c3nnn(C([H])([H])[H])n3)c([H])c2[H])c([H])c1[H]


 34 38  0  0  0  0  0  0  0  0999 V2000
    9.9772   44.3430  131.9698 C   0  0  0  0  0  0  0  0  0  0  0  0
    9.6128   43.5113  132.9687 C   0  0  0  0  0  0  0  0  0  0  0  0
   10.9429   43.6659  134.0715 S   0  0  0  0  0  0  0  0  0  0  0  0
   11.8866   44.7811  133.2039 C   0  0  0  0  0  0  0  0  0  0  0  0
   13.1099   45.3781  133.4744 C   0  0  0  0  0  0  0  0  0  0  0  0
   13.6554   46.2745  132.5599 C   0  0  0  0  0  0  0  0  0  0  0  0
   14.8605   46.9100  132.7485 O   0  0  0  0  0  0  0  0  0  0  0  0
   12.9225   46.5011  131.4375 C   0  0  0  0  0  0  0  0  0  0  0  0
   11.7307   45.9159  131.1796 C   0  0  0  0  0  0  0  0  0  0  0  0
   11.1429   45.0057  132.0738 C   0  0  0  0  0  0  0  0  0  0  0  0
   14.9404   47.8038  133.2137 H   0  0  0  0  0  0  0  0  0  0  0  0
    8.4717   42.6360  133.2319 C   0  0  0  0  0  0  0  0  0  0  0  0
    8.4080   41.9412  134.4398 C   0  0  0  0  0  0  0  0  0  0  0  0
    7.3699   41.1343  134.7754 C   0  0  0  0  0  0  0  0  0  0  0  0
    6.3243   40.9719  133.9172 C   0  0  0  0  0  0  0  0  0  0  0  0
    5.2445   40.1398  134.2520 O   0  0  0  0  0  0  0  0  0  0  0  0
    6.3462   41.6343  132.7238 C   0  0  0  0  0  0  0  0  0  0  0  0
    7.4111   42.4648  132.3755 C   0  0  0  0  0  0  0  0  0  0  0  0
    5.3622   39.1612  133.9544 H   0  0  0  0  0  0  0  0  0  0  0  0
    9.1254   44.4847  130.8446 O   0  0  0  0  0  0  0  0  0  0  0  0
    7.5593   48.1568  129.7761 C   0  0  0  0  0  0  0  0  0  0  0  0
    8.8302   48.1164  130.3739 C   0  0  0  0  0  0  0  0  0  0  0  0
    9.3138   46.8735  130.7138 C   0  0  0  0  0  0  0  0  0  0  0  0
    8.6108   45.7224  130.4906 C   0  0  0  0  0  0  0  0  0  0  0  0
    7.3871   45.7927  129.9122 C   0  0  0  0  0  0  0  0  0  0  0  0
    6.8514   46.9996  129.5513 C   0  0  0  0  0  0  0  0  0  0  0  0
    7.8230   50.3650  128.8131 C   0  0  0  0  0  0  0  0  0  0  0  0
    7.0675   49.4794  129.4251 C   0  0  0  0  0  0  0  0  0  0  0  0
    7.1029   54.5120  126.2627 C   0  0  0  0  0  0  0  0  0  0  0  0
    7.0378   53.4933  127.3140 N   0  0  0  0  0  0  0  0  0  0  0  0
    6.3412   53.6085  128.4314 N   0  0  0  0  0  0  0  0  0  0  0  0
    6.5155   52.4984  129.1463 N   0  0  0  0  0  0  0  0  0  0  0  0
    7.3261   51.6971  128.4602 C   0  0  0  0  0  0  0  0  0  0  0  0
    7.6385   52.3323  127.3273 N   0  0  0  0  0  0  0  0  0  0  0  0
 29 30  1  0  0  0
 30 31  1  0  0  0
 31 32  2  0  0  0
 32 33  1  0  0  0
 33 27  1  0  0  0
 27 28  2  0  0  0
 28 21  1  0  0  0
 21 22  2  0  0  0
 22 23  1  0  0  0
 23 24  2  0  0  0
 24 20  1  0  0  0
 20  1  1  0  0  0
  1  2  2  0  0  0
  2  3  1  0  0  0
  3  4  1  0  0  0
  4  5  2  0  0  0
  5  6  1  0  0  0
  6  7  1  0  0  0
  6  8  2  0  0  0
  8  9  1  0  0  0
  9 10  2  0  0  0
  2 12  1  0  0  0
 12 13  2  0  0  0
 13 14  1  0  0  0
 14 15  2  0  0  0
 15 16  1  0  0  0
 15 17  1  0  0  0
 17 18  2  0  0  0
 24 25  1  0  0  0
 25 26  2  0  0  0
 33 34  2  0  0  0
 34 30  1  0  0  0
 26 21  1  0  0  0
 10  1  1  0  0  0
 18 12  1  0  0  0
 10  4  1  0  0  0
  7 11  1  0  0  0
 16 19  1  0  0  0
M  END
> <minimizedAffinity>
19.94177

> <CNNscore>
0.4907810986

> <CNNaffinity>
7.7592558861

> <CNN_VS>
3.8080961704

> <CNNaffinity_variance>
2.1032080650

$$$$
[H]Oc1c([H])c([H])c(-c2sc3c([H])c(O[H])c([H])c([H])c3c2Oc2c([H])c([H])c(/C([H])=C(\[H])c3nnn(C([H])([H])[H])n3)c([H])c2[H])c([H])c1[H]


 34 38  0  0  0  0  0  0  0  0999 V2000
    8.8438   46.2681  131.7523 C   0  0  0  0  0  0  0  0  0  0  0  0
    8.9198   47.6154  131.7832 C   0  0  0  0  0  0  0  0  0  0  0  0
    9.8937   47.8906  133.1921 S   0  0  0  0  0  0  0  0  0  0  0  0
   10.1530   46.2785  133.6620 C   0  0  0  0  0  0  0  0  0  0  0  0
   10.8552   45.7158  134.7185 C   0  0  0  0  0  0  0  0  0  0  0  0
   10.8971   44.3315  134.8574 C   0  0  0  0  0  0  0  0  0  0  0  0
   11.5685   43.6919  135.8732 O   0  0  0  0  0  0  0  0  0  0  0  0
   10.2245   43.6172  133.9162 C   0  0  0  0  0  0  0  0  0  0  0  0
    9.5417   44.1717  132.8887 C   0  0  0  0  0  0  0  0  0  0  0  0
    9.4728   45.5634  132.7097 C   0  0  0  0  0  0  0  0  0  0  0  0
   12.5362   43.4106  135.7969 H   0  0  0  0  0  0  0  0  0  0  0  0
    8.3967   48.7079  130.9643 C   0  0  0  0  0  0  0  0  0  0  0  0
    7.8039   48.4172  129.7355 C   0  0  0  0  0  0  0  0  0  0  0  0
    7.2661   49.3678  128.9302 C   0  0  0  0  0  0  0  0  0  0  0  0
    7.2883   50.6767  129.3074 C   0  0  0  0  0  0  0  0  0  0  0  0
    6.7358   51.6698  128.4835 O   0  0  0  0  0  0  0  0  0  0  0  0
    7.8587   51.0051  130.5033 C   0  0  0  0  0  0  0  0  0  0  0  0
    8.4121   50.0310  131.3339 C   0  0  0  0  0  0  0  0  0  0  0  0
    7.4024   52.0747  127.8114 H   0  0  0  0  0  0  0  0  0  0  0  0
    8.1001   45.6425  130.7191 O   0  0  0  0  0  0  0  0  0  0  0  0
    9.9070   42.9850  128.1208 C   0  0  0  0  0  0  0  0  0  0  0  0
    9.0397   42.4794  129.1037 C   0  0  0  0  0  0  0  0  0  0  0  0
    8.4595   43.3986  129.9479 C   0  0  0  0  0  0  0  0  0  0  0  0
    8.7002   44.7412  129.8535 C   0  0  0  0  0  0  0  0  0  0  0  0
    9.5417   45.1996  128.8950 C   0  0  0  0  0  0  0  0  0  0  0  0
   10.1497   44.3351  128.0251 C   0  0  0  0  0  0  0  0  0  0  0  0
   10.1534   40.7312  127.2650 C   0  0  0  0  0  0  0  0  0  0  0  0
   10.5090   41.9971  127.2400 C   0  0  0  0  0  0  0  0  0  0  0  0
   13.5361   37.7865  125.2385 C   0  0  0  0  0  0  0  0  0  0  0  0
   12.2688   38.4659  125.5204 N   0  0  0  0  0  0  0  0  0  0  0  0
   11.1421   38.2611  124.8602 N   0  0  0  0  0  0  0  0  0  0  0  0
   10.2034   39.0460  125.3862 N   0  0  0  0  0  0  0  0  0  0  0  0
   10.7609   39.7370  126.3770 C   0  0  0  0  0  0  0  0  0  0  0  0
   12.0415   39.3628  126.4439 N   0  0  0  0  0  0  0  0  0  0  0  0
 29 30  1  0  0  0
 30 31  1  0  0  0
 31 32  2  0  0  0
 32 33  1  0  0  0
 33 27  1  0  0  0
 27 28  2  0  0  0
 28 21  1  0  0  0
 21 22  2  0  0  0
 22 23  1  0  0  0
 23 24  2  0  0  0
 24 20  1  0  0  0
 20  1  1  0  0  0
  1  2  2  0  0  0
  2  3  1  0  0  0
  3  4  1  0  0  0
  4  5  2  0  0  0
  5  6  1  0  0  0
  6  7  1  0  0  0
  6  8  2  0  0  0
  8  9  1  0  0  0
  9 10  2  0  0  0
  2 12  1  0  0  0
 12 13  2  0  0  0
 13 14  1  0  0  0
 14 15  2  0  0  0
 15 16  1  0  0  0
 15 17  1  0  0  0
 17 18  2  0  0  0
 24 25  1  0  0  0
 25 26  2  0  0  0
 33 34  2  0  0  0
 34 30  1  0  0  0
 26 21  1  0  0  0
 10  1  1  0  0  0
 18 12  1  0  0  0
 10  4  1  0  0  0
  7 11  1  0  0  0
 16 19  1  0  0  0
M  END
> <minimizedAffinity>
10.45944

> <CNNscore>
0.4793566763

> <CNNaffinity>
7.8681349754

> <CNN_VS>
3.7716429234

> <CNNaffinity_variance>
1.3151055574

$$$$
[H]Oc1c([H])c([H])c(-c2sc3c([H])c(O[H])c([H])c([H])c3c2Oc2c([H])c([H])c(/C([H])=C(\[H])c3nnn(C([H])([H])[H])n3)c([H])c2[H])c([H])c1[H]


 34 38  0  0  0  0  0  0  0  0999 V2000
    9.9986   46.8440  131.7310 C   0  0  0  0  0  0  0  0  0  0  0  0
    9.0746   47.8112  131.9126 C   0  0  0  0  0  0  0  0  0  0  0  0
    8.7152   47.6556  133.6024 S   0  0  0  0  0  0  0  0  0  0  0  0
    9.7610   46.3724  133.9854 C   0  0  0  0  0  0  0  0  0  0  0  0
   10.0184   45.7007  135.1722 C   0  0  0  0  0  0  0  0  0  0  0  0
   10.9486   44.6655  135.1893 C   0  0  0  0  0  0  0  0  0  0  0  0
   11.2635   43.9484  136.3199 O   0  0  0  0  0  0  0  0  0  0  0  0
   11.5508   44.3854  134.0029 C   0  0  0  0  0  0  0  0  0  0  0  0
   11.2954   45.0438  132.8494 C   0  0  0  0  0  0  0  0  0  0  0  0
   10.3651   46.0946  132.7860 C   0  0  0  0  0  0  0  0  0  0  0  0
   12.0049   44.2199  136.9508 H   0  0  0  0  0  0  0  0  0  0  0  0
    8.4241   48.8044  131.0592 C   0  0  0  0  0  0  0  0  0  0  0  0
    8.2084   48.5118  129.7125 C   0  0  0  0  0  0  0  0  0  0  0  0
    7.5841   49.3641  128.8610 C   0  0  0  0  0  0  0  0  0  0  0  0
    7.1340   50.5699  129.3074 C   0  0  0  0  0  0  0  0  0  0  0  0
    6.4870   51.4609  128.4369 O   0  0  0  0  0  0  0  0  0  0  0  0
    7.3240   50.8962  130.6193 C   0  0  0  0  0  0  0  0  0  0  0  0
    7.9648   50.0227  131.4977 C   0  0  0  0  0  0  0  0  0  0  0  0
    7.1224   52.1161  127.9604 H   0  0  0  0  0  0  0  0  0  0  0  0
   10.5451   46.6459  130.4372 O   0  0  0  0  0  0  0  0  0  0  0  0
   10.2356   42.9719  128.5706 C   0  0  0  0  0  0  0  0  0  0  0  0
   11.2682   43.8401  128.1784 C   0  0  0  0  0  0  0  0  0  0  0  0
   11.3349   45.0530  128.8254 C   0  0  0  0  0  0  0  0  0  0  0  0
   10.4517   45.4163  129.8038 C   0  0  0  0  0  0  0  0  0  0  0  0
    9.4657   44.5577  130.1611 C   0  0  0  0  0  0  0  0  0  0  0  0
    9.3467   43.3364  129.5545 C   0  0  0  0  0  0  0  0  0  0  0  0
   11.0353   41.3860  126.9219 C   0  0  0  0  0  0  0  0  0  0  0  0
   10.1834   41.6964  127.8745 C   0  0  0  0  0  0  0  0  0  0  0  0
    9.7693   37.9613  123.6220 C   0  0  0  0  0  0  0  0  0  0  0  0
   10.4016   38.6337  124.7601 N   0  0  0  0  0  0  0  0  0  0  0  0
   11.2650   38.0663  125.5845 N   0  0  0  0  0  0  0  0  0  0  0  0
   11.6283   38.9702  126.4928 N   0  0  0  0  0  0  0  0  0  0  0  0
   10.9814   40.1005  126.2214 C   0  0  0  0  0  0  0  0  0  0  0  0
   10.2261   39.8710  125.1438 N   0  0  0  0  0  0  0  0  0  0  0  0
 29 30  1  0  0  0
 30 31  1  0  0  0
 31 32  2  0  0  0
 32 33  1  0  0  0
 33 27  1  0  0  0
 27 28  2  0  0  0
 28 21  1  0  0  0
 21 22  2  0  0  0
 22 23  1  0  0  0
 23 24  2  0  0  0
 24 20  1  0  0  0
 20  1  1  0  0  0
  1  2  2  0  0  0
  2  3  1  0  0  0
  3  4  1  0  0  0
  4  5  2  0  0  0
  5  6  1  0  0  0
  6  7  1  0  0  0
  6  8  2  0  0  0
  8  9  1  0  0  0
  9 10  2  0  0  0
  2 12  1  0  0  0
 12 13  2  0  0  0
 13 14  1  0  0  0
 14 15  2  0  0  0
 15 16  1  0  0  0
 15 17  1  0  0  0
 17 18  2  0  0  0
 24 25  1  0  0  0
 25 26  2  0  0  0
 33 34  2  0  0  0
 34 30  1  0  0  0
 26 21  1  0  0  0
 10  1  1  0  0  0
 18 12  1  0  0  0
 10  4  1  0  0  0
  7 11  1  0  0  0
 16 19  1  0  0  0
M  END
> <minimizedAffinity>
14.11657

> <CNNscore>
0.4792740941

> <CNNaffinity>
7.7330741882

> <CNN_VS>
3.7062621117

> <CNNaffinity_variance>
1.1055005789

$$$$
[H]Oc1c([H])c([H])c(-c2sc3c([H])c(O[H])c([H])c([H])c3c2Oc2c([H])c([H])c(/C([H])=C(\[H])c3nnn(C([H])([H])[H])n3)c([H])c2[H])c([H])c1[H]


 34 38  0  0  0  0  0  0  0  0999 V2000
    9.6188   43.4503  132.1255 C   0  0  0  0  0  0  0  0  0  0  0  0
    9.2559   43.6236  130.8370 C   0  0  0  0  0  0  0  0  0  0  0  0
    7.8439   42.6227  130.7209 S   0  0  0  0  0  0  0  0  0  0  0  0
    7.7909   42.0420  132.3169 C   0  0  0  0  0  0  0  0  0  0  0  0
    6.9192   41.1804  132.9679 C   0  0  0  0  0  0  0  0  0  0  0  0
    7.1261   40.8772  134.3105 C   0  0  0  0  0  0  0  0  0  0  0  0
    6.3123   40.0345  135.0311 O   0  0  0  0  0  0  0  0  0  0  0  0
    8.2010   41.4686  134.8965 C   0  0  0  0  0  0  0  0  0  0  0  0
    9.0470   42.3074  134.2563 C   0  0  0  0  0  0  0  0  0  0  0  0
    8.8765   42.6413  132.9025 C   0  0  0  0  0  0  0  0  0  0  0  0
    5.5030   40.3602  135.5417 H   0  0  0  0  0  0  0  0  0  0  0  0
    9.7743   44.3853  129.7017 C   0  0  0  0  0  0  0  0  0  0  0  0
   10.4519   43.7163  128.6824 C   0  0  0  0  0  0  0  0  0  0  0  0
   10.9360   44.3430  127.5805 C   0  0  0  0  0  0  0  0  0  0  0  0
   10.7708   45.6869  127.4295 C   0  0  0  0  0  0  0  0  0  0  0  0
   11.2671   46.3473  126.2946 O   0  0  0  0  0  0  0  0  0  0  0  0
   10.1126   46.3804  128.4038 C   0  0  0  0  0  0  0  0  0  0  0  0
    9.6132   45.7398  129.5376 C   0  0  0  0  0  0  0  0  0  0  0  0
   12.2307   46.6944  126.4003 H   0  0  0  0  0  0  0  0  0  0  0  0
   10.7704   44.1189  132.6140 O   0  0  0  0  0  0  0  0  0  0  0  0
   10.7266   48.1657  133.4505 C   0  0  0  0  0  0  0  0  0  0  0  0
    9.5477   47.5640  132.9794 C   0  0  0  0  0  0  0  0  0  0  0  0
    9.6061   46.2149  132.7133 C   0  0  0  0  0  0  0  0  0  0  0  0
   10.7432   45.4769  132.8911 C   0  0  0  0  0  0  0  0  0  0  0  0
   11.8654   46.0849  133.3470 C   0  0  0  0  0  0  0  0  0  0  0  0
   11.8708   47.4242  133.6296 C   0  0  0  0  0  0  0  0  0  0  0  0
    9.6304   50.3227  133.3136 C   0  0  0  0  0  0  0  0  0  0  0  0
   10.6429   49.5911  133.7251 C   0  0  0  0  0  0  0  0  0  0  0  0
   10.0540   54.6106  135.6917 C   0  0  0  0  0  0  0  0  0  0  0  0
    9.7506   53.6107  134.6644 N   0  0  0  0  0  0  0  0  0  0  0  0
    9.2046   53.8792  133.4910 N   0  0  0  0  0  0  0  0  0  0  0  0
    9.0761   52.7355  132.8207 N   0  0  0  0  0  0  0  0  0  0  0  0
    9.5476   51.7587  133.5910 C   0  0  0  0  0  0  0  0  0  0  0  0
    9.9609   52.3221  134.7296 N   0  0  0  0  0  0  0  0  0  0  0  0
 29 30  1  0  0  0
 30 31  1  0  0  0
 31 32  2  0  0  0
 32 33  1  0  0  0
 33 27  1  0  0  0
 27 28  2  0  0  0
 28 21  1  0  0  0
 21 22  2  0  0  0
 22 23  1  0  0  0
 23 24  2  0  0  0
 24 20  1  0  0  0
 20  1  1  0  0  0
  1  2  2  0  0  0
  2  3  1  0  0  0
  3  4  1  0  0  0
  4  5  2  0  0  0
  5  6  1  0  0  0
  6  7  1  0  0  0
  6  8  2  0  0  0
  8  9  1  0  0  0
  9 10  2  0  0  0
  2 12  1  0  0  0
 12 13  2  0  0  0
 13 14  1  0  0  0
 14 15  2  0  0  0
 15 16  1  0  0  0
 15 17  1  0  0  0
 17 18  2  0  0  0
 24 25  1  0  0  0
 25 26  2  0  0  0
 33 34  2  0  0  0
 34 30  1  0  0  0
 26 21  1  0  0  0
 10  1  1  0  0  0
 18 12  1  0  0  0
 10  4  1  0  0  0
  7 11  1  0  0  0
 16 19  1  0  0  0
M  END
> <minimizedAffinity>
40.18200

> <CNNscore>
0.4747912288

> <CNNaffinity>
7.6460456848

> <CNN_VS>
3.6302754879

> <CNNaffinity_variance>
3.1037642956

$$$$
[H]Oc1c([H])c([H])c(-c2sc3c([H])c(O[H])c([H])c([H])c3c2Oc2c([H])c([H])c(/C([H])=C(\[H])c3nnn(C([H])([H])[H])n3)c([H])c2[H])c([H])c1[H]


 34 38  0  0  0  0  0  0  0  0999 V2000
    8.4578   46.6766  131.5007 C   0  0  0  0  0  0  0  0  0  0  0  0
    9.5980   47.1797  132.0192 C   0  0  0  0  0  0  0  0  0  0  0  0
    9.5036   48.8473  131.5508 S   0  0  0  0  0  0  0  0  0  0  0  0
    8.0190   48.8136  130.7250 C   0  0  0  0  0  0  0  0  0  0  0  0
    7.2917   49.7991  130.0724 C   0  0  0  0  0  0  0  0  0  0  0  0
    6.0787   49.4750  129.4716 C   0  0  0  0  0  0  0  0  0  0  0  0
    5.2953   50.3883  128.8053 O   0  0  0  0  0  0  0  0  0  0  0  0
    5.6902   48.1762  129.5751 C   0  0  0  0  0  0  0  0  0  0  0  0
    6.4039   47.2204  130.2126 C   0  0  0  0  0  0  0  0  0  0  0  0
    7.6325   47.5023  130.8328 C   0  0  0  0  0  0  0  0  0  0  0  0
    4.5770   50.9309  129.2649 H   0  0  0  0  0  0  0  0  0  0  0  0
   10.7235   46.6402  132.7808 C   0  0  0  0  0  0  0  0  0  0  0  0
   11.3544   45.4781  132.3369 C   0  0  0  0  0  0  0  0  0  0  0  0
   12.4241   44.9301  132.9668 C   0  0  0  0  0  0  0  0  0  0  0  0
   12.9319   45.5151  134.0875 C   0  0  0  0  0  0  0  0  0  0  0  0
   14.0377   44.9583  134.7488 O   0  0  0  0  0  0  0  0  0  0  0  0
   12.3445   46.6548  134.5561 C   0  0  0  0  0  0  0  0  0  0  0  0
   11.2452   47.2213  133.9112 C   0  0  0  0  0  0  0  0  0  0  0  0
   13.7889   44.2753  135.4780 H   0  0  0  0  0  0  0  0  0  0  0  0
    8.1720   45.2978  131.6706 O   0  0  0  0  0  0  0  0  0  0  0  0
    9.8246   42.4869  129.1317 C   0  0  0  0  0  0  0  0  0  0  0  0
    8.6893   42.1320  129.8794 C   0  0  0  0  0  0  0  0  0  0  0  0
    8.1712   43.0977  130.7121 C   0  0  0  0  0  0  0  0  0  0  0  0
    8.7172   44.3463  130.8225 C   0  0  0  0  0  0  0  0  0  0  0  0
    9.8126   44.6598  130.0885 C   0  0  0  0  0  0  0  0  0  0  0  0
   10.3745   43.7424  129.2421 C   0  0  0  0  0  0  0  0  0  0  0  0
    9.7323   41.0759  127.1636 C   0  0  0  0  0  0  0  0  0  0  0  0
   10.3555   41.4522  128.2589 C   0  0  0  0  0  0  0  0  0  0  0  0
   10.0232   37.8200  123.4846 C   0  0  0  0  0  0  0  0  0  0  0  0
   10.3550   38.6228  124.6646 N   0  0  0  0  0  0  0  0  0  0  0  0
   11.4908   38.5406  125.3356 N   0  0  0  0  0  0  0  0  0  0  0  0
   11.4437   39.4124  126.3414 N   0  0  0  0  0  0  0  0  0  0  0  0
   10.2684   40.0333  126.2852 C   0  0  0  0  0  0  0  0  0  0  0  0
    9.6084   39.5294  125.2388 N   0  0  0  0  0  0  0  0  0  0  0  0
 29 30  1  0  0  0
 30 31  1  0  0  0
 31 32  2  0  0  0
 32 33  1  0  0  0
 33 27  1  0  0  0
 27 28  2  0  0  0
 28 21  1  0  0  0
 21 22  2  0  0  0
 22 23  1  0  0  0
 23 24  2  0  0  0
 24 20  1  0  0  0
 20  1  1  0  0  0
  1  2  2  0  0  0
  2  3  1  0  0  0
  3  4  1  0  0  0
  4  5  2  0  0  0
  5  6  1  0  0  0
  6  7  1  0  0  0
  6  8  2  0  0  0
  8  9  1  0  0  0
  9 10  2  0  0  0
  2 12  1  0  0  0
 12 13  2  0  0  0
 13 14  1  0  0  0
 14 15  2  0  0  0
 15 16  1  0  0  0
 15 17  1  0  0  0
 17 18  2  0  0  0
 24 25  1  0  0  0
 25 26  2  0  0  0
 33 34  2  0  0  0
 34 30  1  0  0  0
 26 21  1  0  0  0
 10  1  1  0  0  0
 18 12  1  0  0  0
 10  4  1  0  0  0
  7 11  1  0  0  0
 16 19  1  0  0  0
M  END
> <minimizedAffinity>
16.95038

> <CNNscore>
0.4410480559

> <CNNaffinity>
7.8021178246

> <CNN_VS>
3.4411089420

> <CNNaffinity_variance>
1.5025663376

$$$$
[H]Oc1c([H])c([H])c(-c2sc3c([H])c(O[H])c([H])c([H])c3c2Oc2c([H])c([H])c(/C([H])=C(\[H])c3nnn(C([H])([H])[H])n3)c([H])c2[H])c([H])c1[H]


 34 38  0  0  0  0  0  0  0  0999 V2000
    9.2107   46.8400  132.2508 C   0  0  0  0  0  0  0  0  0  0  0  0
    8.7948   47.8083  131.4072 C   0  0  0  0  0  0  0  0  0  0  0  0
    9.6994   49.1818  131.9588 S   0  0  0  0  0  0  0  0  0  0  0  0
   10.5583   48.4490  133.2286 C   0  0  0  0  0  0  0  0  0  0  0  0
   11.4895   48.9419  134.1318 C   0  0  0  0  0  0  0  0  0  0  0  0
   12.0404   48.0910  135.0856 C   0  0  0  0  0  0  0  0  0  0  0  0
   12.9680   48.4960  136.0169 O   0  0  0  0  0  0  0  0  0  0  0  0
   11.6080   46.8024  135.0556 C   0  0  0  0  0  0  0  0  0  0  0  0
   10.6999   46.3281  134.1727 C   0  0  0  0  0  0  0  0  0  0  0  0
   10.1184   47.1506  133.1934 C   0  0  0  0  0  0  0  0  0  0  0  0
   13.9639   48.4592  135.8485 H   0  0  0  0  0  0  0  0  0  0  0  0
    7.8545   47.8839  130.2901 C   0  0  0  0  0  0  0  0  0  0  0  0
    6.6923   47.1133  130.3219 C   0  0  0  0  0  0  0  0  0  0  0  0
    5.7541   47.1487  129.3422 C   0  0  0  0  0  0  0  0  0  0  0  0
    5.9220   47.9629  128.2630 C   0  0  0  0  0  0  0  0  0  0  0  0
    4.9592   48.0086  127.2425 O   0  0  0  0  0  0  0  0  0  0  0  0
    7.0456   48.7349  128.1922 C   0  0  0  0  0  0  0  0  0  0  0  0
    8.0120   48.7016  129.1973 C   0  0  0  0  0  0  0  0  0  0  0  0
    5.1194   47.3297  126.4853 H   0  0  0  0  0  0  0  0  0  0  0  0
    8.6736   45.5337  132.1205 O   0  0  0  0  0  0  0  0  0  0  0  0
    9.8157   43.0396  129.0296 C   0  0  0  0  0  0  0  0  0  0  0  0
   10.8154   43.6828  129.7785 C   0  0  0  0  0  0  0  0  0  0  0  0
   10.3914   44.5042  130.7982 C   0  0  0  0  0  0  0  0  0  0  0  0
    9.0692   44.6996  131.0863 C   0  0  0  0  0  0  0  0  0  0  0  0
    8.1272   44.0655  130.3463 C   0  0  0  0  0  0  0  0  0  0  0  0
    8.4856   43.2355  129.3185 C   0  0  0  0  0  0  0  0  0  0  0  0
   10.0508   40.8828  127.9499 C   0  0  0  0  0  0  0  0  0  0  0  0
   10.2854   42.1768  127.9576 C   0  0  0  0  0  0  0  0  0  0  0  0
   12.9209   37.7889  125.4178 C   0  0  0  0  0  0  0  0  0  0  0  0
   11.8078   38.6635  125.7962 N   0  0  0  0  0  0  0  0  0  0  0  0
   10.7462   38.8985  125.0446 N   0  0  0  0  0  0  0  0  0  0  0  0
    9.9469   39.7353  125.7039 N   0  0  0  0  0  0  0  0  0  0  0  0
   10.5248   40.0148  126.8691 C   0  0  0  0  0  0  0  0  0  0  0  0
   11.6774   39.3406  126.9069 N   0  0  0  0  0  0  0  0  0  0  0  0
 29 30  1  0  0  0
 30 31  1  0  0  0
 31 32  2  0  0  0
 32 33  1  0  0  0
 33 27  1  0  0  0
 27 28  2  0  0  0
 28 21  1  0  0  0
 21 22  2  0  0  0
 22 23  1  0  0  0
 23 24  2  0  0  0
 24 20  1  0  0  0
 20  1  1  0  0  0
  1  2  2  0  0  0
  2  3  1  0  0  0
  3  4  1  0  0  0
  4  5  2  0  0  0
  5  6  1  0  0  0
  6  7  1  0  0  0
  6  8  2  0  0  0
  8  9  1  0  0  0
  9 10  2  0  0  0
  2 12  1  0  0  0
 12 13  2  0  0  0
 13 14  1  0  0  0
 14 15  2  0  0  0
 15 16  1  0  0  0
 15 17  1  0  0  0
 17 18  2  0  0  0
 24 25  1  0  0  0
 25 26  2  0  0  0
 33 34  2  0  0  0
 34 30  1  0  0  0
 26 21  1  0  0  0
 10  1  1  0  0  0
 18 12  1  0  0  0
 10  4  1  0  0  0
  7 11  1  0  0  0
 16 19  1  0  0  0
M  END
> <minimizedAffinity>
19.44823

> <CNNscore>
0.4378657341

> <CNNaffinity>
7.6477394104

> <CNN_VS>
3.3486831188

> <CNNaffinity_variance>
2.6453776360

$$$$
[H]Oc1c([H])c([H])c(-c2sc3c([H])c(O[H])c([H])c([H])c3c2Oc2c([H])c([H])c(/C([H])=C(\[H])c3nnn(C([H])([H])[H])n3)c([H])c2[H])c([H])c1[H]


 34 38  0  0  0  0  0  0  0  0999 V2000
   10.0734   46.3899  132.3891 C   0  0  0  0  0  0  0  0  0  0  0  0
   10.6916   45.5663  131.5163 C   0  0  0  0  0  0  0  0  0  0  0  0
   12.3208   45.5650  132.1120 S   0  0  0  0  0  0  0  0  0  0  0  0
   12.1256   46.6083  133.4388 C   0  0  0  0  0  0  0  0  0  0  0  0
   13.0145   47.0774  134.3957 C   0  0  0  0  0  0  0  0  0  0  0  0
   12.5634   47.9418  135.3890 C   0  0  0  0  0  0  0  0  0  0  0  0
   13.3753   48.4533  136.3744 O   0  0  0  0  0  0  0  0  0  0  0  0
   11.2446   48.2686  135.3412 C   0  0  0  0  0  0  0  0  0  0  0  0
   10.3832   47.8080  134.4056 C   0  0  0  0  0  0  0  0  0  0  0  0
   10.7946   46.9342  133.3854 C   0  0  0  0  0  0  0  0  0  0  0  0
   13.5153   47.9911  137.2622 H   0  0  0  0  0  0  0  0  0  0  0  0
   10.2857   44.8031  130.3371 C   0  0  0  0  0  0  0  0  0  0  0  0
   11.0820   44.8395  129.1924 C   0  0  0  0  0  0  0  0  0  0  0  0
   10.7939   44.1363  128.0682 C   0  0  0  0  0  0  0  0  0  0  0  0
    9.6839   43.3480  128.0197 C   0  0  0  0  0  0  0  0  0  0  0  0
    9.3743   42.6158  126.8628 O   0  0  0  0  0  0  0  0  0  0  0  0
    8.8769   43.2831  129.1188 C   0  0  0  0  0  0  0  0  0  0  0  0
    9.1698   44.0040  130.2763 C   0  0  0  0  0  0  0  0  0  0  0  0
    8.7805   43.1237  126.1924 H   0  0  0  0  0  0  0  0  0  0  0  0
    8.6906   46.6585  132.2234 O   0  0  0  0  0  0  0  0  0  0  0  0
    7.3797   49.6919  129.7419 C   0  0  0  0  0  0  0  0  0  0  0  0
    8.1736   50.0272  130.8515 C   0  0  0  0  0  0  0  0  0  0  0  0
    8.5885   48.9868  131.6514 C   0  0  0  0  0  0  0  0  0  0  0  0
    8.2570   47.6848  131.3984 C   0  0  0  0  0  0  0  0  0  0  0  0
    7.4896   47.3918  130.3203 C   0  0  0  0  0  0  0  0  0  0  0  0
    7.0457   48.3827  129.4867 C   0  0  0  0  0  0  0  0  0  0  0  0
    7.7937   51.7241  128.4880 C   0  0  0  0  0  0  0  0  0  0  0  0
    6.9524   50.8058  128.9105 C   0  0  0  0  0  0  0  0  0  0  0  0
    7.3171   54.6592  124.5665 C   0  0  0  0  0  0  0  0  0  0  0  0
    7.1801   54.1010  125.9144 N   0  0  0  0  0  0  0  0  0  0  0  0
    6.4563   54.6380  126.8813 N   0  0  0  0  0  0  0  0  0  0  0  0
    6.5645   53.8647  127.9602 N   0  0  0  0  0  0  0  0  0  0  0  0
    7.3617   52.8457  127.6506 C   0  0  0  0  0  0  0  0  0  0  0  0
    7.7327   53.0107  126.3779 N   0  0  0  0  0  0  0  0  0  0  0  0
 29 30  1  0  0  0
 30 31  1  0  0  0
 31 32  2  0  0  0
 32 33  1  0  0  0
 33 27  1  0  0  0
 27 28  2  0  0  0
 28 21  1  0  0  0
 21 22  2  0  0  0
 22 23  1  0  0  0
 23 24  2  0  0  0
 24 20  1  0  0  0
 20  1  1  0  0  0
  1  2  2  0  0  0
  2  3  1  0  0  0
  3  4  1  0  0  0
  4  5  2  0  0  0
  5  6  1  0  0  0
  6  7  1  0  0  0
  6  8  2  0  0  0
  8  9  1  0  0  0
  9 10  2  0  0  0
  2 12  1  0  0  0
 12 13  2  0  0  0
 13 14  1  0  0  0
 14 15  2  0  0  0
 15 16  1  0  0  0
 15 17  1  0  0  0
 17 18  2  0  0  0
 24 25  1  0  0  0
 25 26  2  0  0  0
 33 34  2  0  0  0
 34 30  1  0  0  0
 26 21  1  0  0  0
 10  1  1  0  0  0
 18 12  1  0  0  0
 10  4  1  0  0  0
  7 11  1  0  0  0
 16 19  1  0  0  0
M  END
> <minimizedAffinity>
7.21621

> <CNNscore>
0.4345588982

> <CNNaffinity>
7.6559324265

> <CNN_VS>
3.3269536495

> <CNNaffinity_variance>
1.6569614410

$$$$
[H]Oc1c([H])c([H])c(-c2sc3c([H])c(O[H])c([H])c([H])c3c2Oc2c([H])c([H])c(/C([H])=C(\[H])c3nnn(C([H])([H])[H])n3)c([H])c2[H])c([H])c1[H]


 34 38  0  0  0  0  0  0  0  0999 V2000
   11.1987   45.0003  132.1928 C   0  0  0  0  0  0  0  0  0  0  0  0
   10.4480   43.9850  132.6698 C   0  0  0  0  0  0  0  0  0  0  0  0
   11.0519   43.8174  134.2873 S   0  0  0  0  0  0  0  0  0  0  0  0
   12.2225   45.0488  134.2690 C   0  0  0  0  0  0  0  0  0  0  0  0
   13.1122   45.5049  135.2314 C   0  0  0  0  0  0  0  0  0  0  0  0
   13.9746   46.5548  134.9290 C   0  0  0  0  0  0  0  0  0  0  0  0
   14.8861   47.0678  135.8220 O   0  0  0  0  0  0  0  0  0  0  0  0
   13.8734   47.0666  133.6735 C   0  0  0  0  0  0  0  0  0  0  0  0
   13.0040   46.6174  132.7398 C   0  0  0  0  0  0  0  0  0  0  0  0
   12.1158   45.5609  133.0013 C   0  0  0  0  0  0  0  0  0  0  0  0
   14.6672   47.8282  136.4508 H   0  0  0  0  0  0  0  0  0  0  0  0
    9.3864   43.1334  132.1354 C   0  0  0  0  0  0  0  0  0  0  0  0
    9.4055   42.7838  130.7852 C   0  0  0  0  0  0  0  0  0  0  0  0
    8.4771   41.9731  130.2176 C   0  0  0  0  0  0  0  0  0  0  0  0
    7.4654   41.4587  130.9712 C   0  0  0  0  0  0  0  0  0  0  0  0
    6.4984   40.6192  130.3963 O   0  0  0  0  0  0  0  0  0  0  0  0
    7.4094   41.7752  132.2979 C   0  0  0  0  0  0  0  0  0  0  0  0
    8.3620   42.6077  132.8851 C   0  0  0  0  0  0  0  0  0  0  0  0
    5.6789   41.1187  130.0236 H   0  0  0  0  0  0  0  0  0  0  0  0
   11.0014   45.4363  130.8576 O   0  0  0  0  0  0  0  0  0  0  0  0
    9.2910   49.1066  130.0318 C   0  0  0  0  0  0  0  0  0  0  0  0
    8.5451   48.1667  130.7626 C   0  0  0  0  0  0  0  0  0  0  0  0
    9.1523   46.9577  131.0154 C   0  0  0  0  0  0  0  0  0  0  0  0
   10.4169   46.6639  130.5869 C   0  0  0  0  0  0  0  0  0  0  0  0
   11.1124   47.5907  129.8839 C   0  0  0  0  0  0  0  0  0  0  0  0
   10.5630   48.8120  129.6004 C   0  0  0  0  0  0  0  0  0  0  0  0
    7.9048   50.5811  128.6987 C   0  0  0  0  0  0  0  0  0  0  0  0
    8.6309   50.3767  129.7760 C   0  0  0  0  0  0  0  0  0  0  0  0
    6.4519   54.6543  126.3495 C   0  0  0  0  0  0  0  0  0  0  0  0
    6.6287   53.6280  127.3803 N   0  0  0  0  0  0  0  0  0  0  0  0
    6.0849   53.6692  128.5844 N   0  0  0  0  0  0  0  0  0  0  0  0
    6.4601   52.5769  129.2477 N   0  0  0  0  0  0  0  0  0  0  0  0
    7.2404   51.8612  128.4422 C   0  0  0  0  0  0  0  0  0  0  0  0
    7.3324   52.5300  127.2896 N   0  0  0  0  0  0  0  0  0  0  0  0
 29 30  1  0  0  0
 30 31  1  0  0  0
 31 32  2  0  0  0
 32 33  1  0  0  0
 33 27  1  0  0  0
 27 28  2  0  0  0
 28 21  1  0  0  0
 21 22  2  0  0  0
 22 23  1  0  0  0
 23 24  2  0  0  0
 24 20  1  0  0  0
 20  1  1  0  0  0
  1  2  2  0  0  0
  2  3  1  0  0  0
  3  4  1  0  0  0
  4  5  2  0  0  0
  5  6  1  0  0  0
  6  7  1  0  0  0
  6  8  2  0  0  0
  8  9  1  0  0  0
  9 10  2  0  0  0
  2 12  1  0  0  0
 12 13  2  0  0  0
 13 14  1  0  0  0
 14 15  2  0  0  0
 15 16  1  0  0  0
 15 17  1  0  0  0
 17 18  2  0  0  0
 24 25  1  0  0  0
 25 26  2  0  0  0
 33 34  2  0  0  0
 34 30  1  0  0  0
 26 21  1  0  0  0
 10  1  1  0  0  0
 18 12  1  0  0  0
 10  4  1  0  0  0
  7 11  1  0  0  0
 16 19  1  0  0  0
M  END
> <minimizedAffinity>
23.73213

> <CNNscore>
0.4323106408

> <CNNaffinity>
7.5085983276

> <CNN_VS>
3.2460470200

> <CNNaffinity_variance>
1.6716451645

$$$$
[H]c1nc([C@]2([H])c3c([H])c([H])c4c(c([H])nn4[H])c3C([H])([H])C(C([H])([H])[H])(C([H])([H])[H])N2C([H])([H])C(F)(F)F)c([H])c([H])c1N([H])C1([H])C([H])([H])N(C([H])([H])C([H])([H])C([H])([H])F)C1([H])[H]


 37 41  0  0  0  0  0  0  0  0999 V2000
    8.4935   41.6179  130.5838 C   0  0  0  0  0  0  0  0  0  0  0  0
    9.7287   42.2699  131.2302 C   0  0  0  0  0  0  0  0  0  0  0  0
   10.7913   41.2232  131.2953 C   0  0  0  0  0  0  0  0  0  0  0  0
    9.2673   42.4467  132.6961 C   0  0  0  0  0  0  0  0  0  0  0  0
   10.0617   43.4834  133.3532 C   0  0  0  0  0  0  0  0  0  0  0  0
   10.1614   44.6908  132.6317 C   0  0  0  0  0  0  0  0  0  0  0  0
   10.8272   45.7847  133.0789 C   0  0  0  0  0  0  0  0  0  0  0  0
   11.4332   45.6624  134.3260 C   0  0  0  0  0  0  0  0  0  0  0  0
   11.3624   44.4913  135.0718 C   0  0  0  0  0  0  0  0  0  0  0  0
   11.8299   44.0899  136.2626 N   0  0  0  0  0  0  0  0  0  0  0  0
   11.4563   42.8219  136.5014 N   0  0  0  0  0  0  0  0  0  0  0  0
   10.7300   42.3545  135.4704 C   0  0  0  0  0  0  0  0  0  0  0  0
   10.6727   43.3990  134.5794 C   0  0  0  0  0  0  0  0  0  0  0  0
    9.4677   44.5683  131.3184 C   0  0  0  0  0  0  0  0  0  0  0  0
   10.0783   43.5150  130.6294 N   0  0  0  0  0  0  0  0  0  0  0  0
   12.3948   44.7021  136.8816 H   0  0  0  0  0  0  0  0  0  0  0  0
    9.2219   45.8696  130.7628 C   0  0  0  0  0  0  0  0  0  0  0  0
    8.9048   45.9081  129.4187 C   0  0  0  0  0  0  0  0  0  0  0  0
    8.6534   47.0990  128.7405 C   0  0  0  0  0  0  0  0  0  0  0  0
    8.7110   48.2979  129.3857 C   0  0  0  0  0  0  0  0  0  0  0  0
    9.0394   48.1867  130.7585 C   0  0  0  0  0  0  0  0  0  0  0  0
    9.2699   47.0429  131.3620 N   0  0  0  0  0  0  0  0  0  0  0  0
    8.4816   49.5744  128.8290 N   0  0  0  0  0  0  0  0  0  0  0  0
    9.0505   49.8059  127.9262 H   0  0  0  0  0  0  0  0  0  0  0  0
    7.6323   50.6299  129.2347 C   0  0  0  0  0  0  0  0  0  0  0  0
    6.5580   50.3224  130.2181 C   0  0  0  0  0  0  0  0  0  0  0  0
    5.6638   51.2408  129.5227 N   0  0  0  0  0  0  0  0  0  0  0  0
    6.5724   51.1469  128.3570 C   0  0  0  0  0  0  0  0  0  0  0  0
    5.8244   52.5599  130.0853 C   0  0  0  0  0  0  0  0  0  0  0  0
    4.8353   52.9530  131.0984 C   0  0  0  0  0  0  0  0  0  0  0  0
    4.1416   51.8540  131.8220 C   0  0  0  0  0  0  0  0  0  0  0  0
    4.8007   50.6474  131.7017 F   0  0  0  0  0  0  0  0  0  0  0  0
   11.1646   43.6617  129.8013 C   0  0  0  0  0  0  0  0  0  0  0  0
   11.0270   43.9739  128.3540 C   0  0  0  0  0  0  0  0  0  0  0  0
    9.7596   43.5482  127.8737 F   0  0  0  0  0  0  0  0  0  0  0  0
   11.9553   43.3190  127.5654 F   0  0  0  0  0  0  0  0  0  0  0  0
   11.0470   45.2880  127.9896 F   0  0  0  0  0  0  0  0  0  0  0  0
  1  2  1  0  0  0
  2  3  1  0  0  0
  2  4  1  0  0  0
  4  5  1  0  0  0
  5  6  2  0  0  0
  6  7  1  0  0  0
  7  8  2  0  0  0
  8  9  1  0  0  0
  9 10  1  0  0  0
 10 11  1  0  0  0
 11 12  2  0  0  0
 12 13  1  0  0  0
  6 14  1  0  0  0
 14 15  1  0  0  0
 15 33  1  0  0  0
 33 34  1  0  0  0
 34 35  1  0  0  0
 34 36  1  0  0  0
 34 37  1  0  0  0
 14 17  1  0  0  0
 17 18  2  0  0  0
 18 19  1  0  0  0
 19 20  2  0  0  0
 20 23  1  0  0  0
 23 25  1  0  0  0
 25 26  1  0  0  0
 26 27  1  0  0  0
 27 29  1  0  0  0
 29 30  1  0  0  0
 30 31  1  0  0  0
 31 32  1  0  0  0
 27 28  1  0  0  0
 20 21  1  0  0  0
 21 22  2  0  0  0
 15  2  1  0  0  0
 22 17  1  0  0  0
 13  5  1  0  0  0
 28 25  1  0  0  0
 13  9  2  0  0  0
 10 16  1  0  0  0
 23 24  1  0  0  0
M  END
> <minimizedAffinity>
22.58453

> <CNNscore>
0.4392045736

> <CNNaffinity>
8.1594038010

> <CNN_VS>
3.5836474895

> <CNNaffinity_variance>
1.3547008038

$$$$
[H]c1nc([C@]2([H])c3c([H])c([H])c4c(c([H])nn4[H])c3C([H])([H])C(C([H])([H])[H])(C([H])([H])[H])N2C([H])([H])C(F)(F)F)c([H])c([H])c1N([H])C1([H])C([H])([H])N(C([H])([H])C([H])([H])C([H])([H])F)C1([H])[H]


 37 41  0  0  0  0  0  0  0  0999 V2000
    9.1360   47.3338  134.6524 C   0  0  0  0  0  0  0  0  0  0  0  0
    9.4662   47.7847  133.2184 C   0  0  0  0  0  0  0  0  0  0  0  0
   10.3176   49.0061  133.3297 C   0  0  0  0  0  0  0  0  0  0  0  0
    8.0972   48.3091  132.7244 C   0  0  0  0  0  0  0  0  0  0  0  0
    8.0550   48.3096  131.2630 C   0  0  0  0  0  0  0  0  0  0  0  0
    8.4568   47.0976  130.6648 C   0  0  0  0  0  0  0  0  0  0  0  0
    8.4617   46.8818  129.3256 C   0  0  0  0  0  0  0  0  0  0  0  0
    8.0396   47.9467  128.5348 C   0  0  0  0  0  0  0  0  0  0  0  0
    7.6361   49.1599  129.0806 C   0  0  0  0  0  0  0  0  0  0  0  0
    7.1947   50.3266  128.5890 N   0  0  0  0  0  0  0  0  0  0  0  0
    6.9437   51.1845  129.5916 N   0  0  0  0  0  0  0  0  0  0  0  0
    7.2137   50.6022  130.7736 C   0  0  0  0  0  0  0  0  0  0  0  0
    7.6456   49.3382  130.4516 C   0  0  0  0  0  0  0  0  0  0  0  0
    8.8975   46.1269  131.7062 C   0  0  0  0  0  0  0  0  0  0  0  0
    9.9550   46.7236  132.4008 N   0  0  0  0  0  0  0  0  0  0  0  0
    7.0768   50.5012  127.5727 H   0  0  0  0  0  0  0  0  0  0  0  0
    8.9271   44.7969  131.1653 C   0  0  0  0  0  0  0  0  0  0  0  0
    9.7947   44.5874  130.1106 C   0  0  0  0  0  0  0  0  0  0  0  0
    9.9217   43.3531  129.4769 C   0  0  0  0  0  0  0  0  0  0  0  0
    9.1822   42.2809  129.8773 C   0  0  0  0  0  0  0  0  0  0  0  0
    8.3161   42.5637  130.9612 C   0  0  0  0  0  0  0  0  0  0  0  0
    8.2252   43.7432  131.5323 N   0  0  0  0  0  0  0  0  0  0  0  0
    9.2069   40.9798  129.3310 N   0  0  0  0  0  0  0  0  0  0  0  0
    8.3981   40.3183  129.6479 H   0  0  0  0  0  0  0  0  0  0  0  0
   10.1058   40.3637  128.4296 C   0  0  0  0  0  0  0  0  0  0  0  0
   10.1970   40.9140  127.0497 C   0  0  0  0  0  0  0  0  0  0  0  0
   10.3541   39.5625  126.5251 N   0  0  0  0  0  0  0  0  0  0  0  0
    9.8053   39.0660  127.8078 C   0  0  0  0  0  0  0  0  0  0  0  0
   11.7589   39.2330  126.5046 C   0  0  0  0  0  0  0  0  0  0  0  0
   12.3257   38.9099  125.1879 C   0  0  0  0  0  0  0  0  0  0  0  0
   13.4013   39.8040  124.6817 C   0  0  0  0  0  0  0  0  0  0  0  0
   13.3174   41.0772  125.2079 F   0  0  0  0  0  0  0  0  0  0  0  0
   11.2759   46.6110  132.0404 C   0  0  0  0  0  0  0  0  0  0  0  0
   12.1534   45.5273  132.5570 C   0  0  0  0  0  0  0  0  0  0  0  0
   11.3715   44.4367  133.0231 F   0  0  0  0  0  0  0  0  0  0  0  0
   12.9191   45.9173  133.6407 F   0  0  0  0  0  0  0  0  0  0  0  0
   12.9934   44.9216  131.6696 F   0  0  0  0  0  0  0  0  0  0  0  0
  1  2  1  0  0  0
  2  3  1  0  0  0
  2  4  1  0  0  0
  4  5  1  0  0  0
  5  6  2  0  0  0
  6  7  1  0  0  0
  7  8  2  0  0  0
  8  9  1  0  0  0
  9 10  1  0  0  0
 10 11  1  0  0  0
 11 12  2  0  0  0
 12 13  1  0  0  0
  6 14  1  0  0  0
 14 15  1  0  0  0
 15 33  1  0  0  0
 33 34  1  0  0  0
 34 35  1  0  0  0
 34 36  1  0  0  0
 34 37  1  0  0  0
 14 17  1  0  0  0
 17 18  2  0  0  0
 18 19  1  0  0  0
 19 20  2  0  0  0
 20 23  1  0  0  0
 23 25  1  0  0  0
 25 26  1  0  0  0
 26 27  1  0  0  0
 27 29  1  0  0  0
 29 30  1  0  0  0
 30 31  1  0  0  0
 31 32  1  0  0  0
 27 28  1  0  0  0
 20 21  1  0  0  0
 21 22  2  0  0  0
 15  2  1  0  0  0
 22 17  1  0  0  0
 13  5  1  0  0  0
 28 25  1  0  0  0
 13  9  2  0  0  0
 10 16  1  0  0  0
 23 24  1  0  0  0
M  END
> <minimizedAffinity>
11.43961

> <CNNscore>
0.4161600769

> <CNNaffinity>
8.1536054611

> <CNN_VS>
3.3932051659

> <CNNaffinity_variance>
0.4729990363

$$$$
[H]c1nc([C@]2([H])c3c([H])c([H])c4c(c([H])nn4[H])c3C([H])([H])C(C([H])([H])[H])(C([H])([H])[H])N2C([H])([H])C(F)(F)F)c([H])c([H])c1N([H])C1([H])C([H])([H])N(C([H])([H])C([H])([H])C([H])([H])F)C1([H])[H]


 37 41  0  0  0  0  0  0  0  0999 V2000
   12.0707   43.4676  134.4137 C   0  0  0  0  0  0  0  0  0  0  0  0
   11.9169   43.2695  132.8952 C   0  0  0  0  0  0  0  0  0  0  0  0
   12.0177   41.8031  132.6336 C   0  0  0  0  0  0  0  0  0  0  0  0
   13.2464   43.8519  132.3601 C   0  0  0  0  0  0  0  0  0  0  0  0
   13.1025   44.2279  130.9545 C   0  0  0  0  0  0  0  0  0  0  0  0
   11.9719   45.0220  130.6731 C   0  0  0  0  0  0  0  0  0  0  0  0
   11.6732   45.5001  129.4393 C   0  0  0  0  0  0  0  0  0  0  0  0
   12.5610   45.1608  128.4224 C   0  0  0  0  0  0  0  0  0  0  0  0
   13.6874   44.3793  128.6532 C   0  0  0  0  0  0  0  0  0  0  0  0
   14.6890   43.9047  127.8988 N   0  0  0  0  0  0  0  0  0  0  0  0
   15.5336   43.1831  128.6541 N   0  0  0  0  0  0  0  0  0  0  0  0
   15.1083   43.1646  129.9299 C   0  0  0  0  0  0  0  0  0  0  0  0
   13.9557   43.9126  129.9265 C   0  0  0  0  0  0  0  0  0  0  0  0
   11.1577   45.2197  131.9057 C   0  0  0  0  0  0  0  0  0  0  0  0
   10.7845   43.9496  132.3579 N   0  0  0  0  0  0  0  0  0  0  0  0
   14.7652   44.0917  126.8808 H   0  0  0  0  0  0  0  0  0  0  0  0
   10.2515   46.3200  131.7317 C   0  0  0  0  0  0  0  0  0  0  0  0
   10.3960   47.3735  132.6138 C   0  0  0  0  0  0  0  0  0  0  0  0
    9.5807   48.5027  132.5745 C   0  0  0  0  0  0  0  0  0  0  0  0
    8.5882   48.6179  131.6480 C   0  0  0  0  0  0  0  0  0  0  0  0
    8.4957   47.5059  130.7763 C   0  0  0  0  0  0  0  0  0  0  0  0
    9.2848   46.4581  130.8461 N   0  0  0  0  0  0  0  0  0  0  0  0
    7.6920   49.6971  131.4923 N   0  0  0  0  0  0  0  0  0  0  0  0
    7.9090   50.5826  132.0932 H   0  0  0  0  0  0  0  0  0  0  0  0
    6.5411   49.8445  130.6837 C   0  0  0  0  0  0  0  0  0  0  0  0
    6.7268   50.3216  129.2861 C   0  0  0  0  0  0  0  0  0  0  0  0
    5.4953   51.0956  129.3907 N   0  0  0  0  0  0  0  0  0  0  0  0
    5.6134   50.9709  130.8616 C   0  0  0  0  0  0  0  0  0  0  0  0
    4.3892   50.2658  128.9782 C   0  0  0  0  0  0  0  0  0  0  0  0
    4.7118   49.1816  128.0403 C   0  0  0  0  0  0  0  0  0  0  0  0
    5.0379   47.8563  128.6317 C   0  0  0  0  0  0  0  0  0  0  0  0
    4.8123   47.8183  129.9928 F   0  0  0  0  0  0  0  0  0  0  0  0
    9.6422   43.2954  131.9649 C   0  0  0  0  0  0  0  0  0  0  0  0
    8.5142   43.0313  132.8971 C   0  0  0  0  0  0  0  0  0  0  0  0
    8.9566   42.2573  134.0031 F   0  0  0  0  0  0  0  0  0  0  0  0
    7.4936   42.2964  132.3218 F   0  0  0  0  0  0  0  0  0  0  0  0
    7.9391   44.1061  133.5087 F   0  0  0  0  0  0  0  0  0  0  0  0
  1  2  1  0  0  0
  2  3  1  0  0  0
  2  4  1  0  0  0
  4  5  1  0  0  0
  5  6  2  0  0  0
  6  7  1  0  0  0
  7  8  2  0  0  0
  8  9  1  0  0  0
  9 10  1  0  0  0
 10 11  1  0  0  0
 11 12  2  0  0  0
 12 13  1  0  0  0
  6 14  1  0  0  0
 14 15  1  0  0  0
 15 33  1  0  0  0
 33 34  1  0  0  0
 34 35  1  0  0  0
 34 36  1  0  0  0
 34 37  1  0  0  0
 14 17  1  0  0  0
 17 18  2  0  0  0
 18 19  1  0  0  0
 19 20  2  0  0  0
 20 23  1  0  0  0
 23 25  1  0  0  0
 25 26  1  0  0  0
 26 27  1  0  0  0
 27 29  1  0  0  0
 29 30  1  0  0  0
 30 31  1  0  0  0
 31 32  1  0  0  0
 27 28  1  0  0  0
 20 21  1  0  0  0
 21 22  2  0  0  0
 15  2  1  0  0  0
 22 17  1  0  0  0
 13  5  1  0  0  0
 28 25  1  0  0  0
 13  9  2  0  0  0
 10 16  1  0  0  0
 23 24  1  0  0  0
M  END
> <minimizedAffinity>
13.40108

> <CNNscore>
0.3875040412

> <CNNaffinity>
7.9174523354

> <CNN_VS>
3.0680446625

> <CNNaffinity_variance>
1.0943429470

$$$$
[H]c1nc([C@]2([H])c3c([H])c([H])c4c(c([H])nn4[H])c3C([H])([H])C(C([H])([H])[H])(C([H])([H])[H])N2C([H])([H])C(F)(F)F)c([H])c([H])c1N([H])C1([H])C([H])([H])N(C([H])([H])C([H])([H])C([H])([H])F)C1([H])[H]


 37 41  0  0  0  0  0  0  0  0999 V2000
    9.9434   50.5771  132.3614 C   0  0  0  0  0  0  0  0  0  0  0  0
    9.3056   49.8755  131.1492 C   0  0  0  0  0  0  0  0  0  0  0  0
    9.5606   50.7409  129.9596 C   0  0  0  0  0  0  0  0  0  0  0  0
    7.7955   50.0470  131.4379 C   0  0  0  0  0  0  0  0  0  0  0  0
    7.0252   49.0415  130.7077 C   0  0  0  0  0  0  0  0  0  0  0  0
    7.4936   47.7203  130.8597 C   0  0  0  0  0  0  0  0  0  0  0  0
    6.9033   46.6398  130.2904 C   0  0  0  0  0  0  0  0  0  0  0  0
    5.7739   46.8977  129.5188 C   0  0  0  0  0  0  0  0  0  0  0  0
    5.2774   48.1839  129.3400 C   0  0  0  0  0  0  0  0  0  0  0  0
    4.2455   48.7233  128.6754 N   0  0  0  0  0  0  0  0  0  0  0  0
    4.2320   50.0556  128.8467 N   0  0  0  0  0  0  0  0  0  0  0  0
    5.2582   50.4286  129.6320 C   0  0  0  0  0  0  0  0  0  0  0  0
    5.9090   49.2580  129.9388 C   0  0  0  0  0  0  0  0  0  0  0  0
    8.7283   47.7010  131.6941 C   0  0  0  0  0  0  0  0  0  0  0  0
    9.6738   48.5018  131.0448 N   0  0  0  0  0  0  0  0  0  0  0  0
    3.5752   48.1578  128.1204 H   0  0  0  0  0  0  0  0  0  0  0  0
    8.9814   46.3723  132.1768 C   0  0  0  0  0  0  0  0  0  0  0  0
   10.0695   46.2259  133.0154 C   0  0  0  0  0  0  0  0  0  0  0  0
   10.4447   44.9953  133.5505 C   0  0  0  0  0  0  0  0  0  0  0  0
    9.7419   43.8636  133.2639 C   0  0  0  0  0  0  0  0  0  0  0  0
    8.6408   44.0842  132.4014 C   0  0  0  0  0  0  0  0  0  0  0  0
    8.3196   45.2622  131.9170 N   0  0  0  0  0  0  0  0  0  0  0  0
   10.0056   42.5582  133.7313 N   0  0  0  0  0  0  0  0  0  0  0  0
    9.8113   42.3873  134.7920 H   0  0  0  0  0  0  0  0  0  0  0  0
   10.4850   41.4075  133.0633 C   0  0  0  0  0  0  0  0  0  0  0  0
   11.9068   41.3979  132.6228 C   0  0  0  0  0  0  0  0  0  0  0  0
   11.5225   40.6842  131.4106 N   0  0  0  0  0  0  0  0  0  0  0  0
   10.1317   41.1252  131.6645 C   0  0  0  0  0  0  0  0  0  0  0  0
   11.5759   39.2658  131.6705 C   0  0  0  0  0  0  0  0  0  0  0  0
   10.6463   38.4333  130.8946 C   0  0  0  0  0  0  0  0  0  0  0  0
   10.5027   38.7546  129.4494 C   0  0  0  0  0  0  0  0  0  0  0  0
    9.1826   38.8896  129.0697 F   0  0  0  0  0  0  0  0  0  0  0  0
   10.5598   48.0393  130.1022 C   0  0  0  0  0  0  0  0  0  0  0  0
   10.2538   46.8810  129.2214 C   0  0  0  0  0  0  0  0  0  0  0  0
   11.1898   46.8088  128.1552 F   0  0  0  0  0  0  0  0  0  0  0  0
    9.0146   46.9716  128.6142 F   0  0  0  0  0  0  0  0  0  0  0  0
   10.3425   45.6347  129.7681 F   0  0  0  0  0  0  0  0  0  0  0  0
  1  2  1  0  0  0
  2  3  1  0  0  0
  2  4  1  0  0  0
  4  5  1  0  0  0
  5  6  2  0  0  0
  6  7  1  0  0  0
  7  8  2  0  0  0
  8  9  1  0  0  0
  9 10  1  0  0  0
 10 11  1  0  0  0
 11 12  2  0  0  0
 12 13  1  0  0  0
  6 14  1  0  0  0
 14 15  1  0  0  0
 15 33  1  0  0  0
 33 34  1  0  0  0
 34 35  1  0  0  0
 34 36  1  0  0  0
 34 37  1  0  0  0
 14 17  1  0  0  0
 17 18  2  0  0  0
 18 19  1  0  0  0
 19 20  2  0  0  0
 20 23  1  0  0  0
 23 25  1  0  0  0
 25 26  1  0  0  0
 26 27  1  0  0  0
 27 29  1  0  0  0
 29 30  1  0  0  0
 30 31  1  0  0  0
 31 32  1  0  0  0
 27 28  1  0  0  0
 20 21  1  0  0  0
 21 22  2  0  0  0
 15  2  1  0  0  0
 22 17  1  0  0  0
 13  5  1  0  0  0
 28 25  1  0  0  0
 13  9  2  0  0  0
 10 16  1  0  0  0
 23 24  1  0  0  0
M  END
> <minimizedAffinity>
21.53119

> <CNNscore>
0.3559390903

> <CNNaffinity>
7.6865553856

> <CNN_VS>
2.7359454632

> <CNNaffinity_variance>
0.6957804561

$$$$
[H]c1nc([C@]2([H])c3c([H])c([H])c4c(c([H])nn4[H])c3C([H])([H])C(C([H])([H])[H])(C([H])([H])[H])N2C([H])([H])C(F)(F)F)c([H])c([H])c1N([H])C1([H])C([H])([H])N(C([H])([H])C([H])([H])C([H])([H])F)C1([H])[H]


 37 41  0  0  0  0  0  0  0  0999 V2000
    8.4364   50.8279  128.8183 C   0  0  0  0  0  0  0  0  0  0  0  0
    8.0288   49.3447  128.7664 C   0  0  0  0  0  0  0  0  0  0  0  0
    7.6457   49.0462  127.3547 C   0  0  0  0  0  0  0  0  0  0  0  0
    6.6885   49.3538  129.5390 C   0  0  0  0  0  0  0  0  0  0  0  0
    6.3886   48.0149  130.0439 C   0  0  0  0  0  0  0  0  0  0  0  0
    7.4496   47.3996  130.7395 C   0  0  0  0  0  0  0  0  0  0  0  0
    7.3666   46.1722  131.3110 C   0  0  0  0  0  0  0  0  0  0  0  0
    6.1453   45.5182  131.1763 C   0  0  0  0  0  0  0  0  0  0  0  0
    5.0725   46.0854  130.4981 C   0  0  0  0  0  0  0  0  0  0  0  0
    3.8176   45.7084  130.2139 N   0  0  0  0  0  0  0  0  0  0  0  0
    3.1956   46.6685  129.5098 N   0  0  0  0  0  0  0  0  0  0  0  0
    4.0279   47.7062  129.3121 C   0  0  0  0  0  0  0  0  0  0  0  0
    5.1989   47.3397  129.9305 C   0  0  0  0  0  0  0  0  0  0  0  0
    8.6576   48.2722  130.7191 C   0  0  0  0  0  0  0  0  0  0  0  0
    8.9876   48.4832  129.3762 N   0  0  0  0  0  0  0  0  0  0  0  0
    3.4212   44.7975  130.5143 H   0  0  0  0  0  0  0  0  0  0  0  0
    9.5888   47.8557  131.7300 C   0  0  0  0  0  0  0  0  0  0  0  0
    9.3760   48.3593  132.9988 C   0  0  0  0  0  0  0  0  0  0  0  0
   10.2045   48.0536  134.0765 C   0  0  0  0  0  0  0  0  0  0  0  0
   11.2794   47.2305  133.9219 C   0  0  0  0  0  0  0  0  0  0  0  0
   11.4388   46.7498  132.5996 C   0  0  0  0  0  0  0  0  0  0  0  0
   10.6345   47.0622  131.6092 N   0  0  0  0  0  0  0  0  0  0  0  0
   12.1986   46.8369  134.9180 N   0  0  0  0  0  0  0  0  0  0  0  0
   12.3806   45.7632  134.9961 H   0  0  0  0  0  0  0  0  0  0  0  0
   12.9425   47.5944  135.8523 C   0  0  0  0  0  0  0  0  0  0  0  0
   12.6481   49.0493  135.9633 C   0  0  0  0  0  0  0  0  0  0  0  0
   14.0674   49.3173  136.1646 N   0  0  0  0  0  0  0  0  0  0  0  0
   14.3389   47.9765  135.5973 C   0  0  0  0  0  0  0  0  0  0  0  0
   14.3564   49.2509  137.5768 C   0  0  0  0  0  0  0  0  0  0  0  0
   14.8620   47.9628  138.0711 C   0  0  0  0  0  0  0  0  0  0  0  0
   16.2294   47.5674  137.6392 C   0  0  0  0  0  0  0  0  0  0  0  0
   16.3005   46.2393  137.2703 F   0  0  0  0  0  0  0  0  0  0  0  0
    9.8242   47.6704  128.6504 C   0  0  0  0  0  0  0  0  0  0  0  0
    9.5931   46.2080  128.5130 C   0  0  0  0  0  0  0  0  0  0  0  0
    8.2047   45.9359  128.3843 F   0  0  0  0  0  0  0  0  0  0  0  0
   10.0060   45.4857  129.6177 F   0  0  0  0  0  0  0  0  0  0  0  0
   10.1113   45.5900  127.4132 F   0  0  0  0  0  0  0  0  0  0  0  0
  1  2  1  0  0  0
  2  3  1  0  0  0
  2  4  1  0  0  0
  4  5  1  0  0  0
  5  6  2  0  0  0
  6  7  1  0  0  0
  7  8  2  0  0  0
  8  9  1  0  0  0
  9 10  1  0  0  0
 10 11  1  0  0  0
 11 12  2  0  0  0
 12 13  1  0  0  0
  6 14  1  0  0  0
 14 15  1  0  0  0
 15 33  1  0  0  0
 33 34  1  0  0  0
 34 35  1  0  0  0
 34 36  1  0  0  0
 34 37  1  0  0  0
 14 17  1  0  0  0
 17 18  2  0  0  0
 18 19  1  0  0  0
 19 20  2  0  0  0
 20 23  1  0  0  0
 23 25  1  0  0  0
 25 26  1  0  0  0
 26 27  1  0  0  0
 27 29  1  0  0  0
 29 30  1  0  0  0
 30 31  1  0  0  0
 31 32  1  0  0  0
 27 28  1  0  0  0
 20 21  1  0  0  0
 21 22  2  0  0  0
 15  2  1  0  0  0
 22 17  1  0  0  0
 13  5  1  0  0  0
 28 25  1  0  0  0
 13  9  2  0  0  0
 10 16  1  0  0  0
 23 24  1  0  0  0
M  END
> <minimizedAffinity>
30.96577

> <CNNscore>
0.3177290559

> <CNNaffinity>
7.1868567467

> <CNN_VS>
2.2834732533

> <CNNaffinity_variance>
0.7783668637

$$$$
[H]c1nc([C@]2([H])c3c([H])c([H])c4c(c([H])nn4[H])c3C([H])([H])C(C([H])([H])[H])(C([H])([H])[H])N2C([H])([H])C(F)(F)F)c([H])c([H])c1N([H])C1([H])C([H])([H])N(C([H])([H])C([H])([H])C([H])([H])F)C1([H])[H]


 37 41  0  0  0  0  0  0  0  0999 V2000
   13.3803   45.0730  134.5914 C   0  0  0  0  0  0  0  0  0  0  0  0
   12.0609   44.3585  134.2486 C   0  0  0  0  0  0  0  0  0  0  0  0
   11.8675   43.2855  135.2686 C   0  0  0  0  0  0  0  0  0  0  0  0
   12.4348   43.6001  132.9531 C   0  0  0  0  0  0  0  0  0  0  0  0
   11.2289   43.2781  132.1916 C   0  0  0  0  0  0  0  0  0  0  0  0
   10.3555   44.3665  131.9895 C   0  0  0  0  0  0  0  0  0  0  0  0
    9.1992   44.2858  131.2850 C   0  0  0  0  0  0  0  0  0  0  0  0
    8.8967   43.0368  130.7502 C   0  0  0  0  0  0  0  0  0  0  0  0
    9.7272   41.9357  130.9251 C   0  0  0  0  0  0  0  0  0  0  0  0
    9.6996   40.6508  130.5432 N   0  0  0  0  0  0  0  0  0  0  0  0
   10.7871   40.0096  131.0021 N   0  0  0  0  0  0  0  0  0  0  0  0
   11.5617   40.8592  131.7000 C   0  0  0  0  0  0  0  0  0  0  0  0
   10.8977   42.0612  131.6500 C   0  0  0  0  0  0  0  0  0  0  0  0
   10.8711   45.5804  132.6834 C   0  0  0  0  0  0  0  0  0  0  0  0
   10.9772   45.2618  134.0414 N   0  0  0  0  0  0  0  0  0  0  0  0
    8.9306   40.2485  129.9741 H   0  0  0  0  0  0  0  0  0  0  0  0
   10.2260   46.7571  132.1719 C   0  0  0  0  0  0  0  0  0  0  0  0
   10.9349   47.9377  132.2834 C   0  0  0  0  0  0  0  0  0  0  0  0
   10.4316   49.1600  131.8431 C   0  0  0  0  0  0  0  0  0  0  0  0
    9.1964   49.2445  131.2740 C   0  0  0  0  0  0  0  0  0  0  0  0
    8.5256   48.0004  131.1896 C   0  0  0  0  0  0  0  0  0  0  0  0
    9.0352   46.8677  131.6172 N   0  0  0  0  0  0  0  0  0  0  0  0
    8.5632   50.4078  130.7862 N   0  0  0  0  0  0  0  0  0  0  0  0
    9.1366   51.3324  130.8783 H   0  0  0  0  0  0  0  0  0  0  0  0
    7.2963   50.5988  130.1874 C   0  0  0  0  0  0  0  0  0  0  0  0
    6.9396   49.7446  129.0218 C   0  0  0  0  0  0  0  0  0  0  0  0
    6.2603   50.8776  128.4042 N   0  0  0  0  0  0  0  0  0  0  0  0
    7.0183   51.7560  129.3245 C   0  0  0  0  0  0  0  0  0  0  0  0
    4.8845   50.8873  128.8395 C   0  0  0  0  0  0  0  0  0  0  0  0
    4.3124   49.5816  129.1961 C   0  0  0  0  0  0  0  0  0  0  0  0
    5.2701   48.4625  129.4037 C   0  0  0  0  0  0  0  0  0  0  0  0
    4.7244   47.2369  129.0797 F   0  0  0  0  0  0  0  0  0  0  0  0
    9.9650   45.4301  134.9548 C   0  0  0  0  0  0  0  0  0  0  0  0
    9.5092   46.7734  135.4010 C   0  0  0  0  0  0  0  0  0  0  0  0
   10.4097   47.7763  134.9521 F   0  0  0  0  0  0  0  0  0  0  0  0
    9.4714   46.9058  136.7771 F   0  0  0  0  0  0  0  0  0  0  0  0
    8.3142   47.2232  134.9218 F   0  0  0  0  0  0  0  0  0  0  0  0
  1  2  1  0  0  0
  2  3  1  0  0  0
  2  4  1  0  0  0
  4  5  1  0  0  0
  5  6  2  0  0  0
  6  7  1  0  0  0
  7  8  2  0  0  0
  8  9  1  0  0  0
  9 10  1  0  0  0
 10 11  1  0  0  0
 11 12  2  0  0  0
 12 13  1  0  0  0
  6 14  1  0  0  0
 14 15  1  0  0  0
 15 33  1  0  0  0
 33 34  1  0  0  0
 34 35  1  0  0  0
 34 36  1  0  0  0
 34 37  1  0  0  0
 14 17  1  0  0  0
 17 18  2  0  0  0
 18 19  1  0  0  0
 19 20  2  0  0  0
 20 23  1  0  0  0
 23 25  1  0  0  0
 25 26  1  0  0  0
 26 27  1  0  0  0
 27 29  1  0  0  0
 29 30  1  0  0  0
 30 31  1  0  0  0
 31 32  1  0  0  0
 27 28  1  0  0  0
 20 21  1  0  0  0
 21 22  2  0  0  0
 15  2  1  0  0  0
 22 17  1  0  0  0
 13  5  1  0  0  0
 28 25  1  0  0  0
 13  9  2  0  0  0
 10 16  1  0  0  0
 23 24  1  0  0  0
M  END
> <minimizedAffinity>
8.03554

> <CNNscore>
0.3028780222

> <CNNaffinity>
7.9941840172

> <CNN_VS>
2.4212627411

> <CNNaffinity_variance>
1.1792533398

$$$$
[H]c1nc([C@]2([H])c3c([H])c([H])c4c(c([H])nn4[H])c3C([H])([H])C(C([H])([H])[H])(C([H])([H])[H])N2C([H])([H])C(F)(F)F)c([H])c([H])c1N([H])C1([H])C([H])([H])N(C([H])([H])C([H])([H])C([H])([H])F)C1([H])[H]


 37 41  0  0  0  0  0  0  0  0999 V2000
   10.3692   44.8713  134.5012 C   0  0  0  0  0  0  0  0  0  0  0  0
   10.4695   44.3201  133.0677 C   0  0  0  0  0  0  0  0  0  0  0  0
   10.7437   42.8569  133.1807 C   0  0  0  0  0  0  0  0  0  0  0  0
   11.8062   44.9296  132.5831 C   0  0  0  0  0  0  0  0  0  0  0  0
   11.8463   44.9597  131.1220 C   0  0  0  0  0  0  0  0  0  0  0  0
   10.7042   45.5224  130.5160 C   0  0  0  0  0  0  0  0  0  0  0  0
   10.5560   45.6703  129.1758 C   0  0  0  0  0  0  0  0  0  0  0  0
   11.6170   45.2256  128.3922 C   0  0  0  0  0  0  0  0  0  0  0  0
   12.7615   44.6632  128.9458 C   0  0  0  0  0  0  0  0  0  0  0  0
   13.9066   44.1609  128.4619 N   0  0  0  0  0  0  0  0  0  0  0  0
   14.6876   43.7387  129.4699 N   0  0  0  0  0  0  0  0  0  0  0  0
   14.0748   43.9537  130.6477 C   0  0  0  0  0  0  0  0  0  0  0  0
   12.8726   44.5313  130.3175 C   0  0  0  0  0  0  0  0  0  0  0  0
    9.6956   45.8878  131.5505 C   0  0  0  0  0  0  0  0  0  0  0  0
    9.3756   44.7150  132.2426 N   0  0  0  0  0  0  0  0  0  0  0  0
   14.1208   44.1228  127.4472 H   0  0  0  0  0  0  0  0  0  0  0  0
    8.7296   46.7987  131.0031 C   0  0  0  0  0  0  0  0  0  0  0  0
    8.9086   48.1336  131.3106 C   0  0  0  0  0  0  0  0  0  0  0  0
    8.0443   49.1299  130.8614 C   0  0  0  0  0  0  0  0  0  0  0  0
    6.9663   48.8243  130.0860 C   0  0  0  0  0  0  0  0  0  0  0  0
    6.8426   47.4414  129.8081 C   0  0  0  0  0  0  0  0  0  0  0  0
    7.6801   46.5317  130.2514 N   0  0  0  0  0  0  0  0  0  0  0  0
    6.0130   49.7244  129.5632 N   0  0  0  0  0  0  0  0  0  0  0  0
    4.9678   49.4511  129.7217 H   0  0  0  0  0  0  0  0  0  0  0  0
    6.1671   50.9403  128.8577 C   0  0  0  0  0  0  0  0  0  0  0  0
    7.4129   51.1350  128.0667 C   0  0  0  0  0  0  0  0  0  0  0  0
    7.4293   52.5430  128.4462 N   0  0  0  0  0  0  0  0  0  0  0  0
    6.5026   52.1944  129.5475 C   0  0  0  0  0  0  0  0  0  0  0  0
    6.6740   53.2947  127.4731 C   0  0  0  0  0  0  0  0  0  0  0  0
    7.3661   54.4394  126.8649 C   0  0  0  0  0  0  0  0  0  0  0  0
    7.7424   54.3126  125.4314 C   0  0  0  0  0  0  0  0  0  0  0  0
    9.1079   54.2220  125.2526 F   0  0  0  0  0  0  0  0  0  0  0  0
    8.3722   43.8515  131.8751 C   0  0  0  0  0  0  0  0  0  0  0  0
    8.4834   42.9579  130.6918 C   0  0  0  0  0  0  0  0  0  0  0  0
    8.1513   43.6641  129.5049 F   0  0  0  0  0  0  0  0  0  0  0  0
    7.6106   41.8860  130.7356 F   0  0  0  0  0  0  0  0  0  0  0  0
    9.7173   42.4585  130.3948 F   0  0  0  0  0  0  0  0  0  0  0  0
  1  2  1  0  0  0
  2  3  1  0  0  0
  2  4  1  0  0  0
  4  5  1  0  0  0
  5  6  2  0  0  0
  6  7  1  0  0  0
  7  8  2  0  0  0
  8  9  1  0  0  0
  9 10  1  0  0  0
 10 11  1  0  0  0
 11 12  2  0  0  0
 12 13  1  0  0  0
  6 14  1  0  0  0
 14 15  1  0  0  0
 15 33  1  0  0  0
 33 34  1  0  0  0
 34 35  1  0  0  0
 34 36  1  0  0  0
 34 37  1  0  0  0
 14 17  1  0  0  0
 17 18  2  0  0  0
 18 19  1  0  0  0
 19 20  2  0  0  0
 20 23  1  0  0  0
 23 25  1  0  0  0
 25 26  1  0  0  0
 26 27  1  0  0  0
 27 29  1  0  0  0
 29 30  1  0  0  0
 30 31  1  0  0  0
 31 32  1  0  0  0
 27 28  1  0  0  0
 20 21  1  0  0  0
 21 22  2  0  0  0
 15  2  1  0  0  0
 22 17  1  0  0  0
 13  5  1  0  0  0
 28 25  1  0  0  0
 13  9  2  0  0  0
 10 16  1  0  0  0
 23 24  1  0  0  0
M  END
> <minimizedAffinity>
1.48680

> <CNNscore>
0.3027044833

> <CNNaffinity>
7.9813184738

> <CNN_VS>
2.4159808159

> <CNNaffinity_variance>
0.3764714301

$$$$
[H]c1nc([C@]2([H])c3c([H])c([H])c4c(c([H])nn4[H])c3C([H])([H])C(C([H])([H])[H])(C([H])([H])[H])N2C([H])([H])C(F)(F)F)c([H])c([H])c1N([H])C1([H])C([H])([H])N(C([H])([H])C([H])([H])C([H])([H])F)C1([H])[H]


 37 41  0  0  0  0  0  0  0  0999 V2000
    9.8971   51.1135  132.0134 C   0  0  0  0  0  0  0  0  0  0  0  0
    9.2936   50.2334  130.9044 C   0  0  0  0  0  0  0  0  0  0  0  0
    9.4944   50.9576  129.6143 C   0  0  0  0  0  0  0  0  0  0  0  0
    7.7777   50.3566  131.1871 C   0  0  0  0  0  0  0  0  0  0  0  0
    7.0612   49.2279  130.5956 C   0  0  0  0  0  0  0  0  0  0  0  0
    7.6031   47.9632  130.9040 C   0  0  0  0  0  0  0  0  0  0  0  0
    7.0712   46.7899  130.4792 C   0  0  0  0  0  0  0  0  0  0  0  0
    5.9256   46.8882  129.6947 C   0  0  0  0  0  0  0  0  0  0  0  0
    5.3573   48.1132  129.3644 C   0  0  0  0  0  0  0  0  0  0  0  0
    4.2939   48.5090  128.6502 N   0  0  0  0  0  0  0  0  0  0  0  0
    4.2071   49.8495  128.6561 N   0  0  0  0  0  0  0  0  0  0  0  0
    5.2146   50.3724  129.3774 C   0  0  0  0  0  0  0  0  0  0  0  0
    5.9310   49.2861  129.8188 C   0  0  0  0  0  0  0  0  0  0  0  0
    8.8408   48.1149  131.7201 C   0  0  0  0  0  0  0  0  0  0  0  0
    9.7372   48.8796  130.9660 N   0  0  0  0  0  0  0  0  0  0  0  0
    3.6535   47.8434  128.1770 H   0  0  0  0  0  0  0  0  0  0  0  0
    9.1698   46.8720  132.3599 C   0  0  0  0  0  0  0  0  0  0  0  0
   10.3987   46.8173  132.9889 C   0  0  0  0  0  0  0  0  0  0  0  0
   10.8585   45.6745  133.6399 C   0  0  0  0  0  0  0  0  0  0  0  0
   10.1022   44.5418  133.6845 C   0  0  0  0  0  0  0  0  0  0  0  0
    8.8567   44.6664  133.0227 C   0  0  0  0  0  0  0  0  0  0  0  0
    8.4591   45.7633  132.4192 N   0  0  0  0  0  0  0  0  0  0  0  0
   10.4389   43.3191  134.3038 N   0  0  0  0  0  0  0  0  0  0  0  0
   11.4822   43.2145  134.6083 H   0  0  0  0  0  0  0  0  0  0  0  0
    9.6560   42.1814  134.6086 C   0  0  0  0  0  0  0  0  0  0  0  0
    9.9902   40.9013  133.9266 C   0  0  0  0  0  0  0  0  0  0  0  0
    8.5700   40.5828  133.8366 N   0  0  0  0  0  0  0  0  0  0  0  0
    8.2949   42.0178  134.0778 C   0  0  0  0  0  0  0  0  0  0  0  0
    8.1788   39.8662  135.0265 C   0  0  0  0  0  0  0  0  0  0  0  0
    6.7567   39.9455  135.3880 C   0  0  0  0  0  0  0  0  0  0  0  0
    5.8428   40.5614  134.3890 C   0  0  0  0  0  0  0  0  0  0  0  0
    5.0416   41.5395  134.9424 F   0  0  0  0  0  0  0  0  0  0  0  0
   10.6431   48.3531  130.0775 C   0  0  0  0  0  0  0  0  0  0  0  0
   10.3148   47.2058  129.1904 C   0  0  0  0  0  0  0  0  0  0  0  0
   11.3169   47.0458  128.1963 F   0  0  0  0  0  0  0  0  0  0  0  0
    9.1328   47.3778  128.4933 F   0  0  0  0  0  0  0  0  0  0  0  0
   10.2697   45.9659  129.7567 F   0  0  0  0  0  0  0  0  0  0  0  0
  1  2  1  0  0  0
  2  3  1  0  0  0
  2  4  1  0  0  0
  4  5  1  0  0  0
  5  6  2  0  0  0
  6  7  1  0  0  0
  7  8  2  0  0  0
  8  9  1  0  0  0
  9 10  1  0  0  0
 10 11  1  0  0  0
 11 12  2  0  0  0
 12 13  1  0  0  0
  6 14  1  0  0  0
 14 15  1  0  0  0
 15 33  1  0  0  0
 33 34  1  0  0  0
 34 35  1  0  0  0
 34 36  1  0  0  0
 34 37  1  0  0  0
 14 17  1  0  0  0
 17 18  2  0  0  0
 18 19  1  0  0  0
 19 20  2  0  0  0
 20 23  1  0  0  0
 23 25  1  0  0  0
 25 26  1  0  0  0
 26 27  1  0  0  0
 27 29  1  0  0  0
 29 30  1  0  0  0
 30 31  1  0  0  0
 31 32  1  0  0  0
 27 28  1  0  0  0
 20 21  1  0  0  0
 21 22  2  0  0  0
 15  2  1  0  0  0
 22 17  1  0  0  0
 13  5  1  0  0  0
 28 25  1  0  0  0
 13  9  2  0  0  0
 10 16  1  0  0  0
 23 24  1  0  0  0
M  END
> <minimizedAffinity>
27.98290

> <CNNscore>
0.2861952782

> <CNNaffinity>
7.4335045815

> <CNN_VS>
2.1274340153

> <CNNaffinity_variance>
0.7862894535

$$$$
[H]c1nc([C@]2([H])c3c([H])c([H])c4c(c([H])nn4[H])c3C([H])([H])C(C([H])([H])[H])(C([H])([H])[H])N2C([H])([H])C(F)(F)F)c([H])c([H])c1N([H])C1([H])C([H])([H])N(C([H])([H])C([H])([H])C([H])([H])F)C1([H])[H]


 37 41  0  0  0  0  0  0  0  0999 V2000
   12.6315   45.3915  129.6215 C   0  0  0  0  0  0  0  0  0  0  0  0
   11.7524   45.5115  130.8790 C   0  0  0  0  0  0  0  0  0  0  0  0
   12.6034   45.1299  132.0448 C   0  0  0  0  0  0  0  0  0  0  0  0
   10.7783   44.3226  130.7034 C   0  0  0  0  0  0  0  0  0  0  0  0
    9.5662   44.5434  131.4906 C   0  0  0  0  0  0  0  0  0  0  0  0
    8.9700   45.8077  131.3062 C   0  0  0  0  0  0  0  0  0  0  0  0
    7.8253   46.1994  131.9196 C   0  0  0  0  0  0  0  0  0  0  0  0
    7.2411   45.2677  132.7729 C   0  0  0  0  0  0  0  0  0  0  0  0
    7.7942   44.0102  132.9862 C   0  0  0  0  0  0  0  0  0  0  0  0
    7.4703   42.9393  133.7251 N   0  0  0  0  0  0  0  0  0  0  0  0
    8.3815   41.9673  133.5531 N   0  0  0  0  0  0  0  0  0  0  0  0
    9.3317   42.3747  132.6929 C   0  0  0  0  0  0  0  0  0  0  0  0
    8.9624   43.6504  132.3403 C   0  0  0  0  0  0  0  0  0  0  0  0
    9.7925   46.6387  130.3820 C   0  0  0  0  0  0  0  0  0  0  0  0
   11.0620   46.7567  130.9578 N   0  0  0  0  0  0  0  0  0  0  0  0
    6.6273   42.9058  134.3294 H   0  0  0  0  0  0  0  0  0  0  0  0
    9.0193   47.7417  129.8840 C   0  0  0  0  0  0  0  0  0  0  0  0
    9.1578   48.9377  130.5615 C   0  0  0  0  0  0  0  0  0  0  0  0
    8.4616   50.0896  130.2012 C   0  0  0  0  0  0  0  0  0  0  0  0
    7.5988   50.0852  129.1465 C   0  0  0  0  0  0  0  0  0  0  0  0
    7.5051   48.8304  128.4970 C   0  0  0  0  0  0  0  0  0  0  0  0
    8.1795   47.7660  128.8683 N   0  0  0  0  0  0  0  0  0  0  0  0
    6.8315   51.1704  128.6717 N   0  0  0  0  0  0  0  0  0  0  0  0
    5.8061   51.2231  129.0430 H   0  0  0  0  0  0  0  0  0  0  0  0
    7.1546   52.2239  127.7851 C   0  0  0  0  0  0  0  0  0  0  0  0
    7.5152   53.5436  128.3716 C   0  0  0  0  0  0  0  0  0  0  0  0
    6.8157   54.2146  127.2821 N   0  0  0  0  0  0  0  0  0  0  0  0
    6.1181   52.9344  127.0223 C   0  0  0  0  0  0  0  0  0  0  0  0
    7.7421   54.4253  126.1959 C   0  0  0  0  0  0  0  0  0  0  0  0
    7.1432   54.6604  124.8748 C   0  0  0  0  0  0  0  0  0  0  0  0
    8.0234   54.4594  123.6927 C   0  0  0  0  0  0  0  0  0  0  0  0
    8.2885   53.1258  123.4556 F   0  0  0  0  0  0  0  0  0  0  0  0
   11.4230   47.7527  131.8324 C   0  0  0  0  0  0  0  0  0  0  0  0
   10.8786   47.8364  133.2136 C   0  0  0  0  0  0  0  0  0  0  0  0
   10.0208   48.9617  133.3405 F   0  0  0  0  0  0  0  0  0  0  0  0
   11.8574   48.0130  134.1745 F   0  0  0  0  0  0  0  0  0  0  0  0
   10.0798   46.8155  133.6376 F   0  0  0  0  0  0  0  0  0  0  0  0
  1  2  1  0  0  0
  2  3  1  0  0  0
  2  4  1  0  0  0
  4  5  1  0  0  0
  5  6  2  0  0  0
  6  7  1  0  0  0
  7  8  2  0  0  0
  8  9  1  0  0  0
  9 10  1  0  0  0
 10 11  1  0  0  0
 11 12  2  0  0  0
 12 13  1  0  0  0
  6 14  1  0  0  0
 14 15  1  0  0  0
 15 33  1  0  0  0
 33 34  1  0  0  0
 34 35  1  0  0  0
 34 36  1  0  0  0
 34 37  1  0  0  0
 14 17  1  0  0  0
 17 18  2  0  0  0
 18 19  1  0  0  0
 19 20  2  0  0  0
 20 23  1  0  0  0
 23 25  1  0  0  0
 25 26  1  0  0  0
 26 27  1  0  0  0
 27 29  1  0  0  0
 29 30  1  0  0  0
 30 31  1  0  0  0
 31 32  1  0  0  0
 27 28  1  0  0  0
 20 21  1  0  0  0
 21 22  2  0  0  0
 15  2  1  0  0  0
 22 17  1  0  0  0
 13  5  1  0  0  0
 28 25  1  0  0  0
 13  9  2  0  0  0
 10 16  1  0  0  0
 23 24  1  0  0  0
M  END
> <minimizedAffinity>
4.18178

> <CNNscore>
0.2623710930

> <CNNaffinity>
7.4486298561

> <CNN_VS>
1.9543051720

> <CNNaffinity_variance>
0.3886310160

$$$$
[H]Oc1c([H])c([H])c2c(c1F)C([H])([H])C([H])([H])C([H])([H])C(c1c([H])c([H])c([H])c(F)c1Cl)=C2c1c([H])c([H])c(O[C@]2([H])C([H])([H])N(C([H])([H])C([H])([H])C([H])([H])F)C([H])([H])C2([H])[H])c([H])c1[H]


 38 42  0  0  0  0  0  0  0  0999 V2000
    6.4034   51.5892  127.8393 O   0  0  0  0  0  0  0  0  0  0  0  0
    7.1018   50.7215  128.6726 C   0  0  0  0  0  0  0  0  0  0  0  0
    7.6383   49.5540  128.1802 C   0  0  0  0  0  0  0  0  0  0  0  0
    8.3276   48.7313  129.0874 C   0  0  0  0  0  0  0  0  0  0  0  0
    8.4563   49.0814  130.4039 C   0  0  0  0  0  0  0  0  0  0  0  0
    7.9016   50.2706  130.8621 C   0  0  0  0  0  0  0  0  0  0  0  0
    8.0400   50.7661  132.2840 C   0  0  0  0  0  0  0  0  0  0  0  0
    9.5446   50.8330  132.4831 C   0  0  0  0  0  0  0  0  0  0  0  0
   10.1886   49.6025  132.9752 C   0  0  0  0  0  0  0  0  0  0  0  0
    9.9019   48.3366  132.2403 C   0  0  0  0  0  0  0  0  0  0  0  0
    9.1893   48.0663  131.1656 C   0  0  0  0  0  0  0  0  0  0  0  0
    7.2270   51.0938  130.0187 C   0  0  0  0  0  0  0  0  0  0  0  0
    6.7015   52.2329  130.4816 F   0  0  0  0  0  0  0  0  0  0  0  0
    6.2796   51.3724  126.8625 H   0  0  0  0  0  0  0  0  0  0  0  0
   10.4398   47.1763  132.9222 C   0  0  0  0  0  0  0  0  0  0  0  0
    9.9682   46.8090  134.1658 C   0  0  0  0  0  0  0  0  0  0  0  0
   10.4442   45.7093  134.8442 C   0  0  0  0  0  0  0  0  0  0  0  0
   11.4263   44.9247  134.2953 C   0  0  0  0  0  0  0  0  0  0  0  0
   11.9079   45.2757  133.0583 C   0  0  0  0  0  0  0  0  0  0  0  0
   12.8801   44.5093  132.5000 F   0  0  0  0  0  0  0  0  0  0  0  0
   11.4164   46.4005  132.3683 C   0  0  0  0  0  0  0  0  0  0  0  0
   12.0952   46.6802  130.7771 Cl  0  0  0  0  0  0  0  0  0  0  0  0
    9.0777   46.7435  130.5880 C   0  0  0  0  0  0  0  0  0  0  0  0
    9.5957   46.2956  129.4274 C   0  0  0  0  0  0  0  0  0  0  0  0
    9.4126   44.9789  129.0353 C   0  0  0  0  0  0  0  0  0  0  0  0
    8.7096   44.0620  129.7774 C   0  0  0  0  0  0  0  0  0  0  0  0
    8.1665   44.5144  130.9823 C   0  0  0  0  0  0  0  0  0  0  0  0
    8.3537   45.8144  131.3604 C   0  0  0  0  0  0  0  0  0  0  0  0
    8.4917   42.7441  129.4442 O   0  0  0  0  0  0  0  0  0  0  0  0
    8.7193   41.6140  130.2143 C   0  0  0  0  0  0  0  0  0  0  0  0
   10.1876   41.3554  130.4769 C   0  0  0  0  0  0  0  0  0  0  0  0
   10.4381   41.8329  131.9199 C   0  0  0  0  0  0  0  0  0  0  0  0
    9.1851   41.6382  132.5020 N   0  0  0  0  0  0  0  0  0  0  0  0
    8.1160   41.7999  131.6116 C   0  0  0  0  0  0  0  0  0  0  0  0
    9.0011   41.4643  133.8609 C   0  0  0  0  0  0  0  0  0  0  0  0
    7.6492   41.8060  134.4374 C   0  0  0  0  0  0  0  0  0  0  0  0
    6.7933   40.5750  134.6233 C   0  0  0  0  0  0  0  0  0  0  0  0
    5.4376   40.8833  134.4389 F   0  0  0  0  0  0  0  0  0  0  0  0
  1  2  1  0  0  0
  2  3  2  0  0  0
  3  4  1  0  0  0
  4  5  2  0  0  0
  5  6  1  0  0  0
  6  7  1  0  0  0
  7  8  1  0  0  0
  8  9  1  0  0  0
  9 10  1  0  0  0
 10 15  1  0  0  0
 15 16  2  0  0  0
 16 17  1  0  0  0
 17 18  2  0  0  0
 18 19  1  0  0  0
 19 20  1  0  0  0
 19 21  2  0  0  0
 21 22  1  0  0  0
 10 11  2  0  0  0
 11 23  1  0  0  0
 23 24  2  0  0  0
 24 25  1  0  0  0
 25 26  2  0  0  0
 26 29  1  0  0  0
 29 30  1  0  0  0
 30 31  1  0  0  0
 31 32  1  0  0  0
 32 33  1  0  0  0
 33 35  1  0  0  0
 35 36  1  0  0  0
 36 37  1  0  0  0
 37 38  1  0  0  0
 33 34  1  0  0  0
 26 27  1  0  0  0
 27 28  2  0  0  0
  6 12  2  0  0  0
 12 13  1  0  0  0
 12  2  1  0  0  0
 11  5  1  0  0  0
 28 23  1  0  0  0
 21 15  1  0  0  0
 34 30  1  0  0  0
  1 14  1  0  0  0
M  END
> <minimizedAffinity>
10.78765

> <CNNscore>
0.5105218887

> <CNNaffinity>
8.3294925690

> <CNN_VS>
4.2523884773

> <CNNaffinity_variance>
0.9144167900

$$$$
[H]Oc1c([H])c([H])c2c(c1F)C([H])([H])C([H])([H])C([H])([H])C(c1c([H])c([H])c([H])c(F)c1Cl)=C2c1c([H])c([H])c(O[C@]2([H])C([H])([H])N(C([H])([H])C([H])([H])C([H])([H])F)C([H])([H])C2([H])[H])c([H])c1[H]


 38 42  0  0  0  0  0  0  0  0999 V2000
    3.8542   50.1382  128.6080 O   0  0  0  0  0  0  0  0  0  0  0  0
    5.0399   49.5631  129.0534 C   0  0  0  0  0  0  0  0  0  0  0  0
    5.4718   48.3599  128.5444 C   0  0  0  0  0  0  0  0  0  0  0  0
    6.6786   47.8455  129.0482 C   0  0  0  0  0  0  0  0  0  0  0  0
    7.3898   48.5171  130.0052 C   0  0  0  0  0  0  0  0  0  0  0  0
    6.9207   49.7313  130.4925 C   0  0  0  0  0  0  0  0  0  0  0  0
    7.6645   50.5699  131.5074 C   0  0  0  0  0  0  0  0  0  0  0  0
    9.0084   50.8098  130.8410 C   0  0  0  0  0  0  0  0  0  0  0  0
   10.0474   49.7961  131.0938 C   0  0  0  0  0  0  0  0  0  0  0  0
    9.6881   48.3692  130.8494 C   0  0  0  0  0  0  0  0  0  0  0  0
    8.5975   47.7849  130.3966 C   0  0  0  0  0  0  0  0  0  0  0  0
    5.7588   50.2631  130.0330 C   0  0  0  0  0  0  0  0  0  0  0  0
    5.3267   51.4325  130.5164 F   0  0  0  0  0  0  0  0  0  0  0  0
    3.2942   49.6791  127.9065 H   0  0  0  0  0  0  0  0  0  0  0  0
   10.7215   47.4608  131.3049 C   0  0  0  0  0  0  0  0  0  0  0  0
   11.3503   46.6091  130.4200 C   0  0  0  0  0  0  0  0  0  0  0  0
   12.3431   45.7374  130.8082 C   0  0  0  0  0  0  0  0  0  0  0  0
   12.7490   45.6838  132.1173 C   0  0  0  0  0  0  0  0  0  0  0  0
   12.1337   46.5242  133.0121 C   0  0  0  0  0  0  0  0  0  0  0  0
   12.5240   46.4844  134.3123 F   0  0  0  0  0  0  0  0  0  0  0  0
   11.1200   47.4147  132.6093 C   0  0  0  0  0  0  0  0  0  0  0  0
   10.4755   48.4585  133.8606 Cl  0  0  0  0  0  0  0  0  0  0  0  0
    8.4764   46.3563  130.1955 C   0  0  0  0  0  0  0  0  0  0  0  0
    8.5701   45.6674  129.0411 C   0  0  0  0  0  0  0  0  0  0  0  0
    8.4543   44.2863  129.0330 C   0  0  0  0  0  0  0  0  0  0  0  0
    8.2404   43.5409  130.1664 C   0  0  0  0  0  0  0  0  0  0  0  0
    8.1403   44.2437  131.3695 C   0  0  0  0  0  0  0  0  0  0  0  0
    8.2569   45.6054  131.3667 C   0  0  0  0  0  0  0  0  0  0  0  0
    8.1159   42.1712  130.2251 O   0  0  0  0  0  0  0  0  0  0  0  0
    8.7089   41.2917  131.1180 C   0  0  0  0  0  0  0  0  0  0  0  0
   10.1790   41.0597  130.8411 C   0  0  0  0  0  0  0  0  0  0  0  0
   10.9331   41.9095  131.8814 C   0  0  0  0  0  0  0  0  0  0  0  0
   10.0227   41.9331  132.9384 N   0  0  0  0  0  0  0  0  0  0  0  0
    8.6829   41.8822  132.5328 C   0  0  0  0  0  0  0  0  0  0  0  0
   10.3940   42.1513  134.2519 C   0  0  0  0  0  0  0  0  0  0  0  0
   11.0222   43.4797  134.5942 C   0  0  0  0  0  0  0  0  0  0  0  0
   10.0223   44.6093  134.5103 C   0  0  0  0  0  0  0  0  0  0  0  0
   10.0970   45.4212  135.6514 F   0  0  0  0  0  0  0  0  0  0  0  0
  1  2  1  0  0  0
  2  3  2  0  0  0
  3  4  1  0  0  0
  4  5  2  0  0  0
  5  6  1  0  0  0
  6  7  1  0  0  0
  7  8  1  0  0  0
  8  9  1  0  0  0
  9 10  1  0  0  0
 10 15  1  0  0  0
 15 16  2  0  0  0
 16 17  1  0  0  0
 17 18  2  0  0  0
 18 19  1  0  0  0
 19 20  1  0  0  0
 19 21  2  0  0  0
 21 22  1  0  0  0
 10 11  2  0  0  0
 11 23  1  0  0  0
 23 24  2  0  0  0
 24 25  1  0  0  0
 25 26  2  0  0  0
 26 29  1  0  0  0
 29 30  1  0  0  0
 30 31  1  0  0  0
 31 32  1  0  0  0
 32 33  1  0  0  0
 33 35  1  0  0  0
 35 36  1  0  0  0
 36 37  1  0  0  0
 37 38  1  0  0  0
 33 34  1  0  0  0
 26 27  1  0  0  0
 27 28  2  0  0  0
  6 12  2  0  0  0
 12 13  1  0  0  0
 12  2  1  0  0  0
 11  5  1  0  0  0
 28 23  1  0  0  0
 21 15  1  0  0  0
 34 30  1  0  0  0
  1 14  1  0  0  0
M  END
> <minimizedAffinity>
6.74614

> <CNNscore>
0.4399660230

> <CNNaffinity>
8.4027843475

> <CNN_VS>
3.6969397068

> <CNNaffinity_variance>
0.6382693052

$$$$
[H]Oc1c([H])c([H])c2c(c1F)C([H])([H])C([H])([H])C([H])([H])C(c1c([H])c([H])c([H])c(F)c1Cl)=C2c1c([H])c([H])c(O[C@]2([H])C([H])([H])N(C([H])([H])C([H])([H])C([H])([H])F)C([H])([H])C2([H])[H])c([H])c1[H]


 38 42  0  0  0  0  0  0  0  0999 V2000
   12.9632   43.2044  126.4150 O   0  0  0  0  0  0  0  0  0  0  0  0
   12.3042   43.6727  127.5471 C   0  0  0  0  0  0  0  0  0  0  0  0
   10.9308   43.7505  127.5787 C   0  0  0  0  0  0  0  0  0  0  0  0
   10.3422   44.2359  128.7589 C   0  0  0  0  0  0  0  0  0  0  0  0
   11.1076   44.6143  129.8281 C   0  0  0  0  0  0  0  0  0  0  0  0
   12.4925   44.5186  129.7574 C   0  0  0  0  0  0  0  0  0  0  0  0
   13.4152   44.8601  130.9056 C   0  0  0  0  0  0  0  0  0  0  0  0
   12.9301   43.9518  132.0224 C   0  0  0  0  0  0  0  0  0  0  0  0
   11.8593   44.4921  132.8784 C   0  0  0  0  0  0  0  0  0  0  0  0
   10.6469   45.0352  132.2003 C   0  0  0  0  0  0  0  0  0  0  0  0
   10.2851   45.1091  130.9356 C   0  0  0  0  0  0  0  0  0  0  0  0
   13.1012   44.0554  128.6354 C   0  0  0  0  0  0  0  0  0  0  0  0
   14.4350   43.9720  128.5898 F   0  0  0  0  0  0  0  0  0  0  0  0
   12.4420   42.9172  125.6011 H   0  0  0  0  0  0  0  0  0  0  0  0
    9.7539   45.6991  133.1291 C   0  0  0  0  0  0  0  0  0  0  0  0
    9.9428   47.0247  133.4620 C   0  0  0  0  0  0  0  0  0  0  0  0
    9.1133   47.6963  134.3321 C   0  0  0  0  0  0  0  0  0  0  0  0
    8.0478   47.0556  134.9115 C   0  0  0  0  0  0  0  0  0  0  0  0
    7.8448   45.7358  134.5920 C   0  0  0  0  0  0  0  0  0  0  0  0
    6.7940   45.0866  135.1565 F   0  0  0  0  0  0  0  0  0  0  0  0
    8.6954   45.0543  133.7004 C   0  0  0  0  0  0  0  0  0  0  0  0
    8.2679   43.3906  133.3541 Cl  0  0  0  0  0  0  0  0  0  0  0  0
    9.0176   45.6512  130.4934 C   0  0  0  0  0  0  0  0  0  0  0  0
    7.7785   45.3017  130.8914 C   0  0  0  0  0  0  0  0  0  0  0  0
    6.6649   45.9488  130.3796 C   0  0  0  0  0  0  0  0  0  0  0  0
    6.7399   46.9622  129.4559 C   0  0  0  0  0  0  0  0  0  0  0  0
    8.0190   47.3331  129.0344 C   0  0  0  0  0  0  0  0  0  0  0  0
    9.1107   46.6893  129.5460 C   0  0  0  0  0  0  0  0  0  0  0  0
    5.6751   47.6426  128.9097 O   0  0  0  0  0  0  0  0  0  0  0  0
    5.5359   49.0083  128.7160 C   0  0  0  0  0  0  0  0  0  0  0  0
    4.6327   49.6677  129.7364 C   0  0  0  0  0  0  0  0  0  0  0  0
    5.5777   50.3656  130.7328 C   0  0  0  0  0  0  0  0  0  0  0  0
    6.6813   50.6441  129.9258 N   0  0  0  0  0  0  0  0  0  0  0  0
    6.8878   49.7065  128.9058 C   0  0  0  0  0  0  0  0  0  0  0  0
    7.5837   51.6544  130.2007 C   0  0  0  0  0  0  0  0  0  0  0  0
    8.6159   51.4038  131.2724 C   0  0  0  0  0  0  0  0  0  0  0  0
    9.1000   49.9727  131.2586 C   0  0  0  0  0  0  0  0  0  0  0  0
   10.0369   49.7778  130.2334 F   0  0  0  0  0  0  0  0  0  0  0  0
  1  2  1  0  0  0
  2  3  2  0  0  0
  3  4  1  0  0  0
  4  5  2  0  0  0
  5  6  1  0  0  0
  6  7  1  0  0  0
  7  8  1  0  0  0
  8  9  1  0  0  0
  9 10  1  0  0  0
 10 15  1  0  0  0
 15 16  2  0  0  0
 16 17  1  0  0  0
 17 18  2  0  0  0
 18 19  1  0  0  0
 19 20  1  0  0  0
 19 21  2  0  0  0
 21 22  1  0  0  0
 10 11  2  0  0  0
 11 23  1  0  0  0
 23 24  2  0  0  0
 24 25  1  0  0  0
 25 26  2  0  0  0
 26 29  1  0  0  0
 29 30  1  0  0  0
 30 31  1  0  0  0
 31 32  1  0  0  0
 32 33  1  0  0  0
 33 35  1  0  0  0
 35 36  1  0  0  0
 36 37  1  0  0  0
 37 38  1  0  0  0
 33 34  1  0  0  0
 26 27  1  0  0  0
 27 28  2  0  0  0
  6 12  2  0  0  0
 12 13  1  0  0  0
 12  2  1  0  0  0
 11  5  1  0  0  0
 28 23  1  0  0  0
 21 15  1  0  0  0
 34 30  1  0  0  0
  1 14  1  0  0  0
M  END
> <minimizedAffinity>
5.65092

> <CNNscore>
0.3881045282

> <CNNaffinity>
8.2826385498

> <CNN_VS>
3.2145295143

> <CNNaffinity_variance>
0.7315875292

$$$$
[H]Oc1c([H])c([H])c2c(c1F)C([H])([H])C([H])([H])C([H])([H])C(c1c([H])c([H])c([H])c(F)c1Cl)=C2c1c([H])c([H])c(O[C@]2([H])C([H])([H])N(C([H])([H])C([H])([H])C([H])([H])F)C([H])([H])C2([H])[H])c([H])c1[H]


 38 42  0  0  0  0  0  0  0  0999 V2000
   12.7159   43.3104  126.4949 O   0  0  0  0  0  0  0  0  0  0  0  0
   12.0786   43.8094  127.6263 C   0  0  0  0  0  0  0  0  0  0  0  0
   10.7153   43.9953  127.6403 C   0  0  0  0  0  0  0  0  0  0  0  0
   10.1488   44.5049  128.8210 C   0  0  0  0  0  0  0  0  0  0  0  0
   10.9252   44.8024  129.9078 C   0  0  0  0  0  0  0  0  0  0  0  0
   12.2990   44.5984  129.8546 C   0  0  0  0  0  0  0  0  0  0  0  0
   13.2281   44.8452  131.0218 C   0  0  0  0  0  0  0  0  0  0  0  0
   12.6556   43.9587  132.1145 C   0  0  0  0  0  0  0  0  0  0  0  0
   11.6178   44.5670  132.9654 C   0  0  0  0  0  0  0  0  0  0  0  0
   10.4626   45.2165  132.2809 C   0  0  0  0  0  0  0  0  0  0  0  0
   10.1273   45.3412  131.0128 C   0  0  0  0  0  0  0  0  0  0  0  0
   12.8865   44.1083  128.7327 C   0  0  0  0  0  0  0  0  0  0  0  0
   14.2101   43.9203  128.7041 F   0  0  0  0  0  0  0  0  0  0  0  0
   12.1862   43.0799  125.6686 H   0  0  0  0  0  0  0  0  0  0  0  0
    9.6107   45.9325  133.2094 C   0  0  0  0  0  0  0  0  0  0  0  0
    8.7287   45.2524  134.0238 C   0  0  0  0  0  0  0  0  0  0  0  0
    7.9085   45.8921  134.9262 C   0  0  0  0  0  0  0  0  0  0  0  0
    7.9401   47.2579  135.0480 C   0  0  0  0  0  0  0  0  0  0  0  0
    8.8117   47.9513  134.2450 C   0  0  0  0  0  0  0  0  0  0  0  0
    8.8561   49.3043  134.3533 F   0  0  0  0  0  0  0  0  0  0  0  0
    9.6493   47.2919  133.3249 C   0  0  0  0  0  0  0  0  0  0  0  0
   10.7431   48.3147  132.4150 Cl  0  0  0  0  0  0  0  0  0  0  0  0
    8.9136   45.9899  130.5633 C   0  0  0  0  0  0  0  0  0  0  0  0
    7.6387   45.6605  130.8496 C   0  0  0  0  0  0  0  0  0  0  0  0
    6.5872   46.4135  130.3514 C   0  0  0  0  0  0  0  0  0  0  0  0
    6.7619   47.5164  129.5521 C   0  0  0  0  0  0  0  0  0  0  0  0
    8.0791   47.8675  129.2471 C   0  0  0  0  0  0  0  0  0  0  0  0
    9.1089   47.1190  129.7442 C   0  0  0  0  0  0  0  0  0  0  0  0
    5.7625   48.3037  129.0261 O   0  0  0  0  0  0  0  0  0  0  0  0
    5.4180   49.6010  129.3730 C   0  0  0  0  0  0  0  0  0  0  0  0
    5.9749   50.0289  130.7141 C   0  0  0  0  0  0  0  0  0  0  0  0
    7.1876   50.9221  130.3904 C   0  0  0  0  0  0  0  0  0  0  0  0
    6.8238   51.4520  129.1520 N   0  0  0  0  0  0  0  0  0  0  0  0
    6.0338   50.5922  128.3783 C   0  0  0  0  0  0  0  0  0  0  0  0
    7.3267   52.6425  128.6615 C   0  0  0  0  0  0  0  0  0  0  0  0
    6.9791   53.0220  127.2431 C   0  0  0  0  0  0  0  0  0  0  0  0
    7.5843   54.3510  126.8556 C   0  0  0  0  0  0  0  0  0  0  0  0
    8.4757   54.1945  125.7843 F   0  0  0  0  0  0  0  0  0  0  0  0
  1  2  1  0  0  0
  2  3  2  0  0  0
  3  4  1  0  0  0
  4  5  2  0  0  0
  5  6  1  0  0  0
  6  7  1  0  0  0
  7  8  1  0  0  0
  8  9  1  0  0  0
  9 10  1  0  0  0
 10 15  1  0  0  0
 15 16  2  0  0  0
 16 17  1  0  0  0
 17 18  2  0  0  0
 18 19  1  0  0  0
 19 20  1  0  0  0
 19 21  2  0  0  0
 21 22  1  0  0  0
 10 11  2  0  0  0
 11 23  1  0  0  0
 23 24  2  0  0  0
 24 25  1  0  0  0
 25 26  2  0  0  0
 26 29  1  0  0  0
 29 30  1  0  0  0
 30 31  1  0  0  0
 31 32  1  0  0  0
 32 33  1  0  0  0
 33 35  1  0  0  0
 35 36  1  0  0  0
 36 37  1  0  0  0
 37 38  1  0  0  0
 33 34  1  0  0  0
 26 27  1  0  0  0
 27 28  2  0  0  0
  6 12  2  0  0  0
 12 13  1  0  0  0
 12  2  1  0  0  0
 11  5  1  0  0  0
 28 23  1  0  0  0
 21 15  1  0  0  0
 34 30  1  0  0  0
  1 14  1  0  0  0
M  END
> <minimizedAffinity>
4.30588

> <CNNscore>
0.3840858638

> <CNNaffinity>
8.1585540771

> <CNN_VS>
3.1335852146

> <CNNaffinity_variance>
0.8595696688

$$$$
[H]Oc1c([H])c([H])c2c(c1F)C([H])([H])C([H])([H])C([H])([H])C(c1c([H])c([H])c([H])c(F)c1Cl)=C2c1c([H])c([H])c(O[C@]2([H])C([H])([H])N(C([H])([H])C([H])([H])C([H])([H])F)C([H])([H])C2([H])[H])c([H])c1[H]


 38 42  0  0  0  0  0  0  0  0999 V2000
    6.4790   51.5186  128.0345 O   0  0  0  0  0  0  0  0  0  0  0  0
    7.1170   50.6823  128.9449 C   0  0  0  0  0  0  0  0  0  0  0  0
    7.5259   49.4219  128.5742 C   0  0  0  0  0  0  0  0  0  0  0  0
    8.1613   48.6390  129.5531 C   0  0  0  0  0  0  0  0  0  0  0  0
    8.3618   49.1153  130.8202 C   0  0  0  0  0  0  0  0  0  0  0  0
    7.9357   50.3952  131.1548 C   0  0  0  0  0  0  0  0  0  0  0  0
    8.1628   51.0257  132.5103 C   0  0  0  0  0  0  0  0  0  0  0  0
    9.6722   50.9673  132.6717 C   0  0  0  0  0  0  0  0  0  0  0  0
   10.2116   49.7405  133.2842 C   0  0  0  0  0  0  0  0  0  0  0  0
    9.7848   48.4364  132.6993 C   0  0  0  0  0  0  0  0  0  0  0  0
    9.0180   48.1220  131.6750 C   0  0  0  0  0  0  0  0  0  0  0  0
    7.3170   51.1841  130.2390 C   0  0  0  0  0  0  0  0  0  0  0  0
    6.9155   52.4121  130.5833 F   0  0  0  0  0  0  0  0  0  0  0  0
    6.3061   51.2105  127.0902 H   0  0  0  0  0  0  0  0  0  0  0  0
   10.2309   47.3099  133.4946 C   0  0  0  0  0  0  0  0  0  0  0  0
   11.3324   46.5714  133.1139 C   0  0  0  0  0  0  0  0  0  0  0  0
   11.7957   45.5001  133.8446 C   0  0  0  0  0  0  0  0  0  0  0  0
   11.1629   45.1213  135.0011 C   0  0  0  0  0  0  0  0  0  0  0  0
   10.0644   45.8448  135.3951 C   0  0  0  0  0  0  0  0  0  0  0  0
    9.4264   45.4834  136.5382 F   0  0  0  0  0  0  0  0  0  0  0  0
    9.5958   46.9403  134.6447 C   0  0  0  0  0  0  0  0  0  0  0  0
    8.2176   47.7925  135.3117 Cl  0  0  0  0  0  0  0  0  0  0  0  0
    8.7648   46.7617  131.2493 C   0  0  0  0  0  0  0  0  0  0  0  0
    7.8483   45.8970  131.7270 C   0  0  0  0  0  0  0  0  0  0  0  0
    7.7224   44.6297  131.1803 C   0  0  0  0  0  0  0  0  0  0  0  0
    8.5000   44.1750  130.1438 C   0  0  0  0  0  0  0  0  0  0  0  0
    9.4548   45.0618  129.6403 C   0  0  0  0  0  0  0  0  0  0  0  0
    9.5702   46.3096  130.1859 C   0  0  0  0  0  0  0  0  0  0  0  0
    8.4254   42.9313  129.5583 O   0  0  0  0  0  0  0  0  0  0  0  0
    9.3438   42.3201  128.7187 C   0  0  0  0  0  0  0  0  0  0  0  0
    9.2411   42.7845  127.2815 C   0  0  0  0  0  0  0  0  0  0  0  0
   10.4046   43.7748  127.0847 C   0  0  0  0  0  0  0  0  0  0  0  0
   11.3405   43.2947  128.0014 N   0  0  0  0  0  0  0  0  0  0  0  0
   10.7699   42.7002  129.1341 C   0  0  0  0  0  0  0  0  0  0  0  0
   12.6985   43.5264  127.8877 C   0  0  0  0  0  0  0  0  0  0  0  0
   13.2878   44.6630  128.6861 C   0  0  0  0  0  0  0  0  0  0  0  0
   13.4658   44.2918  130.1398 C   0  0  0  0  0  0  0  0  0  0  0  0
   12.3390   44.6650  130.8867 F   0  0  0  0  0  0  0  0  0  0  0  0
  1  2  1  0  0  0
  2  3  2  0  0  0
  3  4  1  0  0  0
  4  5  2  0  0  0
  5  6  1  0  0  0
  6  7  1  0  0  0
  7  8  1  0  0  0
  8  9  1  0  0  0
  9 10  1  0  0  0
 10 15  1  0  0  0
 15 16  2  0  0  0
 16 17  1  0  0  0
 17 18  2  0  0  0
 18 19  1  0  0  0
 19 20  1  0  0  0
 19 21  2  0  0  0
 21 22  1  0  0  0
 10 11  2  0  0  0
 11 23  1  0  0  0
 23 24  2  0  0  0
 24 25  1  0  0  0
 25 26  2  0  0  0
 26 29  1  0  0  0
 29 30  1  0  0  0
 30 31  1  0  0  0
 31 32  1  0  0  0
 32 33  1  0  0  0
 33 35  1  0  0  0
 35 36  1  0  0  0
 36 37  1  0  0  0
 37 38  1  0  0  0
 33 34  1  0  0  0
 26 27  1  0  0  0
 27 28  2  0  0  0
  6 12  2  0  0  0
 12 13  1  0  0  0
 12  2  1  0  0  0
 11  5  1  0  0  0
 28 23  1  0  0  0
 21 15  1  0  0  0
 34 30  1  0  0  0
  1 14  1  0  0  0
M  END
> <minimizedAffinity>
9.39627

> <CNNscore>
0.3753937185

> <CNNaffinity>
8.0851392746

> <CNN_VS>
3.0351104736

> <CNNaffinity_variance>
0.6002621651

$$$$
[H]Oc1c([H])c([H])c2c(c1F)C([H])([H])C([H])([H])C([H])([H])C(c1c([H])c([H])c([H])c(F)c1Cl)=C2c1c([H])c([H])c(O[C@]2([H])C([H])([H])N(C([H])([H])C([H])([H])C([H])([H])F)C([H])([H])C2([H])[H])c([H])c1[H]


 38 42  0  0  0  0  0  0  0  0999 V2000
    6.6467   51.5363  127.5828 O   0  0  0  0  0  0  0  0  0  0  0  0
    7.1782   50.7388  128.5911 C   0  0  0  0  0  0  0  0  0  0  0  0
    7.4891   49.4197  128.3532 C   0  0  0  0  0  0  0  0  0  0  0  0
    8.0203   48.6818  129.4248 C   0  0  0  0  0  0  0  0  0  0  0  0
    8.2174   49.2562  130.6510 C   0  0  0  0  0  0  0  0  0  0  0  0
    7.8924   50.5928  130.8505 C   0  0  0  0  0  0  0  0  0  0  0  0
    8.1263   51.3262  132.1520 C   0  0  0  0  0  0  0  0  0  0  0  0
    9.6185   51.1581  132.3816 C   0  0  0  0  0  0  0  0  0  0  0  0
   10.0283   49.9535  133.1246 C   0  0  0  0  0  0  0  0  0  0  0  0
    9.5107   48.6404  132.6422 C   0  0  0  0  0  0  0  0  0  0  0  0
    8.7555   48.2962  131.6190 C   0  0  0  0  0  0  0  0  0  0  0  0
    7.3761   51.3411  129.8418 C   0  0  0  0  0  0  0  0  0  0  0  0
    7.0707   52.6250  130.0566 F   0  0  0  0  0  0  0  0  0  0  0  0
    6.4805   51.1567  126.6636 H   0  0  0  0  0  0  0  0  0  0  0  0
    9.8301   47.5600  133.5542 C   0  0  0  0  0  0  0  0  0  0  0  0
    8.9550   47.2063  134.5606 C   0  0  0  0  0  0  0  0  0  0  0  0
    9.2144   46.1809  135.4423 C   0  0  0  0  0  0  0  0  0  0  0  0
   10.3781   45.4608  135.3489 C   0  0  0  0  0  0  0  0  0  0  0  0
   11.2610   45.7994  134.3533 C   0  0  0  0  0  0  0  0  0  0  0  0
   12.4179   45.0962  134.2464 F   0  0  0  0  0  0  0  0  0  0  0  0
   10.9900   46.8481  133.4535 C   0  0  0  0  0  0  0  0  0  0  0  0
   12.1916   47.1176  132.2068 Cl  0  0  0  0  0  0  0  0  0  0  0  0
    8.4003   46.9277  131.3075 C   0  0  0  0  0  0  0  0  0  0  0  0
    7.3303   46.2280  131.7333 C   0  0  0  0  0  0  0  0  0  0  0  0
    7.1280   44.9233  131.3118 C   0  0  0  0  0  0  0  0  0  0  0  0
    7.9782   44.2669  130.4561 C   0  0  0  0  0  0  0  0  0  0  0  0
    9.0920   44.9814  130.0083 C   0  0  0  0  0  0  0  0  0  0  0  0
    9.2818   46.2678  130.4293 C   0  0  0  0  0  0  0  0  0  0  0  0
    7.8344   42.9754  130.0017 O   0  0  0  0  0  0  0  0  0  0  0  0
    8.6985   41.9042  130.1689 C   0  0  0  0  0  0  0  0  0  0  0  0
    9.8045   41.8616  129.1362 C   0  0  0  0  0  0  0  0  0  0  0  0
   11.0582   42.3979  129.8531 C   0  0  0  0  0  0  0  0  0  0  0  0
   10.8004   42.0389  131.1765 N   0  0  0  0  0  0  0  0  0  0  0  0
    9.4389   42.0299  131.5057 C   0  0  0  0  0  0  0  0  0  0  0  0
   11.7948   41.8673  132.1212 C   0  0  0  0  0  0  0  0  0  0  0  0
   12.6623   43.0562  132.4537 C   0  0  0  0  0  0  0  0  0  0  0  0
   12.5815   44.1231  131.3870 C   0  0  0  0  0  0  0  0  0  0  0  0
   13.7084   44.0752  130.5537 F   0  0  0  0  0  0  0  0  0  0  0  0
  1  2  1  0  0  0
  2  3  2  0  0  0
  3  4  1  0  0  0
  4  5  2  0  0  0
  5  6  1  0  0  0
  6  7  1  0  0  0
  7  8  1  0  0  0
  8  9  1  0  0  0
  9 10  1  0  0  0
 10 15  1  0  0  0
 15 16  2  0  0  0
 16 17  1  0  0  0
 17 18  2  0  0  0
 18 19  1  0  0  0
 19 20  1  0  0  0
 19 21  2  0  0  0
 21 22  1  0  0  0
 10 11  2  0  0  0
 11 23  1  0  0  0
 23 24  2  0  0  0
 24 25  1  0  0  0
 25 26  2  0  0  0
 26 29  1  0  0  0
 29 30  1  0  0  0
 30 31  1  0  0  0
 31 32  1  0  0  0
 32 33  1  0  0  0
 33 35  1  0  0  0
 35 36  1  0  0  0
 36 37  1  0  0  0
 37 38  1  0  0  0
 33 34  1  0  0  0
 26 27  1  0  0  0
 27 28  2  0  0  0
  6 12  2  0  0  0
 12 13  1  0  0  0
 12  2  1  0  0  0
 11  5  1  0  0  0
 28 23  1  0  0  0
 21 15  1  0  0  0
 34 30  1  0  0  0
  1 14  1  0  0  0
M  END
> <minimizedAffinity>
7.79622

> <CNNscore>
0.3749038875

> <CNNaffinity>
8.0648937225

> <CNN_VS>
3.0235600471

> <CNNaffinity_variance>
0.4247959256

$$$$
[H]Oc1c([H])c([H])c2c(c1F)C([H])([H])C([H])([H])C([H])([H])C(c1c([H])c([H])c([H])c(F)c1Cl)=C2c1c([H])c([H])c(O[C@]2([H])C([H])([H])N(C([H])([H])C([H])([H])C([H])([H])F)C([H])([H])C2([H])[H])c([H])c1[H]


 38 42  0  0  0  0  0  0  0  0999 V2000
    6.8361   48.8409  126.4814 O   0  0  0  0  0  0  0  0  0  0  0  0
    7.3431   48.6659  127.7650 C   0  0  0  0  0  0  0  0  0  0  0  0
    8.1904   47.6196  128.0492 C   0  0  0  0  0  0  0  0  0  0  0  0
    8.6570   47.5119  129.3703 C   0  0  0  0  0  0  0  0  0  0  0  0
    8.2810   48.4122  130.3297 C   0  0  0  0  0  0  0  0  0  0  0  0
    7.4247   49.4569  130.0020 C   0  0  0  0  0  0  0  0  0  0  0  0
    6.9996   50.5292  130.9796 C   0  0  0  0  0  0  0  0  0  0  0  0
    8.3203   51.1211  131.4414 C   0  0  0  0  0  0  0  0  0  0  0  0
    8.9480   50.4743  132.6071 C   0  0  0  0  0  0  0  0  0  0  0  0
    9.1271   48.9944  132.5572 C   0  0  0  0  0  0  0  0  0  0  0  0
    8.8672   48.0911  131.6340 C   0  0  0  0  0  0  0  0  0  0  0  0
    6.9504   49.5968  128.7373 C   0  0  0  0  0  0  0  0  0  0  0  0
    6.1277   50.6095  128.4449 F   0  0  0  0  0  0  0  0  0  0  0  0
    7.0821   48.2010  125.7420 H   0  0  0  0  0  0  0  0  0  0  0  0
    9.5817   48.4570  133.8242 C   0  0  0  0  0  0  0  0  0  0  0  0
    8.7213   48.3638  134.8988 C   0  0  0  0  0  0  0  0  0  0  0  0
    9.1089   47.8512  136.1168 C   0  0  0  0  0  0  0  0  0  0  0  0
   10.3925   47.4073  136.3079 C   0  0  0  0  0  0  0  0  0  0  0  0
   11.2627   47.4929  135.2492 C   0  0  0  0  0  0  0  0  0  0  0  0
   12.5374   47.0572  135.4213 F   0  0  0  0  0  0  0  0  0  0  0  0
   10.8606   48.0166  134.0055 C   0  0  0  0  0  0  0  0  0  0  0  0
   12.0738   48.0054  132.7411 Cl  0  0  0  0  0  0  0  0  0  0  0  0
    9.1653   46.6822  131.7826 C   0  0  0  0  0  0  0  0  0  0  0  0
   10.3734   46.0922  131.8741 C   0  0  0  0  0  0  0  0  0  0  0  0
   10.4771   44.7203  132.0416 C   0  0  0  0  0  0  0  0  0  0  0  0
    9.3891   43.8863  132.1228 C   0  0  0  0  0  0  0  0  0  0  0  0
    8.1309   44.4859  132.0282 C   0  0  0  0  0  0  0  0  0  0  0  0
    8.0396   45.8396  131.8641 C   0  0  0  0  0  0  0  0  0  0  0  0
    9.4246   42.5200  132.2876 O   0  0  0  0  0  0  0  0  0  0  0  0
    9.5013   41.5382  131.3117 C   0  0  0  0  0  0  0  0  0  0  0  0
    8.1848   41.2936  130.6055 C   0  0  0  0  0  0  0  0  0  0  0  0
    8.3059   42.0120  129.2481 C   0  0  0  0  0  0  0  0  0  0  0  0
    9.6815   41.9544  129.0214 N   0  0  0  0  0  0  0  0  0  0  0  0
   10.4499   41.9830  130.1922 C   0  0  0  0  0  0  0  0  0  0  0  0
   10.2441   42.0279  127.7609 C   0  0  0  0  0  0  0  0  0  0  0  0
   10.8722   43.3354  127.3457 C   0  0  0  0  0  0  0  0  0  0  0  0
   10.4407   44.4725  128.2421 C   0  0  0  0  0  0  0  0  0  0  0  0
   11.5548   45.0857  128.8334 F   0  0  0  0  0  0  0  0  0  0  0  0
  1  2  1  0  0  0
  2  3  2  0  0  0
  3  4  1  0  0  0
  4  5  2  0  0  0
  5  6  1  0  0  0
  6  7  1  0  0  0
  7  8  1  0  0  0
  8  9  1  0  0  0
  9 10  1  0  0  0
 10 15  1  0  0  0
 15 16  2  0  0  0
 16 17  1  0  0  0
 17 18  2  0  0  0
 18 19  1  0  0  0
 19 20  1  0  0  0
 19 21  2  0  0  0
 21 22  1  0  0  0
 10 11  2  0  0  0
 11 23  1  0  0  0
 23 24  2  0  0  0
 24 25  1  0  0  0
 25 26  2  0  0  0
 26 29  1  0  0  0
 29 30  1  0  0  0
 30 31  1  0  0  0
 31 32  1  0  0  0
 32 33  1  0  0  0
 33 35  1  0  0  0
 35 36  1  0  0  0
 36 37  1  0  0  0
 37 38  1  0  0  0
 33 34  1  0  0  0
 26 27  1  0  0  0
 27 28  2  0  0  0
  6 12  2  0  0  0
 12 13  1  0  0  0
 12  2  1  0  0  0
 11  5  1  0  0  0
 28 23  1  0  0  0
 21 15  1  0  0  0
 34 30  1  0  0  0
  1 14  1  0  0  0
M  END
> <minimizedAffinity>
19.34081

> <CNNscore>
0.3679644167

> <CNNaffinity>
7.8577523232

> <CNN_VS>
2.8913731575

> <CNNaffinity_variance>
0.9281128049

$$$$
[H]Oc1c([H])c([H])c2c(c1F)C([H])([H])C([H])([H])C([H])([H])C(c1c([H])c([H])c([H])c(F)c1Cl)=C2c1c([H])c([H])c(O[C@]2([H])C([H])([H])N(C([H])([H])C([H])([H])C([H])([H])F)C([H])([H])C2([H])[H])c([H])c1[H]


 38 42  0  0  0  0  0  0  0  0999 V2000
    6.5725   52.1334  128.2721 O   0  0  0  0  0  0  0  0  0  0  0  0
    7.1008   51.0767  129.0065 C   0  0  0  0  0  0  0  0  0  0  0  0
    7.8554   50.1030  128.3935 C   0  0  0  0  0  0  0  0  0  0  0  0
    8.3511   49.0686  129.2054 C   0  0  0  0  0  0  0  0  0  0  0  0
    8.0906   49.0359  130.5483 C   0  0  0  0  0  0  0  0  0  0  0  0
    7.3256   50.0398  131.1304 C   0  0  0  0  0  0  0  0  0  0  0  0
    7.0329   50.1171  132.6119 C   0  0  0  0  0  0  0  0  0  0  0  0
    8.4167   50.1475  133.2378 C   0  0  0  0  0  0  0  0  0  0  0  0
    9.0176   48.8378  133.5459 C   0  0  0  0  0  0  0  0  0  0  0  0
    9.0564   47.8258  132.4509 C   0  0  0  0  0  0  0  0  0  0  0  0
    8.6849   47.8584  131.1872 C   0  0  0  0  0  0  0  0  0  0  0  0
    6.8271   51.0570  130.3817 C   0  0  0  0  0  0  0  0  0  0  0  0
    6.0935   52.0119  130.9630 F   0  0  0  0  0  0  0  0  0  0  0  0
    6.7346   52.1985  127.2791 H   0  0  0  0  0  0  0  0  0  0  0  0
    9.4984   46.5286  132.9226 C   0  0  0  0  0  0  0  0  0  0  0  0
    8.5855   45.5859  133.3490 C   0  0  0  0  0  0  0  0  0  0  0  0
    8.9612   44.3387  133.7956 C   0  0  0  0  0  0  0  0  0  0  0  0
   10.2855   43.9834  133.8340 C   0  0  0  0  0  0  0  0  0  0  0  0
   11.2081   44.9093  133.4137 C   0  0  0  0  0  0  0  0  0  0  0  0
   12.5236   44.5735  133.4446 F   0  0  0  0  0  0  0  0  0  0  0  0
   10.8182   46.1829  132.9565 C   0  0  0  0  0  0  0  0  0  0  0  0
   12.1118   47.2274  132.4032 Cl  0  0  0  0  0  0  0  0  0  0  0  0
    8.8550   46.7501  130.2715 C   0  0  0  0  0  0  0  0  0  0  0  0
    8.1192   45.6248  130.1809 C   0  0  0  0  0  0  0  0  0  0  0  0
    8.4074   44.6696  129.2188 C   0  0  0  0  0  0  0  0  0  0  0  0
    9.4340   44.7952  128.3154 C   0  0  0  0  0  0  0  0  0  0  0  0
   10.2049   45.9571  128.3997 C   0  0  0  0  0  0  0  0  0  0  0  0
    9.9118   46.8932  129.3514 C   0  0  0  0  0  0  0  0  0  0  0  0
    9.7715   43.8852  127.3391 O   0  0  0  0  0  0  0  0  0  0  0  0
   10.0117   42.5267  127.4764 C   0  0  0  0  0  0  0  0  0  0  0  0
   11.2916   42.2187  128.2238 C   0  0  0  0  0  0  0  0  0  0  0  0
   10.8527   41.8221  129.6462 C   0  0  0  0  0  0  0  0  0  0  0  0
    9.5837   41.2920  129.4112 N   0  0  0  0  0  0  0  0  0  0  0  0
    8.9142   41.8828  128.3320 C   0  0  0  0  0  0  0  0  0  0  0  0
    8.9738   40.3856  130.2582 C   0  0  0  0  0  0  0  0  0  0  0  0
    9.0194   38.9262  129.8779 C   0  0  0  0  0  0  0  0  0  0  0  0
   10.3737   38.3176  130.1576 C   0  0  0  0  0  0  0  0  0  0  0  0
   11.2664   38.5971  129.1127 F   0  0  0  0  0  0  0  0  0  0  0  0
  1  2  1  0  0  0
  2  3  2  0  0  0
  3  4  1  0  0  0
  4  5  2  0  0  0
  5  6  1  0  0  0
  6  7  1  0  0  0
  7  8  1  0  0  0
  8  9  1  0  0  0
  9 10  1  0  0  0
 10 15  1  0  0  0
 15 16  2  0  0  0
 16 17  1  0  0  0
 17 18  2  0  0  0
 18 19  1  0  0  0
 19 20  1  0  0  0
 19 21  2  0  0  0
 21 22  1  0  0  0
 10 11  2  0  0  0
 11 23  1  0  0  0
 23 24  2  0  0  0
 24 25  1  0  0  0
 25 26  2  0  0  0
 26 29  1  0  0  0
 29 30  1  0  0  0
 30 31  1  0  0  0
 31 32  1  0  0  0
 32 33  1  0  0  0
 33 35  1  0  0  0
 35 36  1  0  0  0
 36 37  1  0  0  0
 37 38  1  0  0  0
 33 34  1  0  0  0
 26 27  1  0  0  0
 27 28  2  0  0  0
  6 12  2  0  0  0
 12 13  1  0  0  0
 12  2  1  0  0  0
 11  5  1  0  0  0
 28 23  1  0  0  0
 21 15  1  0  0  0
 34 30  1  0  0  0
  1 14  1  0  0  0
M  END
> <minimizedAffinity>
28.53351

> <CNNscore>
0.3668428063

> <CNNaffinity>
7.8393707275

> <CNN_VS>
2.8758168221

> <CNNaffinity_variance>
0.5123921633

$$$$
[H]Oc1c([H])c([H])c2c(c1F)C([H])([H])C([H])([H])C([H])([H])C(c1c([H])c([H])c([H])c(F)c1Cl)=C2c1c([H])c([H])c(O[C@]2([H])C([H])([H])N(C([H])([H])C([H])([H])C([H])([H])F)C([H])([H])C2([H])[H])c([H])c1[H]


 38 42  0  0  0  0  0  0  0  0999 V2000
   10.7463   39.5908  130.5651 O   0  0  0  0  0  0  0  0  0  0  0  0
   10.4486   40.8480  131.0809 C   0  0  0  0  0  0  0  0  0  0  0  0
    9.2289   41.4365  130.8378 C   0  0  0  0  0  0  0  0  0  0  0  0
    9.0074   42.7083  131.3931 C   0  0  0  0  0  0  0  0  0  0  0  0
    9.9681   43.3306  132.1428 C   0  0  0  0  0  0  0  0  0  0  0  0
   11.1871   42.7017  132.3674 C   0  0  0  0  0  0  0  0  0  0  0  0
   12.2852   43.2864  133.2269 C   0  0  0  0  0  0  0  0  0  0  0  0
   11.6019   43.4963  134.5674 C   0  0  0  0  0  0  0  0  0  0  0  0
   10.9277   44.7930  134.7552 C   0  0  0  0  0  0  0  0  0  0  0  0
    9.9635   45.2242  133.7020 C   0  0  0  0  0  0  0  0  0  0  0  0
    9.5290   44.6530  132.5970 C   0  0  0  0  0  0  0  0  0  0  0  0
   11.4419   41.4730  131.8484 C   0  0  0  0  0  0  0  0  0  0  0  0
   12.6218   40.8871  132.0774 F   0  0  0  0  0  0  0  0  0  0  0  0
   10.0714   39.0947  130.0039 H   0  0  0  0  0  0  0  0  0  0  0  0
    9.5080   46.5853  133.9038 C   0  0  0  0  0  0  0  0  0  0  0  0
    8.4052   46.8494  134.6898 C   0  0  0  0  0  0  0  0  0  0  0  0
    7.9444   48.1273  134.9155 C   0  0  0  0  0  0  0  0  0  0  0  0
    8.5794   49.2052  134.3531 C   0  0  0  0  0  0  0  0  0  0  0  0
    9.6787   48.9609  133.5674 C   0  0  0  0  0  0  0  0  0  0  0  0
   10.3196   50.0170  133.0033 F   0  0  0  0  0  0  0  0  0  0  0  0
   10.1465   47.6522  133.3411 C   0  0  0  0  0  0  0  0  0  0  0  0
   11.5928   47.5141  132.3614 Cl  0  0  0  0  0  0  0  0  0  0  0  0
    8.5391   45.2456  131.7225 C   0  0  0  0  0  0  0  0  0  0  0  0
    7.3607   45.8064  132.0585 C   0  0  0  0  0  0  0  0  0  0  0  0
    6.5387   46.3553  131.0870 C   0  0  0  0  0  0  0  0  0  0  0  0
    6.8544   46.3664  129.7506 C   0  0  0  0  0  0  0  0  0  0  0  0
    8.0731   45.7871  129.3893 C   0  0  0  0  0  0  0  0  0  0  0  0
    8.8768   45.2494  130.3551 C   0  0  0  0  0  0  0  0  0  0  0  0
    6.0835   46.8935  128.7391 O   0  0  0  0  0  0  0  0  0  0  0  0
    5.9355   48.2230  128.3748 C   0  0  0  0  0  0  0  0  0  0  0  0
    4.8520   48.9388  129.1529 C   0  0  0  0  0  0  0  0  0  0  0  0
    5.5920   49.7830  130.2078 C   0  0  0  0  0  0  0  0  0  0  0  0
    6.8067   50.0310  129.5678 N   0  0  0  0  0  0  0  0  0  0  0  0
    7.2127   49.0040  128.7062 C   0  0  0  0  0  0  0  0  0  0  0  0
    7.6168   51.1085  129.8737 C   0  0  0  0  0  0  0  0  0  0  0  0
    8.7788   50.8727  130.8069 C   0  0  0  0  0  0  0  0  0  0  0  0
    9.6943   49.7848  130.2961 C   0  0  0  0  0  0  0  0  0  0  0  0
    9.1668   48.5182  130.5867 F   0  0  0  0  0  0  0  0  0  0  0  0
  1  2  1  0  0  0
  2  3  2  0  0  0
  3  4  1  0  0  0
  4  5  2  0  0  0
  5  6  1  0  0  0
  6  7  1  0  0  0
  7  8  1  0  0  0
  8  9  1  0  0  0
  9 10  1  0  0  0
 10 15  1  0  0  0
 15 16  2  0  0  0
 16 17  1  0  0  0
 17 18  2  0  0  0
 18 19  1  0  0  0
 19 20  1  0  0  0
 19 21  2  0  0  0
 21 22  1  0  0  0
 10 11  2  0  0  0
 11 23  1  0  0  0
 23 24  2  0  0  0
 24 25  1  0  0  0
 25 26  2  0  0  0
 26 29  1  0  0  0
 29 30  1  0  0  0
 30 31  1  0  0  0
 31 32  1  0  0  0
 32 33  1  0  0  0
 33 35  1  0  0  0
 35 36  1  0  0  0
 36 37  1  0  0  0
 37 38  1  0  0  0
 33 34  1  0  0  0
 26 27  1  0  0  0
 27 28  2  0  0  0
  6 12  2  0  0  0
 12 13  1  0  0  0
 12  2  1  0  0  0
 11  5  1  0  0  0
 28 23  1  0  0  0
 21 15  1  0  0  0
 34 30  1  0  0  0
  1 14  1  0  0  0
M  END
> <minimizedAffinity>
7.60919

> <CNNscore>
0.3468406200

> <CNNaffinity>
8.0750761032

> <CNN_VS>
2.8007643223

> <CNNaffinity_variance>
0.2781080008

$$$$
[H]OC(=O)c1c([H])c([H])c2c(c1[H])C([H])([H])C([H])([H])C([H])([H])C(c1c([H])c([H])c3c(c1[H])C([H])([H])C(C([H])([H])[H])(C([H])([H])[H])N3[H])=C2c1c([H])c([H])c(O[C@]2([H])C([H])([H])N(C([H])([H])C([H])([H])C([H])([H])F)C([H])([H])C2([H])[H])c([H])c1[H]


 43 48  0  0  0  0  0  0  0  0999 V2000
   10.0590   44.7849  133.1769 C   0  0  0  0  0  0  0  0  0  0  0  0
    9.6631   44.2636  132.0388 C   0  0  0  0  0  0  0  0  0  0  0  0
    9.9258   42.8825  131.5492 C   0  0  0  0  0  0  0  0  0  0  0  0
    8.8773   42.3963  130.7508 C   0  0  0  0  0  0  0  0  0  0  0  0
    8.9859   41.1364  130.2380 C   0  0  0  0  0  0  0  0  0  0  0  0
   10.1052   40.3550  130.4996 C   0  0  0  0  0  0  0  0  0  0  0  0
   11.1132   40.8624  131.2856 C   0  0  0  0  0  0  0  0  0  0  0  0
   11.0461   42.1522  131.8346 C   0  0  0  0  0  0  0  0  0  0  0  0
   12.2141   42.4751  132.6275 C   0  0  0  0  0  0  0  0  0  0  0  0
   12.1853   43.5659  133.5904 C   0  0  0  0  0  0  0  0  0  0  0  0
   10.9034   44.0154  134.1803 C   0  0  0  0  0  0  0  0  0  0  0  0
    8.6814   50.9998  131.9435 C   0  0  0  0  0  0  0  0  0  0  0  0
    9.5651   50.8411  133.1798 C   0  0  0  0  0  0  0  0  0  0  0  0
   10.1990   52.1437  133.5885 C   0  0  0  0  0  0  0  0  0  0  0  0
   10.6737   49.8589  132.8597 C   0  0  0  0  0  0  0  0  0  0  0  0
   10.0888   48.5381  133.2882 C   0  0  0  0  0  0  0  0  0  0  0  0
   10.4072   47.2422  133.0251 C   0  0  0  0  0  0  0  0  0  0  0  0
    9.7201   46.1370  133.5408 C   0  0  0  0  0  0  0  0  0  0  0  0
    8.6618   46.4205  134.3602 C   0  0  0  0  0  0  0  0  0  0  0  0
    8.2876   47.7342  134.6668 C   0  0  0  0  0  0  0  0  0  0  0  0
    9.0145   48.7770  134.1201 C   0  0  0  0  0  0  0  0  0  0  0  0
    8.8738   50.1893  134.2481 N   0  0  0  0  0  0  0  0  0  0  0  0
    8.3442   50.6610  135.0101 H   0  0  0  0  0  0  0  0  0  0  0  0
    8.8524   45.0359  131.0943 C   0  0  0  0  0  0  0  0  0  0  0  0
    9.2692   45.4255  129.8450 C   0  0  0  0  0  0  0  0  0  0  0  0
    8.4301   46.1435  129.0071 C   0  0  0  0  0  0  0  0  0  0  0  0
    7.1544   46.5080  129.3564 C   0  0  0  0  0  0  0  0  0  0  0  0
    6.7303   46.1142  130.6228 C   0  0  0  0  0  0  0  0  0  0  0  0
    7.5514   45.4047  131.4580 C   0  0  0  0  0  0  0  0  0  0  0  0
    6.2736   47.2204  128.5698 O   0  0  0  0  0  0  0  0  0  0  0  0
    6.3121   48.5814  128.3127 C   0  0  0  0  0  0  0  0  0  0  0  0
    5.2598   49.2754  129.1437 C   0  0  0  0  0  0  0  0  0  0  0  0
    6.0343   50.2572  129.9681 C   0  0  0  0  0  0  0  0  0  0  0  0
    7.2327   50.4989  129.2379 N   0  0  0  0  0  0  0  0  0  0  0  0
    7.6403   49.1949  128.7560 C   0  0  0  0  0  0  0  0  0  0  0  0
    7.1163   51.3831  128.1223 C   0  0  0  0  0  0  0  0  0  0  0  0
    7.1076   52.8406  128.4663 C   0  0  0  0  0  0  0  0  0  0  0  0
    7.0030   53.7200  127.2387 C   0  0  0  0  0  0  0  0  0  0  0  0
    8.2176   54.3606  127.0702 F   0  0  0  0  0  0  0  0  0  0  0  0
   10.2397   39.0156  129.9674 C   0  0  0  0  0  0  0  0  0  0  0  0
   11.4018   38.2962  130.1533 O   0  0  0  0  0  0  0  0  0  0  0  0
    9.2959   38.5044  129.3334 O   0  0  0  0  0  0  0  0  0  0  0  0
   11.3104   37.2945  130.2739 H   0  0  0  0  0  0  0  0  0  0  0  0
 12 13  1  0  0  0
 13 14  1  0  0  0
 13 15  1  0  0  0
 15 16  1  0  0  0
 16 17  2  0  0  0
 17 18  1  0  0  0
 18 19  2  0  0  0
 19 20  1  0  0  0
 20 21  2  0  0  0
 21 22  1  0  0  0
 18  1  1  0  0  0
  1  2  2  0  0  0
  2 24  1  0  0  0
 24 25  2  0  0  0
 25 26  1  0  0  0
 26 27  2  0  0  0
 27 30  1  0  0  0
 30 31  1  0  0  0
 31 32  1  0  0  0
 32 33  1  0  0  0
 33 34  1  0  0  0
 34 36  1  0  0  0
 36 37  1  0  0  0
 37 38  1  0  0  0
 38 39  1  0  0  0
 34 35  1  0  0  0
 27 28  1  0  0  0
 28 29  2  0  0  0
  2  3  1  0  0  0
  3  4  2  0  0  0
  4  5  1  0  0  0
  5  6  2  0  0  0
  6  7  1  0  0  0
  7  8  2  0  0  0
  8  9  1  0  0  0
  9 10  1  0  0  0
 10 11  1  0  0  0
  6 40  1  0  0  0
 40 41  1  0  0  0
 40 42  2  0  0  0
 22 13  1  0  0  0
 11  1  1  0  0  0
 21 16  1  0  0  0
 29 24  1  0  0  0
  8  3  1  0  0  0
 35 31  1  0  0  0
 22 23  1  0  0  0
 41 43  1  0  0  0
M  END
> <minimizedAffinity>
19.00846

> <CNNscore>
0.5450801849

> <CNNaffinity>
8.2704658508

> <CNN_VS>
4.5080671310

> <CNNaffinity_variance>
0.4178550243

$$$$
[H]OC(=O)c1c([H])c([H])c2c(c1[H])C([H])([H])C([H])([H])C([H])([H])C(c1c([H])c([H])c3c(c1[H])C([H])([H])C(C([H])([H])[H])(C([H])([H])[H])N3[H])=C2c1c([H])c([H])c(O[C@]2([H])C([H])([H])N(C([H])([H])C([H])([H])C([H])([H])F)C([H])([H])C2([H])[H])c([H])c1[H]


 43 48  0  0  0  0  0  0  0  0999 V2000
   11.3139   45.3786  132.7068 C   0  0  0  0  0  0  0  0  0  0  0  0
   10.2373   46.1244  132.7984 C   0  0  0  0  0  0  0  0  0  0  0  0
    9.6375   46.6789  134.0430 C   0  0  0  0  0  0  0  0  0  0  0  0
    9.0112   47.9166  133.8221 C   0  0  0  0  0  0  0  0  0  0  0  0
    8.4220   48.5415  134.8826 C   0  0  0  0  0  0  0  0  0  0  0  0
    8.4419   47.9675  136.1483 C   0  0  0  0  0  0  0  0  0  0  0  0
    9.0643   46.7545  136.3291 C   0  0  0  0  0  0  0  0  0  0  0  0
    9.6833   46.0747  135.2688 C   0  0  0  0  0  0  0  0  0  0  0  0
   10.2748   44.8211  135.6886 C   0  0  0  0  0  0  0  0  0  0  0  0
   11.2836   44.1610  134.8734 C   0  0  0  0  0  0  0  0  0  0  0  0
   12.1120   44.9396  133.9243 C   0  0  0  0  0  0  0  0  0  0  0  0
   15.4677   42.2815  128.8084 C   0  0  0  0  0  0  0  0  0  0  0  0
   14.9743   43.5923  128.1977 C   0  0  0  0  0  0  0  0  0  0  0  0
   15.8290   44.0290  127.0382 C   0  0  0  0  0  0  0  0  0  0  0  0
   15.0332   44.6730  129.2583 C   0  0  0  0  0  0  0  0  0  0  0  0
   13.6606   44.6142  129.8769 C   0  0  0  0  0  0  0  0  0  0  0  0
   13.1361   45.0827  131.0412 C   0  0  0  0  0  0  0  0  0  0  0  0
   11.8019   44.9192  131.4315 C   0  0  0  0  0  0  0  0  0  0  0  0
   11.0027   44.2356  130.5564 C   0  0  0  0  0  0  0  0  0  0  0  0
   11.4866   43.7308  129.3437 C   0  0  0  0  0  0  0  0  0  0  0  0
   12.8180   43.9313  129.0244 C   0  0  0  0  0  0  0  0  0  0  0  0
   13.5801   43.5422  127.8848 N   0  0  0  0  0  0  0  0  0  0  0  0
   13.1696   43.2655  126.9691 H   0  0  0  0  0  0  0  0  0  0  0  0
    9.4914   46.5263  131.6034 C   0  0  0  0  0  0  0  0  0  0  0  0
    8.3921   45.8663  131.1111 C   0  0  0  0  0  0  0  0  0  0  0  0
    7.7350   46.3247  129.9799 C   0  0  0  0  0  0  0  0  0  0  0  0
    8.1254   47.4427  129.2872 C   0  0  0  0  0  0  0  0  0  0  0  0
    9.2399   48.1128  129.7846 C   0  0  0  0  0  0  0  0  0  0  0  0
    9.8961   47.6684  130.9013 C   0  0  0  0  0  0  0  0  0  0  0  0
    7.5153   47.9478  128.1581 O   0  0  0  0  0  0  0  0  0  0  0  0
    6.9713   49.2136  128.0106 C   0  0  0  0  0  0  0  0  0  0  0  0
    5.6737   49.2907  128.7786 C   0  0  0  0  0  0  0  0  0  0  0  0
    5.8907   50.4091  129.7510 C   0  0  0  0  0  0  0  0  0  0  0  0
    6.9050   51.2219  129.1693 N   0  0  0  0  0  0  0  0  0  0  0  0
    7.8691   50.2821  128.6343 C   0  0  0  0  0  0  0  0  0  0  0  0
    6.4817   52.0912  128.1181 C   0  0  0  0  0  0  0  0  0  0  0  0
    7.2362   53.3811  128.0190 C   0  0  0  0  0  0  0  0  0  0  0  0
    7.2628   53.9241  126.6064 C   0  0  0  0  0  0  0  0  0  0  0  0
    8.3786   54.7328  126.4831 F   0  0  0  0  0  0  0  0  0  0  0  0
    7.8250   48.6141  137.2870 C   0  0  0  0  0  0  0  0  0  0  0  0
    8.5839   49.0157  138.3665 O   0  0  0  0  0  0  0  0  0  0  0  0
    6.5941   48.8109  137.2944 O   0  0  0  0  0  0  0  0  0  0  0  0
    8.2985   49.8639  138.8415 H   0  0  0  0  0  0  0  0  0  0  0  0
 12 13  1  0  0  0
 13 14  1  0  0  0
 13 15  1  0  0  0
 15 16  1  0  0  0
 16 17  2  0  0  0
 17 18  1  0  0  0
 18 19  2  0  0  0
 19 20  1  0  0  0
 20 21  2  0  0  0
 21 22  1  0  0  0
 18  1  1  0  0  0
  1  2  2  0  0  0
  2 24  1  0  0  0
 24 25  2  0  0  0
 25 26  1  0  0  0
 26 27  2  0  0  0
 27 30  1  0  0  0
 30 31  1  0  0  0
 31 32  1  0  0  0
 32 33  1  0  0  0
 33 34  1  0  0  0
 34 36  1  0  0  0
 36 37  1  0  0  0
 37 38  1  0  0  0
 38 39  1  0  0  0
 34 35  1  0  0  0
 27 28  1  0  0  0
 28 29  2  0  0  0
  2  3  1  0  0  0
  3  4  2  0  0  0
  4  5  1  0  0  0
  5  6  2  0  0  0
  6  7  1  0  0  0
  7  8  2  0  0  0
  8  9  1  0  0  0
  9 10  1  0  0  0
 10 11  1  0  0  0
  6 40  1  0  0  0
 40 41  1  0  0  0
 40 42  2  0  0  0
 22 13  1  0  0  0
 11  1  1  0  0  0
 21 16  1  0  0  0
 29 24  1  0  0  0
  8  3  1  0  0  0
 35 31  1  0  0  0
 22 23  1  0  0  0
 41 43  1  0  0  0
M  END
> <minimizedAffinity>
25.23197

> <CNNscore>
0.4794335961

> <CNNaffinity>
7.9497957230

> <CNN_VS>
3.8113992214

> <CNNaffinity_variance>
0.5688320994

$$$$
[H]OC(=O)c1c([H])c([H])c2c(c1[H])C([H])([H])C([H])([H])C([H])([H])C(c1c([H])c([H])c3c(c1[H])C([H])([H])C(C([H])([H])[H])(C([H])([H])[H])N3[H])=C2c1c([H])c([H])c(O[C@]2([H])C([H])([H])N(C([H])([H])C([H])([H])C([H])([H])F)C([H])([H])C2([H])[H])c([H])c1[H]


 43 48  0  0  0  0  0  0  0  0999 V2000
   10.3077   48.4137  132.2359 C   0  0  0  0  0  0  0  0  0  0  0  0
    9.3583   48.2495  131.3441 C   0  0  0  0  0  0  0  0  0  0  0  0
    8.6094   49.3188  130.6288 C   0  0  0  0  0  0  0  0  0  0  0  0
    8.2322   48.9248  129.3344 C   0  0  0  0  0  0  0  0  0  0  0  0
    7.5412   49.8139  128.5634 C   0  0  0  0  0  0  0  0  0  0  0  0
    7.2195   51.0765  129.0472 C   0  0  0  0  0  0  0  0  0  0  0  0
    7.6046   51.4296  130.3194 C   0  0  0  0  0  0  0  0  0  0  0  0
    8.3163   50.5491  131.1488 C   0  0  0  0  0  0  0  0  0  0  0  0
    8.6173   51.1307  132.4405 C   0  0  0  0  0  0  0  0  0  0  0  0
    9.6597   50.5706  133.2875 C   0  0  0  0  0  0  0  0  0  0  0  0
   10.7692   49.7872  132.6971 C   0  0  0  0  0  0  0  0  0  0  0  0
   10.5772   42.4112  134.6730 C   0  0  0  0  0  0  0  0  0  0  0  0
   11.4186   43.3981  135.4809 C   0  0  0  0  0  0  0  0  0  0  0  0
   11.7978   42.8426  136.8275 C   0  0  0  0  0  0  0  0  0  0  0  0
   10.6063   44.6577  135.7038 C   0  0  0  0  0  0  0  0  0  0  0  0
   10.9893   45.5188  134.5282 C   0  0  0  0  0  0  0  0  0  0  0  0
   10.4377   46.6222  133.9551 C   0  0  0  0  0  0  0  0  0  0  0  0
   10.9688   47.2874  132.8439 C   0  0  0  0  0  0  0  0  0  0  0  0
   12.1212   46.7612  132.3271 C   0  0  0  0  0  0  0  0  0  0  0  0
   12.7342   45.6281  132.8747 C   0  0  0  0  0  0  0  0  0  0  0  0
   12.1514   45.0232  133.9743 C   0  0  0  0  0  0  0  0  0  0  0  0
   12.5376   43.8803  134.7330 N   0  0  0  0  0  0  0  0  0  0  0  0
   13.4941   43.4697  134.7324 H   0  0  0  0  0  0  0  0  0  0  0  0
    8.9372   46.9103  130.9253 C   0  0  0  0  0  0  0  0  0  0  0  0
    7.8289   46.2555  131.4039 C   0  0  0  0  0  0  0  0  0  0  0  0
    7.4938   44.9927  130.9410 C   0  0  0  0  0  0  0  0  0  0  0  0
    8.2268   44.3219  129.9949 C   0  0  0  0  0  0  0  0  0  0  0  0
    9.3509   44.9841  129.5087 C   0  0  0  0  0  0  0  0  0  0  0  0
    9.6906   46.2317  129.9594 C   0  0  0  0  0  0  0  0  0  0  0  0
    7.9463   43.0674  129.4952 O   0  0  0  0  0  0  0  0  0  0  0  0
    8.5604   42.4530  128.4158 C   0  0  0  0  0  0  0  0  0  0  0  0
    9.1168   43.5093  127.4916 C   0  0  0  0  0  0  0  0  0  0  0  0
   10.5821   43.2051  127.4293 C   0  0  0  0  0  0  0  0  0  0  0  0
   10.6939   41.8241  127.7577 N   0  0  0  0  0  0  0  0  0  0  0  0
    9.7710   41.6305  128.8575 C   0  0  0  0  0  0  0  0  0  0  0  0
   10.3623   40.9058  126.7152 C   0  0  0  0  0  0  0  0  0  0  0  0
   10.9515   39.5371  126.8643 C   0  0  0  0  0  0  0  0  0  0  0  0
   11.9815   39.2356  125.7969 C   0  0  0  0  0  0  0  0  0  0  0  0
   12.8471   38.2806  126.2995 F   0  0  0  0  0  0  0  0  0  0  0  0
    6.4891   52.0354  128.2458 C   0  0  0  0  0  0  0  0  0  0  0  0
    5.1385   51.8779  128.0146 O   0  0  0  0  0  0  0  0  0  0  0  0
    7.0855   53.0153  127.7578 O   0  0  0  0  0  0  0  0  0  0  0  0
    4.5792   52.7205  127.9536 H   0  0  0  0  0  0  0  0  0  0  0  0
 12 13  1  0  0  0
 13 14  1  0  0  0
 13 15  1  0  0  0
 15 16  1  0  0  0
 16 17  2  0  0  0
 17 18  1  0  0  0
 18 19  2  0  0  0
 19 20  1  0  0  0
 20 21  2  0  0  0
 21 22  1  0  0  0
 18  1  1  0  0  0
  1  2  2  0  0  0
  2 24  1  0  0  0
 24 25  2  0  0  0
 25 26  1  0  0  0
 26 27  2  0  0  0
 27 30  1  0  0  0
 30 31  1  0  0  0
 31 32  1  0  0  0
 32 33  1  0  0  0
 33 34  1  0  0  0
 34 36  1  0  0  0
 36 37  1  0  0  0
 37 38  1  0  0  0
 38 39  1  0  0  0
 34 35  1  0  0  0
 27 28  1  0  0  0
 28 29  2  0  0  0
  2  3  1  0  0  0
  3  4  2  0  0  0
  4  5  1  0  0  0
  5  6  2  0  0  0
  6  7  1  0  0  0
  7  8  2  0  0  0
  8  9  1  0  0  0
  9 10  1  0  0  0
 10 11  1  0  0  0
  6 40  1  0  0  0
 40 41  1  0  0  0
 40 42  2  0  0  0
 22 13  1  0  0  0
 11  1  1  0  0  0
 21 16  1  0  0  0
 29 24  1  0  0  0
  8  3  1  0  0  0
 35 31  1  0  0  0
 22 23  1  0  0  0
 41 43  1  0  0  0
M  END
> <minimizedAffinity>
22.54780

> <CNNscore>
0.4702260494

> <CNNaffinity>
7.9082574844

> <CNN_VS>
3.7186686993

> <CNNaffinity_variance>
1.0861822367

$$$$
[H]OC(=O)c1c([H])c([H])c2c(c1[H])C([H])([H])C([H])([H])C([H])([H])C(c1c([H])c([H])c3c(c1[H])C([H])([H])C(C([H])([H])[H])(C([H])([H])[H])N3[H])=C2c1c([H])c([H])c(O[C@]2([H])C([H])([H])N(C([H])([H])C([H])([H])C([H])([H])F)C([H])([H])C2([H])[H])c([H])c1[H]


 43 48  0  0  0  0  0  0  0  0999 V2000
   11.0807   44.4497  131.4071 C   0  0  0  0  0  0  0  0  0  0  0  0
   10.7881   44.6512  130.1432 C   0  0  0  0  0  0  0  0  0  0  0  0
   11.5645   44.1867  128.9611 C   0  0  0  0  0  0  0  0  0  0  0  0
   10.7368   43.9092  127.8607 C   0  0  0  0  0  0  0  0  0  0  0  0
   11.3196   43.4687  126.7080 C   0  0  0  0  0  0  0  0  0  0  0  0
   12.6967   43.2990  126.6260 C   0  0  0  0  0  0  0  0  0  0  0  0
   13.4774   43.5800  127.7228 C   0  0  0  0  0  0  0  0  0  0  0  0
   12.9232   44.0354  128.9290 C   0  0  0  0  0  0  0  0  0  0  0  0
   13.9288   44.2643  129.9457 C   0  0  0  0  0  0  0  0  0  0  0  0
   13.5636   44.3500  131.3518 C   0  0  0  0  0  0  0  0  0  0  0  0
   12.3286   43.7019  131.8496 C   0  0  0  0  0  0  0  0  0  0  0  0
    7.6978   49.0046  134.5458 C   0  0  0  0  0  0  0  0  0  0  0  0
    8.4186   48.0597  135.5061 C   0  0  0  0  0  0  0  0  0  0  0  0
    8.4788   48.6166  136.9032 C   0  0  0  0  0  0  0  0  0  0  0  0
    9.8391   47.8632  135.0168 C   0  0  0  0  0  0  0  0  0  0  0  0
    9.7274   46.6465  134.1351 C   0  0  0  0  0  0  0  0  0  0  0  0
   10.5258   46.1081  133.1746 C   0  0  0  0  0  0  0  0  0  0  0  0
   10.2305   44.9405  132.4615 C   0  0  0  0  0  0  0  0  0  0  0  0
    9.0490   44.3284  132.7802 C   0  0  0  0  0  0  0  0  0  0  0  0
    8.1873   44.8359  133.7598 C   0  0  0  0  0  0  0  0  0  0  0  0
    8.5460   45.9955  134.4242 C   0  0  0  0  0  0  0  0  0  0  0  0
    7.8859   46.7342  135.4486 N   0  0  0  0  0  0  0  0  0  0  0  0
    7.1311   46.3528  136.0556 H   0  0  0  0  0  0  0  0  0  0  0  0
    9.5779   45.3789  129.7536 C   0  0  0  0  0  0  0  0  0  0  0  0
    8.3030   44.8752  129.8390 C   0  0  0  0  0  0  0  0  0  0  0  0
    7.2097   45.6393  129.4619 C   0  0  0  0  0  0  0  0  0  0  0  0
    7.3190   46.9221  128.9876 C   0  0  0  0  0  0  0  0  0  0  0  0
    8.6108   47.4343  128.9001 C   0  0  0  0  0  0  0  0  0  0  0  0
    9.6974   46.6877  129.2701 C   0  0  0  0  0  0  0  0  0  0  0  0
    6.2727   47.7312  128.5970 O   0  0  0  0  0  0  0  0  0  0  0  0
    6.1764   49.1012  128.7798 C   0  0  0  0  0  0  0  0  0  0  0  0
    5.8572   49.3896  130.2271 C   0  0  0  0  0  0  0  0  0  0  0  0
    6.9934   50.2504  130.6872 C   0  0  0  0  0  0  0  0  0  0  0  0
    7.5097   50.8550  129.5058 N   0  0  0  0  0  0  0  0  0  0  0  0
    7.5144   49.7934  128.5200 C   0  0  0  0  0  0  0  0  0  0  0  0
    6.7602   51.9556  128.9893 C   0  0  0  0  0  0  0  0  0  0  0  0
    7.1706   52.4182  127.6254 C   0  0  0  0  0  0  0  0  0  0  0  0
    7.1370   53.9259  127.4957 C   0  0  0  0  0  0  0  0  0  0  0  0
    8.1153   54.2964  126.5904 F   0  0  0  0  0  0  0  0  0  0  0  0
   13.3350   42.8311  125.4140 C   0  0  0  0  0  0  0  0  0  0  0  0
   13.6086   43.7017  124.3797 O   0  0  0  0  0  0  0  0  0  0  0  0
   13.6417   41.6281  125.3015 O   0  0  0  0  0  0  0  0  0  0  0  0
   14.4527   43.5331  123.8454 H   0  0  0  0  0  0  0  0  0  0  0  0
 12 13  1  0  0  0
 13 14  1  0  0  0
 13 15  1  0  0  0
 15 16  1  0  0  0
 16 17  2  0  0  0
 17 18  1  0  0  0
 18 19  2  0  0  0
 19 20  1  0  0  0
 20 21  2  0  0  0
 21 22  1  0  0  0
 18  1  1  0  0  0
  1  2  2  0  0  0
  2 24  1  0  0  0
 24 25  2  0  0  0
 25 26  1  0  0  0
 26 27  2  0  0  0
 27 30  1  0  0  0
 30 31  1  0  0  0
 31 32  1  0  0  0
 32 33  1  0  0  0
 33 34  1  0  0  0
 34 36  1  0  0  0
 36 37  1  0  0  0
 37 38  1  0  0  0
 38 39  1  0  0  0
 34 35  1  0  0  0
 27 28  1  0  0  0
 28 29  2  0  0  0
  2  3  1  0  0  0
  3  4  2  0  0  0
  4  5  1  0  0  0
  5  6  2  0  0  0
  6  7  1  0  0  0
  7  8  2  0  0  0
  8  9  1  0  0  0
  9 10  1  0  0  0
 10 11  1  0  0  0
  6 40  1  0  0  0
 40 41  1  0  0  0
 40 42  2  0  0  0
 22 13  1  0  0  0
 11  1  1  0  0  0
 21 16  1  0  0  0
 29 24  1  0  0  0
  8  3  1  0  0  0
 35 31  1  0  0  0
 22 23  1  0  0  0
 41 43  1  0  0  0
M  END
> <minimizedAffinity>
21.63811

> <CNNscore>
0.4222766459

> <CNNaffinity>
7.9329285622

> <CNN_VS>
3.3498904705

> <CNNaffinity_variance>
0.5248029828

$$$$
[H]OC(=O)c1c([H])c([H])c2c(c1[H])C([H])([H])C([H])([H])C([H])([H])C(c1c([H])c([H])c3c(c1[H])C([H])([H])C(C([H])([H])[H])(C([H])([H])[H])N3[H])=C2c1c([H])c([H])c(O[C@]2([H])C([H])([H])N(C([H])([H])C([H])([H])C([H])([H])F)C([H])([H])C2([H])[H])c([H])c1[H]


 43 48  0  0  0  0  0  0  0  0999 V2000
   10.2320   48.9363  132.0116 C   0  0  0  0  0  0  0  0  0  0  0  0
    9.3572   48.7847  131.0445 C   0  0  0  0  0  0  0  0  0  0  0  0
    8.6115   49.8615  130.3370 C   0  0  0  0  0  0  0  0  0  0  0  0
    8.3464   49.5292  128.9982 C   0  0  0  0  0  0  0  0  0  0  0  0
    7.6709   50.4321  128.2296 C   0  0  0  0  0  0  0  0  0  0  0  0
    7.2564   51.6488  128.7584 C   0  0  0  0  0  0  0  0  0  0  0  0
    7.5330   51.9418  130.0733 C   0  0  0  0  0  0  0  0  0  0  0  0
    8.2245   51.0450  130.9022 C   0  0  0  0  0  0  0  0  0  0  0  0
    8.4051   51.5612  132.2432 C   0  0  0  0  0  0  0  0  0  0  0  0
    9.4099   50.9970  133.1320 C   0  0  0  0  0  0  0  0  0  0  0  0
   10.5942   50.2985  132.5820 C   0  0  0  0  0  0  0  0  0  0  0  0
   10.5652   42.8659  134.2661 C   0  0  0  0  0  0  0  0  0  0  0  0
   11.3621   43.8440  135.1281 C   0  0  0  0  0  0  0  0  0  0  0  0
   11.7160   43.2539  136.4668 C   0  0  0  0  0  0  0  0  0  0  0  0
   10.5166   45.0785  135.3672 C   0  0  0  0  0  0  0  0  0  0  0  0
   10.9130   45.9846  134.2306 C   0  0  0  0  0  0  0  0  0  0  0  0
   10.3535   47.0939  133.6769 C   0  0  0  0  0  0  0  0  0  0  0  0
   10.9005   47.8052  132.6026 C   0  0  0  0  0  0  0  0  0  0  0  0
   12.0780   47.3201  132.1024 C   0  0  0  0  0  0  0  0  0  0  0  0
   12.7003   46.1833  132.6314 C   0  0  0  0  0  0  0  0  0  0  0  0
   12.1006   45.5314  133.6946 C   0  0  0  0  0  0  0  0  0  0  0  0
   12.4905   44.3733  134.4277 N   0  0  0  0  0  0  0  0  0  0  0  0
   13.4555   43.9830  134.4414 H   0  0  0  0  0  0  0  0  0  0  0  0
    9.0306   47.4560  130.5212 C   0  0  0  0  0  0  0  0  0  0  0  0
    9.5479   46.9235  129.3658 C   0  0  0  0  0  0  0  0  0  0  0  0
    9.1957   45.6489  128.9501 C   0  0  0  0  0  0  0  0  0  0  0  0
    8.3263   44.8469  129.6453 C   0  0  0  0  0  0  0  0  0  0  0  0
    7.8006   45.3852  130.8168 C   0  0  0  0  0  0  0  0  0  0  0  0
    8.1421   46.6432  131.2362 C   0  0  0  0  0  0  0  0  0  0  0  0
    7.9371   43.5738  129.2847 O   0  0  0  0  0  0  0  0  0  0  0  0
    7.8224   42.4774  130.1240 C   0  0  0  0  0  0  0  0  0  0  0  0
    9.0674   41.6308  130.0108 C   0  0  0  0  0  0  0  0  0  0  0  0
    9.6095   41.5899  131.4065 C   0  0  0  0  0  0  0  0  0  0  0  0
    8.4914   41.8407  132.2518 N   0  0  0  0  0  0  0  0  0  0  0  0
    7.7603   42.9027  131.5911 C   0  0  0  0  0  0  0  0  0  0  0  0
    7.6076   40.7385  132.4612 C   0  0  0  0  0  0  0  0  0  0  0  0
    6.3172   41.0802  133.1401 C   0  0  0  0  0  0  0  0  0  0  0  0
    6.4074   40.9485  134.6453 C   0  0  0  0  0  0  0  0  0  0  0  0
    5.4278   40.0610  135.0536 F   0  0  0  0  0  0  0  0  0  0  0  0
    6.5405   52.6213  127.9604 C   0  0  0  0  0  0  0  0  0  0  0  0
    7.1757   53.7508  127.4879 O   0  0  0  0  0  0  0  0  0  0  0  0
    5.3361   52.4382  127.6961 O   0  0  0  0  0  0  0  0  0  0  0  0
    6.8895   54.0955  126.5792 H   0  0  0  0  0  0  0  0  0  0  0  0
 12 13  1  0  0  0
 13 14  1  0  0  0
 13 15  1  0  0  0
 15 16  1  0  0  0
 16 17  2  0  0  0
 17 18  1  0  0  0
 18 19  2  0  0  0
 19 20  1  0  0  0
 20 21  2  0  0  0
 21 22  1  0  0  0
 18  1  1  0  0  0
  1  2  2  0  0  0
  2 24  1  0  0  0
 24 25  2  0  0  0
 25 26  1  0  0  0
 26 27  2  0  0  0
 27 30  1  0  0  0
 30 31  1  0  0  0
 31 32  1  0  0  0
 32 33  1  0  0  0
 33 34  1  0  0  0
 34 36  1  0  0  0
 36 37  1  0  0  0
 37 38  1  0  0  0
 38 39  1  0  0  0
 34 35  1  0  0  0
 27 28  1  0  0  0
 28 29  2  0  0  0
  2  3  1  0  0  0
  3  4  2  0  0  0
  4  5  1  0  0  0
  5  6  2  0  0  0
  6  7  1  0  0  0
  7  8  2  0  0  0
  8  9  1  0  0  0
  9 10  1  0  0  0
 10 11  1  0  0  0
  6 40  1  0  0  0
 40 41  1  0  0  0
 40 42  2  0  0  0
 22 13  1  0  0  0
 11  1  1  0  0  0
 21 16  1  0  0  0
 29 24  1  0  0  0
  8  3  1  0  0  0
 35 31  1  0  0  0
 22 23  1  0  0  0
 41 43  1  0  0  0
M  END
> <minimizedAffinity>
26.04835

> <CNNscore>
0.4093239009

> <CNNaffinity>
7.7062239647

> <CNN_VS>
3.1543416977

> <CNNaffinity_variance>
0.6316730976

$$$$
[H]OC(=O)c1c([H])c([H])c2c(c1[H])C([H])([H])C([H])([H])C([H])([H])C(c1c([H])c([H])c3c(c1[H])C([H])([H])C(C([H])([H])[H])(C([H])([H])[H])N3[H])=C2c1c([H])c([H])c(O[C@]2([H])C([H])([H])N(C([H])([H])C([H])([H])C([H])([H])F)C([H])([H])C2([H])[H])c([H])c1[H]


 43 48  0  0  0  0  0  0  0  0999 V2000
   11.2911   45.0978  130.8642 C   0  0  0  0  0  0  0  0  0  0  0  0
   10.3750   44.8085  129.9693 C   0  0  0  0  0  0  0  0  0  0  0  0
   10.4134   43.6991  128.9775 C   0  0  0  0  0  0  0  0  0  0  0  0
    9.1311   43.2044  128.6877 C   0  0  0  0  0  0  0  0  0  0  0  0
    9.0204   42.1788  127.7943 C   0  0  0  0  0  0  0  0  0  0  0  0
   10.1478   41.6381  127.1875 C   0  0  0  0  0  0  0  0  0  0  0  0
   11.3883   42.1465  127.4944 C   0  0  0  0  0  0  0  0  0  0  0  0
   11.5515   43.2005  128.4066 C   0  0  0  0  0  0  0  0  0  0  0  0
   12.9410   43.5711  128.5776 C   0  0  0  0  0  0  0  0  0  0  0  0
   13.3719   44.3411  129.7349 C   0  0  0  0  0  0  0  0  0  0  0  0
   12.5880   44.3143  130.9911 C   0  0  0  0  0  0  0  0  0  0  0  0
    8.0126   49.9719  133.6097 C   0  0  0  0  0  0  0  0  0  0  0  0
    9.4859   50.3172  133.3981 C   0  0  0  0  0  0  0  0  0  0  0  0
    9.7407   51.7952  133.5254 C   0  0  0  0  0  0  0  0  0  0  0  0
    9.8875   49.8896  132.0010 C   0  0  0  0  0  0  0  0  0  0  0  0
   10.3972   48.4872  132.2104 C   0  0  0  0  0  0  0  0  0  0  0  0
   10.6323   47.4404  131.3743 C   0  0  0  0  0  0  0  0  0  0  0  0
   11.1225   46.1946  131.7829 C   0  0  0  0  0  0  0  0  0  0  0  0
   11.3687   46.0593  133.1219 C   0  0  0  0  0  0  0  0  0  0  0  0
   11.1463   47.1015  134.0296 C   0  0  0  0  0  0  0  0  0  0  0  0
   10.6604   48.3060  133.5524 C   0  0  0  0  0  0  0  0  0  0  0  0
   10.3424   49.5229  134.2225 N   0  0  0  0  0  0  0  0  0  0  0  0
   10.6889   49.7808  135.1696 H   0  0  0  0  0  0  0  0  0  0  0  0
    9.1379   45.5874  129.8741 C   0  0  0  0  0  0  0  0  0  0  0  0
    8.0299   45.3915  130.6615 C   0  0  0  0  0  0  0  0  0  0  0  0
    6.9035   46.1858  130.5145 C   0  0  0  0  0  0  0  0  0  0  0  0
    6.8159   47.2000  129.5947 C   0  0  0  0  0  0  0  0  0  0  0  0
    7.9382   47.3999  128.7952 C   0  0  0  0  0  0  0  0  0  0  0  0
    9.0558   46.6207  128.9325 C   0  0  0  0  0  0  0  0  0  0  0  0
    5.7262   48.0227  129.4003 O   0  0  0  0  0  0  0  0  0  0  0  0
    5.7566   49.3667  129.0648 C   0  0  0  0  0  0  0  0  0  0  0  0
    5.4792   50.1941  130.2969 C   0  0  0  0  0  0  0  0  0  0  0  0
    6.6934   51.0601  130.4363 C   0  0  0  0  0  0  0  0  0  0  0  0
    7.2507   51.1398  129.1284 N   0  0  0  0  0  0  0  0  0  0  0  0
    7.1493   49.7941  128.6015 C   0  0  0  0  0  0  0  0  0  0  0  0
    6.5992   52.0348  128.2258 C   0  0  0  0  0  0  0  0  0  0  0  0
    7.2471   53.3777  128.0860 C   0  0  0  0  0  0  0  0  0  0  0  0
    7.2424   53.8717  126.6552 C   0  0  0  0  0  0  0  0  0  0  0  0
    8.3594   54.6683  126.4771 F   0  0  0  0  0  0  0  0  0  0  0  0
   10.0532   40.5490  126.2388 C   0  0  0  0  0  0  0  0  0  0  0  0
    8.8977   40.3432  125.5142 O   0  0  0  0  0  0  0  0  0  0  0  0
   11.0257   39.7868  126.0732 O   0  0  0  0  0  0  0  0  0  0  0  0
    9.0017   39.9968  124.5678 H   0  0  0  0  0  0  0  0  0  0  0  0
 12 13  1  0  0  0
 13 14  1  0  0  0
 13 15  1  0  0  0
 15 16  1  0  0  0
 16 17  2  0  0  0
 17 18  1  0  0  0
 18 19  2  0  0  0
 19 20  1  0  0  0
 20 21  2  0  0  0
 21 22  1  0  0  0
 18  1  1  0  0  0
  1  2  2  0  0  0
  2 24  1  0  0  0
 24 25  2  0  0  0
 25 26  1  0  0  0
 26 27  2  0  0  0
 27 30  1  0  0  0
 30 31  1  0  0  0
 31 32  1  0  0  0
 32 33  1  0  0  0
 33 34  1  0  0  0
 34 36  1  0  0  0
 36 37  1  0  0  0
 37 38  1  0  0  0
 38 39  1  0  0  0
 34 35  1  0  0  0
 27 28  1  0  0  0
 28 29  2  0  0  0
  2  3  1  0  0  0
  3  4  2  0  0  0
  4  5  1  0  0  0
  5  6  2  0  0  0
  6  7  1  0  0  0
  7  8  2  0  0  0
  8  9  1  0  0  0
  9 10  1  0  0  0
 10 11  1  0  0  0
  6 40  1  0  0  0
 40 41  1  0  0  0
 40 42  2  0  0  0
 22 13  1  0  0  0
 11  1  1  0  0  0
 21 16  1  0  0  0
 29 24  1  0  0  0
  8  3  1  0  0  0
 35 31  1  0  0  0
 22 23  1  0  0  0
 41 43  1  0  0  0
M  END
> <minimizedAffinity>
23.41058

> <CNNscore>
0.3902795017

> <CNNaffinity>
7.8044195175

> <CNN_VS>
3.0459048748

> <CNNaffinity_variance>
0.3416957259

$$$$
[H]OC(=O)c1c([H])c([H])c2c(c1[H])C([H])([H])C([H])([H])C([H])([H])C(c1c([H])c([H])c3c(c1[H])C([H])([H])C(C([H])([H])[H])(C([H])([H])[H])N3[H])=C2c1c([H])c([H])c(O[C@]2([H])C([H])([H])N(C([H])([H])C([H])([H])C([H])([H])F)C([H])([H])C2([H])[H])c([H])c1[H]


 43 48  0  0  0  0  0  0  0  0999 V2000
   11.7013   44.6517  132.2471 C   0  0  0  0  0  0  0  0  0  0  0  0
   11.6080   45.7632  132.9395 C   0  0  0  0  0  0  0  0  0  0  0  0
   12.5189   46.2188  134.0252 C   0  0  0  0  0  0  0  0  0  0  0  0
   12.6285   47.6185  134.0709 C   0  0  0  0  0  0  0  0  0  0  0  0
   13.4381   48.1731  135.0191 C   0  0  0  0  0  0  0  0  0  0  0  0
   14.1361   47.3730  135.9160 C   0  0  0  0  0  0  0  0  0  0  0  0
   14.0059   46.0058  135.8429 C   0  0  0  0  0  0  0  0  0  0  0  0
   13.1851   45.3904  134.8853 C   0  0  0  0  0  0  0  0  0  0  0  0
   13.2015   43.9461  134.9917 C   0  0  0  0  0  0  0  0  0  0  0  0
   12.7575   43.1104  133.8862 C   0  0  0  0  0  0  0  0  0  0  0  0
   12.7908   43.6207  132.4963 C   0  0  0  0  0  0  0  0  0  0  0  0
    9.7955   41.7445  126.7735 C   0  0  0  0  0  0  0  0  0  0  0  0
    9.2688   43.1750  126.8784 C   0  0  0  0  0  0  0  0  0  0  0  0
    8.7620   43.6856  125.5562 C   0  0  0  0  0  0  0  0  0  0  0  0
   10.4011   44.0762  127.3276 C   0  0  0  0  0  0  0  0  0  0  0  0
   10.2623   44.0706  128.8279 C   0  0  0  0  0  0  0  0  0  0  0  0
   11.0937   44.4151  129.8477 C   0  0  0  0  0  0  0  0  0  0  0  0
   10.7586   44.3361  131.2044 C   0  0  0  0  0  0  0  0  0  0  0  0
    9.5008   43.8754  131.4834 C   0  0  0  0  0  0  0  0  0  0  0  0
    8.6018   43.5064  130.4758 C   0  0  0  0  0  0  0  0  0  0  0  0
    9.0033   43.6117  129.1557 C   0  0  0  0  0  0  0  0  0  0  0  0
    8.3214   43.3169  127.9397 N   0  0  0  0  0  0  0  0  0  0  0  0
    7.2884   43.2219  127.8526 H   0  0  0  0  0  0  0  0  0  0  0  0
   10.5428   46.7331  132.6735 C   0  0  0  0  0  0  0  0  0  0  0  0
    9.4268   46.9006  133.4562 C   0  0  0  0  0  0  0  0  0  0  0  0
    8.4726   47.8548  133.1394 C   0  0  0  0  0  0  0  0  0  0  0  0
    8.5712   48.6804  132.0480 C   0  0  0  0  0  0  0  0  0  0  0  0
    9.7019   48.5118  131.2531 C   0  0  0  0  0  0  0  0  0  0  0  0
   10.6503   47.5721  131.5575 C   0  0  0  0  0  0  0  0  0  0  0  0
    7.6579   49.6462  131.6802 O   0  0  0  0  0  0  0  0  0  0  0  0
    7.7764   50.5336  130.6228 C   0  0  0  0  0  0  0  0  0  0  0  0
    8.2399   49.7869  129.3952 C   0  0  0  0  0  0  0  0  0  0  0  0
    7.1583   50.0321  128.3884 C   0  0  0  0  0  0  0  0  0  0  0  0
    6.5281   51.2408  128.8001 N   0  0  0  0  0  0  0  0  0  0  0  0
    6.4212   51.1290  130.2406 C   0  0  0  0  0  0  0  0  0  0  0  0
    7.2255   52.4468  128.4854 C   0  0  0  0  0  0  0  0  0  0  0  0
    6.8637   53.0639  127.1696 C   0  0  0  0  0  0  0  0  0  0  0  0
    7.6214   54.3482  126.9097 C   0  0  0  0  0  0  0  0  0  0  0  0
    8.4474   54.1409  125.8193 F   0  0  0  0  0  0  0  0  0  0  0  0
   15.0017   47.9403  136.9281 C   0  0  0  0  0  0  0  0  0  0  0  0
   16.1902   47.3265  137.2644 O   0  0  0  0  0  0  0  0  0  0  0  0
   14.6710   48.9954  137.5038 O   0  0  0  0  0  0  0  0  0  0  0  0
   16.9662   47.9283  137.5136 H   0  0  0  0  0  0  0  0  0  0  0  0
 12 13  1  0  0  0
 13 14  1  0  0  0
 13 15  1  0  0  0
 15 16  1  0  0  0
 16 17  2  0  0  0
 17 18  1  0  0  0
 18 19  2  0  0  0
 19 20  1  0  0  0
 20 21  2  0  0  0
 21 22  1  0  0  0
 18  1  1  0  0  0
  1  2  2  0  0  0
  2 24  1  0  0  0
 24 25  2  0  0  0
 25 26  1  0  0  0
 26 27  2  0  0  0
 27 30  1  0  0  0
 30 31  1  0  0  0
 31 32  1  0  0  0
 32 33  1  0  0  0
 33 34  1  0  0  0
 34 36  1  0  0  0
 36 37  1  0  0  0
 37 38  1  0  0  0
 38 39  1  0  0  0
 34 35  1  0  0  0
 27 28  1  0  0  0
 28 29  2  0  0  0
  2  3  1  0  0  0
  3  4  2  0  0  0
  4  5  1  0  0  0
  5  6  2  0  0  0
  6  7  1  0  0  0
  7  8  2  0  0  0
  8  9  1  0  0  0
  9 10  1  0  0  0
 10 11  1  0  0  0
  6 40  1  0  0  0
 40 41  1  0  0  0
 40 42  2  0  0  0
 22 13  1  0  0  0
 11  1  1  0  0  0
 21 16  1  0  0  0
 29 24  1  0  0  0
  8  3  1  0  0  0
 35 31  1  0  0  0
 22 23  1  0  0  0
 41 43  1  0  0  0
M  END
> <minimizedAffinity>
24.65981

> <CNNscore>
0.3840646744

> <CNNaffinity>
7.8077301979

> <CNN_VS>
2.9986734390

> <CNNaffinity_variance>
0.9195588231

$$$$
[H]OC(=O)c1c([H])c([H])c2c(c1[H])C([H])([H])C([H])([H])C([H])([H])C(c1c([H])c([H])c3c(c1[H])C([H])([H])C(C([H])([H])[H])(C([H])([H])[H])N3[H])=C2c1c([H])c([H])c(O[C@]2([H])C([H])([H])N(C([H])([H])C([H])([H])C([H])([H])F)C([H])([H])C2([H])[H])c([H])c1[H]


 43 48  0  0  0  0  0  0  0  0999 V2000
   10.7798   45.2466  132.8638 C   0  0  0  0  0  0  0  0  0  0  0  0
    9.7722   46.0601  133.0799 C   0  0  0  0  0  0  0  0  0  0  0  0
    9.4027   46.7017  134.3714 C   0  0  0  0  0  0  0  0  0  0  0  0
    8.8177   47.9652  134.1857 C   0  0  0  0  0  0  0  0  0  0  0  0
    8.4341   48.6687  135.2903 C   0  0  0  0  0  0  0  0  0  0  0  0
    8.6180   48.1478  136.5658 C   0  0  0  0  0  0  0  0  0  0  0  0
    9.1942   46.9076  136.7112 C   0  0  0  0  0  0  0  0  0  0  0  0
    9.6044   46.1474  135.6050 C   0  0  0  0  0  0  0  0  0  0  0  0
   10.1848   44.8786  135.9931 C   0  0  0  0  0  0  0  0  0  0  0  0
   11.0184   44.1245  135.0687 C   0  0  0  0  0  0  0  0  0  0  0  0
   11.7313   44.8106  133.9668 C   0  0  0  0  0  0  0  0  0  0  0  0
    9.2027   43.6521  126.7799 C   0  0  0  0  0  0  0  0  0  0  0  0
   10.0858   42.5948  127.4409 C   0  0  0  0  0  0  0  0  0  0  0  0
   10.0721   41.2958  126.6807 C   0  0  0  0  0  0  0  0  0  0  0  0
    9.5596   42.3282  128.8367 C   0  0  0  0  0  0  0  0  0  0  0  0
   10.3406   43.2995  129.6832 C   0  0  0  0  0  0  0  0  0  0  0  0
   10.1739   43.7928  130.9398 C   0  0  0  0  0  0  0  0  0  0  0  0
   11.0394   44.7054  131.5542 C   0  0  0  0  0  0  0  0  0  0  0  0
   12.1140   45.1053  130.8077 C   0  0  0  0  0  0  0  0  0  0  0  0
   12.3373   44.6315  129.5095 C   0  0  0  0  0  0  0  0  0  0  0  0
   11.4385   43.7299  128.9672 C   0  0  0  0  0  0  0  0  0  0  0  0
   11.4039   43.0863  127.6963 N   0  0  0  0  0  0  0  0  0  0  0  0
   12.2231   42.9955  127.0605 H   0  0  0  0  0  0  0  0  0  0  0  0
    8.8736   46.4567  131.9931 C   0  0  0  0  0  0  0  0  0  0  0  0
    7.6802   45.8417  131.7036 C   0  0  0  0  0  0  0  0  0  0  0  0
    6.8819   46.2921  130.6637 C   0  0  0  0  0  0  0  0  0  0  0  0
    7.2176   47.3582  129.8680 C   0  0  0  0  0  0  0  0  0  0  0  0
    8.4274   47.9828  130.1599 C   0  0  0  0  0  0  0  0  0  0  0  0
    9.2232   47.5456  131.1849 C   0  0  0  0  0  0  0  0  0  0  0  0
    6.4684   47.8527  128.8211 O   0  0  0  0  0  0  0  0  0  0  0  0
    6.2801   49.1872  128.4993 C   0  0  0  0  0  0  0  0  0  0  0  0
    5.2999   49.8003  129.4703 C   0  0  0  0  0  0  0  0  0  0  0  0
    6.0637   50.9246  130.0995 C   0  0  0  0  0  0  0  0  0  0  0  0
    7.0783   51.2627  129.1593 N   0  0  0  0  0  0  0  0  0  0  0  0
    7.5697   49.9896  128.6730 C   0  0  0  0  0  0  0  0  0  0  0  0
    6.6576   52.0475  128.0425 C   0  0  0  0  0  0  0  0  0  0  0  0
    7.1956   53.4447  128.0104 C   0  0  0  0  0  0  0  0  0  0  0  0
    7.3877   53.9542  126.5981 C   0  0  0  0  0  0  0  0  0  0  0  0
    8.3005   54.9928  126.6415 F   0  0  0  0  0  0  0  0  0  0  0  0
    8.2203   48.8779  137.7507 C   0  0  0  0  0  0  0  0  0  0  0  0
    9.1662   49.3943  138.6116 O   0  0  0  0  0  0  0  0  0  0  0  0
    7.0096   49.0428  137.9981 O   0  0  0  0  0  0  0  0  0  0  0  0
    8.9474   50.2740  139.0639 H   0  0  0  0  0  0  0  0  0  0  0  0
 12 13  1  0  0  0
 13 14  1  0  0  0
 13 15  1  0  0  0
 15 16  1  0  0  0
 16 17  2  0  0  0
 17 18  1  0  0  0
 18 19  2  0  0  0
 19 20  1  0  0  0
 20 21  2  0  0  0
 21 22  1  0  0  0
 18  1  1  0  0  0
  1  2  2  0  0  0
  2 24  1  0  0  0
 24 25  2  0  0  0
 25 26  1  0  0  0
 26 27  2  0  0  0
 27 30  1  0  0  0
 30 31  1  0  0  0
 31 32  1  0  0  0
 32 33  1  0  0  0
 33 34  1  0  0  0
 34 36  1  0  0  0
 36 37  1  0  0  0
 37 38  1  0  0  0
 38 39  1  0  0  0
 34 35  1  0  0  0
 27 28  1  0  0  0
 28 29  2  0  0  0
  2  3  1  0  0  0
  3  4  2  0  0  0
  4  5  1  0  0  0
  5  6  2  0  0  0
  6  7  1  0  0  0
  7  8  2  0  0  0
  8  9  1  0  0  0
  9 10  1  0  0  0
 10 11  1  0  0  0
  6 40  1  0  0  0
 40 41  1  0  0  0
 40 42  2  0  0  0
 22 13  1  0  0  0
 11  1  1  0  0  0
 21 16  1  0  0  0
 29 24  1  0  0  0
  8  3  1  0  0  0
 35 31  1  0  0  0
 22 23  1  0  0  0
 41 43  1  0  0  0
M  END
> <minimizedAffinity>
21.02285

> <CNNscore>
0.3642685115

> <CNNaffinity>
7.9927473068

> <CNN_VS>
2.9115061760

> <CNNaffinity_variance>
0.3363585472

$$$$
[H]OC(=O)c1c([H])c([H])c2c(c1[H])C([H])([H])C([H])([H])C([H])([H])C(c1c([H])c([H])c3c(c1[H])C([H])([H])C(C([H])([H])[H])(C([H])([H])[H])N3[H])=C2c1c([H])c([H])c(O[C@]2([H])C([H])([H])N(C([H])([H])C([H])([H])C([H])([H])F)C([H])([H])C2([H])[H])c([H])c1[H]


 43 48  0  0  0  0  0  0  0  0999 V2000
   11.8703   44.6849  132.4193 C   0  0  0  0  0  0  0  0  0  0  0  0
   11.8170   45.8015  133.1078 C   0  0  0  0  0  0  0  0  0  0  0  0
   12.7477   46.2310  134.1873 C   0  0  0  0  0  0  0  0  0  0  0  0
   12.9033   47.6265  134.2270 C   0  0  0  0  0  0  0  0  0  0  0  0
   13.7354   48.1577  135.1691 C   0  0  0  0  0  0  0  0  0  0  0  0
   14.4113   47.3385  136.0657 C   0  0  0  0  0  0  0  0  0  0  0  0
   14.2359   45.9762  135.9986 C   0  0  0  0  0  0  0  0  0  0  0  0
   13.3906   45.3844  135.0473 C   0  0  0  0  0  0  0  0  0  0  0  0
   13.3603   43.9408  135.1593 C   0  0  0  0  0  0  0  0  0  0  0  0
   12.8837   43.1159  134.0592 C   0  0  0  0  0  0  0  0  0  0  0  0
   12.9267   43.6197  132.6672 C   0  0  0  0  0  0  0  0  0  0  0  0
    9.8283   41.7889  126.9891 C   0  0  0  0  0  0  0  0  0  0  0  0
    9.3647   43.2423  127.0749 C   0  0  0  0  0  0  0  0  0  0  0  0
    8.8780   43.7564  125.7466 C   0  0  0  0  0  0  0  0  0  0  0  0
   10.5362   44.0992  127.5100 C   0  0  0  0  0  0  0  0  0  0  0  0
   10.4003   44.1203  129.0104 C   0  0  0  0  0  0  0  0  0  0  0  0
   11.2481   44.4422  130.0242 C   0  0  0  0  0  0  0  0  0  0  0  0
   10.9126   44.3965  131.3824 C   0  0  0  0  0  0  0  0  0  0  0  0
    9.6365   43.9951  131.6695 C   0  0  0  0  0  0  0  0  0  0  0  0
    8.7202   43.6519  130.6684 C   0  0  0  0  0  0  0  0  0  0  0  0
    9.1231   43.7215  129.3465 C   0  0  0  0  0  0  0  0  0  0  0  0
    8.4266   43.4400  128.1355 N   0  0  0  0  0  0  0  0  0  0  0  0
    7.3903   43.3891  128.0513 H   0  0  0  0  0  0  0  0  0  0  0  0
   10.7828   46.8048  132.8432 C   0  0  0  0  0  0  0  0  0  0  0  0
    9.7425   47.0953  133.6914 C   0  0  0  0  0  0  0  0  0  0  0  0
    8.8139   48.0728  133.3692 C   0  0  0  0  0  0  0  0  0  0  0  0
    8.8654   48.8026  132.2085 C   0  0  0  0  0  0  0  0  0  0  0  0
    9.9194   48.5091  131.3472 C   0  0  0  0  0  0  0  0  0  0  0  0
   10.8419   47.5455  131.6562 C   0  0  0  0  0  0  0  0  0  0  0  0
    7.9742   49.7853  131.8316 O   0  0  0  0  0  0  0  0  0  0  0  0
    7.0229   49.6956  130.8283 C   0  0  0  0  0  0  0  0  0  0  0  0
    6.8013   51.0632  130.2281 C   0  0  0  0  0  0  0  0  0  0  0  0
    7.1338   50.8843  128.7787 C   0  0  0  0  0  0  0  0  0  0  0  0
    6.9474   49.4968  128.5185 N   0  0  0  0  0  0  0  0  0  0  0  0
    7.5139   48.8260  129.6709 C   0  0  0  0  0  0  0  0  0  0  0  0
    5.5944   49.0679  128.3589 C   0  0  0  0  0  0  0  0  0  0  0  0
    5.3959   47.5835  128.3537 C   0  0  0  0  0  0  0  0  0  0  0  0
    4.8843   47.0677  129.6816 C   0  0  0  0  0  0  0  0  0  0  0  0
    5.8992   46.3368  130.2730 F   0  0  0  0  0  0  0  0  0  0  0  0
   15.2999   47.8810  137.0714 C   0  0  0  0  0  0  0  0  0  0  0  0
   16.5468   47.3300  137.2818 O   0  0  0  0  0  0  0  0  0  0  0  0
   14.9363   48.8570  137.7563 O   0  0  0  0  0  0  0  0  0  0  0  0
   17.2946   47.9640  137.5372 H   0  0  0  0  0  0  0  0  0  0  0  0
 12 13  1  0  0  0
 13 14  1  0  0  0
 13 15  1  0  0  0
 15 16  1  0  0  0
 16 17  2  0  0  0
 17 18  1  0  0  0
 18 19  2  0  0  0
 19 20  1  0  0  0
 20 21  2  0  0  0
 21 22  1  0  0  0
 18  1  1  0  0  0
  1  2  2  0  0  0
  2 24  1  0  0  0
 24 25  2  0  0  0
 25 26  1  0  0  0
 26 27  2  0  0  0
 27 30  1  0  0  0
 30 31  1  0  0  0
 31 32  1  0  0  0
 32 33  1  0  0  0
 33 34  1  0  0  0
 34 36  1  0  0  0
 36 37  1  0  0  0
 37 38  1  0  0  0
 38 39  1  0  0  0
 34 35  1  0  0  0
 27 28  1  0  0  0
 28 29  2  0  0  0
  2  3  1  0  0  0
  3  4  2  0  0  0
  4  5  1  0  0  0
  5  6  2  0  0  0
  6  7  1  0  0  0
  7  8  2  0  0  0
  8  9  1  0  0  0
  9 10  1  0  0  0
 10 11  1  0  0  0
  6 40  1  0  0  0
 40 41  1  0  0  0
 40 42  2  0  0  0
 22 13  1  0  0  0
 11  1  1  0  0  0
 21 16  1  0  0  0
 29 24  1  0  0  0
  8  3  1  0  0  0
 35 31  1  0  0  0
 22 23  1  0  0  0
 41 43  1  0  0  0
M  END
> <minimizedAffinity>
24.52051

> <CNNscore>
0.3566375971

> <CNNaffinity>
7.8352584839

> <CNN_VS>
2.7943477631

> <CNNaffinity_variance>
0.4962162375

$$$$
[H]Oc1c([H])c([H])c([C@@]([H])(C([H])([H])C([H])([H])[H])[C@@]([H])(C#N)c2c([H])c([H])c(O[H])c([H])c2[H])c([H])c1[H]


 22 23  0  0  0  0  0  0  0  0999 V2000
    9.5899   47.2874  130.3047 C   0  0  0  0  0  0  0  0  0  0  0  0
    8.3023   47.8519  129.9778 C   0  0  0  0  0  0  0  0  0  0  0  0
    7.1628   47.1289  129.6717 C   0  0  0  0  0  0  0  0  0  0  0  0
    6.0027   47.8120  129.4001 C   0  0  0  0  0  0  0  0  0  0  0  0
    5.9187   49.1989  129.4178 C   0  0  0  0  0  0  0  0  0  0  0  0
    4.7320   49.8416  129.1384 O   0  0  0  0  0  0  0  0  0  0  0  0
    7.0456   49.9359  129.7207 C   0  0  0  0  0  0  0  0  0  0  0  0
    8.2078   49.2591  129.9932 C   0  0  0  0  0  0  0  0  0  0  0  0
    4.6823   50.8506  129.1540 H   0  0  0  0  0  0  0  0  0  0  0  0
    9.1514   48.0772  132.6887 C   0  0  0  0  0  0  0  0  0  0  0  0
   10.1097   47.9024  131.5851 C   0  0  0  0  0  0  0  0  0  0  0  0
    9.8368   45.8289  130.1725 C   0  0  0  0  0  0  0  0  0  0  0  0
   10.3817   45.2080  131.4011 C   0  0  0  0  0  0  0  0  0  0  0  0
   11.6942   45.2445  131.7987 C   0  0  0  0  0  0  0  0  0  0  0  0
   12.1638   44.6652  132.9559 C   0  0  0  0  0  0  0  0  0  0  0  0
   11.3036   44.0071  133.7812 C   0  0  0  0  0  0  0  0  0  0  0  0
   11.7447   43.4159  134.9490 O   0  0  0  0  0  0  0  0  0  0  0  0
    9.9779   43.9384  133.4334 C   0  0  0  0  0  0  0  0  0  0  0  0
    9.5317   44.5333  132.2578 C   0  0  0  0  0  0  0  0  0  0  0  0
   11.1087   42.9287  135.5601 H   0  0  0  0  0  0  0  0  0  0  0  0
   10.4255   45.3685  128.9460 C   0  0  0  0  0  0  0  0  0  0  0  0
   10.9173   44.9872  127.9733 N   0  0  0  0  0  0  0  0  0  0  0  0
 10 11  1  0  0  0
 11  1  1  0  0  0
  1 12  1  0  0  0
 12 21  1  0  0  0
 21 22  3  0  0  0
 12 13  1  0  0  0
 13 14  2  0  0  0
 14 15  1  0  0  0
 15 16  2  0  0  0
 16 17  1  0  0  0
 16 18  1  0  0  0
 18 19  2  0  0  0
  1  2  1  0  0  0
  2  3  2  0  0  0
  3  4  1  0  0  0
  4  5  2  0  0  0
  5  6  1  0  0  0
  5  7  1  0  0  0
  7  8  2  0  0  0
 19 13  1  0  0  0
  8  2  1  0  0  0
 17 20  1  0  0  0
  6  9  1  0  0  0
M  END
> <minimizedAffinity>
-7.89395

> <CNNscore>
0.7900417447

> <CNNaffinity>
7.4017434120

> <CNN_VS>
5.8476862907

> <CNNaffinity_variance>
0.3979950845

$$$$
[H]Oc1c([H])c([H])c([C@@]([H])(C([H])([H])C([H])([H])[H])[C@@]([H])(C#N)c2c([H])c([H])c(O[H])c([H])c2[H])c([H])c1[H]


 22 23  0  0  0  0  0  0  0  0999 V2000
    9.7076   47.5962  130.4825 C   0  0  0  0  0  0  0  0  0  0  0  0
    8.4676   48.2653  130.1691 C   0  0  0  0  0  0  0  0  0  0  0  0
    8.2660   49.6343  130.1908 C   0  0  0  0  0  0  0  0  0  0  0  0
    7.0295   50.1233  129.8473 C   0  0  0  0  0  0  0  0  0  0  0  0
    5.9678   49.3062  129.4781 C   0  0  0  0  0  0  0  0  0  0  0  0
    4.7438   49.8422  129.1411 O   0  0  0  0  0  0  0  0  0  0  0  0
    6.1511   47.9386  129.4513 C   0  0  0  0  0  0  0  0  0  0  0  0
    7.3845   47.4438  129.7933 C   0  0  0  0  0  0  0  0  0  0  0  0
    3.9786   49.2387  128.8742 H   0  0  0  0  0  0  0  0  0  0  0  0
    9.2906   48.3454  132.8834 C   0  0  0  0  0  0  0  0  0  0  0  0
   10.2536   48.1154  131.7941 C   0  0  0  0  0  0  0  0  0  0  0  0
    9.8518   46.1310  130.2874 C   0  0  0  0  0  0  0  0  0  0  0  0
   10.3790   45.4254  131.4773 C   0  0  0  0  0  0  0  0  0  0  0  0
   11.7014   45.3368  131.8313 C   0  0  0  0  0  0  0  0  0  0  0  0
   12.1551   44.6814  132.9538 C   0  0  0  0  0  0  0  0  0  0  0  0
   11.2673   44.0718  133.7872 C   0  0  0  0  0  0  0  0  0  0  0  0
   11.6918   43.4066  134.9209 O   0  0  0  0  0  0  0  0  0  0  0  0
    9.9305   44.1278  133.4825 C   0  0  0  0  0  0  0  0  0  0  0  0
    9.5011   44.7974  132.3413 C   0  0  0  0  0  0  0  0  0  0  0  0
   11.0355   42.9553  135.5379 H   0  0  0  0  0  0  0  0  0  0  0  0
   10.3817   45.6824  129.0301 C   0  0  0  0  0  0  0  0  0  0  0  0
   10.8048   45.2977  128.0269 N   0  0  0  0  0  0  0  0  0  0  0  0
 10 11  1  0  0  0
 11  1  1  0  0  0
  1 12  1  0  0  0
 12 21  1  0  0  0
 21 22  3  0  0  0
 12 13  1  0  0  0
 13 14  2  0  0  0
 14 15  1  0  0  0
 15 16  2  0  0  0
 16 17  1  0  0  0
 16 18  1  0  0  0
 18 19  2  0  0  0
  1  2  1  0  0  0
  2  3  2  0  0  0
  3  4  1  0  0  0
  4  5  2  0  0  0
  5  6  1  0  0  0
  5  7  1  0  0  0
  7  8  2  0  0  0
 19 13  1  0  0  0
  8  2  1  0  0  0
 17 20  1  0  0  0
  6  9  1  0  0  0
M  END
> <minimizedAffinity>
-8.03046

> <CNNscore>
0.7764922976

> <CNNaffinity>
7.3724641800

> <CNN_VS>
5.7246618271

> <CNNaffinity_variance>
0.3493512869

$$$$
[H]Oc1c([H])c([H])c([C@@]([H])(C([H])([H])C([H])([H])[H])[C@@]([H])(C#N)c2c([H])c([H])c(O[H])c([H])c2[H])c([H])c1[H]


 22 23  0  0  0  0  0  0  0  0999 V2000
    9.8983   46.7560  132.4694 C   0  0  0  0  0  0  0  0  0  0  0  0
    9.1779   47.5682  131.5181 C   0  0  0  0  0  0  0  0  0  0  0  0
    8.0847   47.1566  130.7760 C   0  0  0  0  0  0  0  0  0  0  0  0
    7.4922   48.0549  129.9227 C   0  0  0  0  0  0  0  0  0  0  0  0
    7.9398   49.3614  129.7684 C   0  0  0  0  0  0  0  0  0  0  0  0
    7.3131   50.2282  128.8995 O   0  0  0  0  0  0  0  0  0  0  0  0
    9.0290   49.7886  130.5004 C   0  0  0  0  0  0  0  0  0  0  0  0
    9.6253   48.8958  131.3549 C   0  0  0  0  0  0  0  0  0  0  0  0
    7.6471   51.1761  128.7950 H   0  0  0  0  0  0  0  0  0  0  0  0
    8.8165   46.6981  134.7772 C   0  0  0  0  0  0  0  0  0  0  0  0
    8.9269   46.1101  133.4322 C   0  0  0  0  0  0  0  0  0  0  0  0
   11.0124   45.8777  132.0300 C   0  0  0  0  0  0  0  0  0  0  0  0
   10.6903   45.0686  130.8328 C   0  0  0  0  0  0  0  0  0  0  0  0
   11.1038   45.3384  129.5529 C   0  0  0  0  0  0  0  0  0  0  0  0
   10.7946   44.5556  128.4634 C   0  0  0  0  0  0  0  0  0  0  0  0
   10.0340   43.4380  128.6266 C   0  0  0  0  0  0  0  0  0  0  0  0
    9.7071   42.6327  127.5530 O   0  0  0  0  0  0  0  0  0  0  0  0
    9.5916   43.1189  129.8858 C   0  0  0  0  0  0  0  0  0  0  0  0
    9.9198   43.9286  130.9682 C   0  0  0  0  0  0  0  0  0  0  0  0
    9.1443   41.8057  127.6730 H   0  0  0  0  0  0  0  0  0  0  0  0
   11.7487   45.1862  133.0510 C   0  0  0  0  0  0  0  0  0  0  0  0
   12.3227   44.6122  133.8723 N   0  0  0  0  0  0  0  0  0  0  0  0
 10 11  1  0  0  0
 11  1  1  0  0  0
  1 12  1  0  0  0
 12 21  1  0  0  0
 21 22  3  0  0  0
 12 13  1  0  0  0
 13 14  2  0  0  0
 14 15  1  0  0  0
 15 16  2  0  0  0
 16 17  1  0  0  0
 16 18  1  0  0  0
 18 19  2  0  0  0
  1  2  1  0  0  0
  2  3  2  0  0  0
  3  4  1  0  0  0
  4  5  2  0  0  0
  5  6  1  0  0  0
  5  7  1  0  0  0
  7  8  2  0  0  0
 19 13  1  0  0  0
  8  2  1  0  0  0
 17 20  1  0  0  0
  6  9  1  0  0  0
M  END
> <minimizedAffinity>
-8.28150

> <CNNscore>
0.7723764181

> <CNNaffinity>
7.4453535080

> <CNN_VS>
5.7506155968

> <CNNaffinity_variance>
0.4571220875

$$$$
[H]Oc1c([H])c([H])c([C@@]([H])(C([H])([H])C([H])([H])[H])[C@@]([H])(C#N)c2c([H])c([H])c(O[H])c([H])c2[H])c([H])c1[H]


 22 23  0  0  0  0  0  0  0  0999 V2000
    9.8744   46.8396  132.4996 C   0  0  0  0  0  0  0  0  0  0  0  0
    9.2549   47.7669  131.5832 C   0  0  0  0  0  0  0  0  0  0  0  0
    9.6419   49.0809  131.3862 C   0  0  0  0  0  0  0  0  0  0  0  0
    8.9633   49.8356  130.4610 C   0  0  0  0  0  0  0  0  0  0  0  0
    7.9030   49.3410  129.7111 C   0  0  0  0  0  0  0  0  0  0  0  0
    7.2513   50.1360  128.7933 O   0  0  0  0  0  0  0  0  0  0  0  0
    7.5035   48.0328  129.8949 C   0  0  0  0  0  0  0  0  0  0  0  0
    8.1778   47.2735  130.8179 C   0  0  0  0  0  0  0  0  0  0  0  0
    6.4815   49.7660  128.2534 H   0  0  0  0  0  0  0  0  0  0  0  0
    8.7341   46.4417  134.7447 C   0  0  0  0  0  0  0  0  0  0  0  0
    8.8114   46.1297  133.3082 C   0  0  0  0  0  0  0  0  0  0  0  0
   11.0010   45.9761  132.0625 C   0  0  0  0  0  0  0  0  0  0  0  0
   10.6869   45.1519  130.8735 C   0  0  0  0  0  0  0  0  0  0  0  0
   11.1002   45.4112  129.5913 C   0  0  0  0  0  0  0  0  0  0  0  0
   10.7987   44.6145  128.5098 C   0  0  0  0  0  0  0  0  0  0  0  0
   10.0465   43.4928  128.6839 C   0  0  0  0  0  0  0  0  0  0  0  0
    9.7276   42.6736  127.6185 O   0  0  0  0  0  0  0  0  0  0  0  0
    9.6048   43.1836  129.9458 C   0  0  0  0  0  0  0  0  0  0  0  0
    9.9252   44.0074  131.0200 C   0  0  0  0  0  0  0  0  0  0  0  0
    9.1710   41.8435  127.7465 H   0  0  0  0  0  0  0  0  0  0  0  0
   11.7530   45.3055  133.0858 C   0  0  0  0  0  0  0  0  0  0  0  0
   12.3363   44.7549  133.9166 N   0  0  0  0  0  0  0  0  0  0  0  0
 10 11  1  0  0  0
 11  1  1  0  0  0
  1 12  1  0  0  0
 12 21  1  0  0  0
 21 22  3  0  0  0
 12 13  1  0  0  0
 13 14  2  0  0  0
 14 15  1  0  0  0
 15 16  2  0  0  0
 16 17  1  0  0  0
 16 18  1  0  0  0
 18 19  2  0  0  0
  1  2  1  0  0  0
  2  3  2  0  0  0
  3  4  1  0  0  0
  4  5  2  0  0  0
  5  6  1  0  0  0
  5  7  1  0  0  0
  7  8  2  0  0  0
 19 13  1  0  0  0
  8  2  1  0  0  0
 17 20  1  0  0  0
  6  9  1  0  0  0
M  END
> <minimizedAffinity>
-8.32729

> <CNNscore>
0.7605311871

> <CNNaffinity>
7.4405746460

> <CNN_VS>
5.6587891579

> <CNNaffinity_variance>
0.4808619618

$$$$
[H]Oc1c([H])c([H])c([C@@]([H])(C([H])([H])C([H])([H])[H])[C@@]([H])(C#N)c2c([H])c([H])c(O[H])c([H])c2[H])c([H])c1[H]


 22 23  0  0  0  0  0  0  0  0999 V2000
    9.8120   46.6389  131.3821 C   0  0  0  0  0  0  0  0  0  0  0  0
   10.1038   45.2438  131.6104 C   0  0  0  0  0  0  0  0  0  0  0  0
    9.1624   44.2428  131.7743 C   0  0  0  0  0  0  0  0  0  0  0  0
    9.5978   42.9543  131.9651 C   0  0  0  0  0  0  0  0  0  0  0  0
   10.9428   42.6070  132.0017 C   0  0  0  0  0  0  0  0  0  0  0  0
   11.3330   41.2996  132.1958 O   0  0  0  0  0  0  0  0  0  0  0  0
   11.8953   43.5926  131.8404 C   0  0  0  0  0  0  0  0  0  0  0  0
   11.4665   44.8821  131.6492 C   0  0  0  0  0  0  0  0  0  0  0  0
   12.3139   41.0583  132.2208 H   0  0  0  0  0  0  0  0  0  0  0  0
    9.9743   48.3422  133.2719 C   0  0  0  0  0  0  0  0  0  0  0  0
   10.6683   47.4970  132.2866 C   0  0  0  0  0  0  0  0  0  0  0  0
    9.6452   47.1654  130.0034 C   0  0  0  0  0  0  0  0  0  0  0  0
    8.3768   47.9019  129.8016 C   0  0  0  0  0  0  0  0  0  0  0  0
    8.1871   49.2413  130.0298 C   0  0  0  0  0  0  0  0  0  0  0  0
    6.9947   49.8962  129.8190 C   0  0  0  0  0  0  0  0  0  0  0  0
    5.9156   49.2062  129.3568 C   0  0  0  0  0  0  0  0  0  0  0  0
    4.7060   49.8354  129.1355 O   0  0  0  0  0  0  0  0  0  0  0  0
    6.0472   47.8626  129.1110 C   0  0  0  0  0  0  0  0  0  0  0  0
    7.2646   47.2272  129.3331 C   0  0  0  0  0  0  0  0  0  0  0  0
    3.9071   49.3255  128.7936 H   0  0  0  0  0  0  0  0  0  0  0  0
   10.0285   46.3059  128.9186 C   0  0  0  0  0  0  0  0  0  0  0  0
   10.3554   45.6053  128.0608 N   0  0  0  0  0  0  0  0  0  0  0  0
 10 11  1  0  0  0
 11  1  1  0  0  0
  1 12  1  0  0  0
 12 21  1  0  0  0
 21 22  3  0  0  0
 12 13  1  0  0  0
 13 14  2  0  0  0
 14 15  1  0  0  0
 15 16  2  0  0  0
 16 17  1  0  0  0
 16 18  1  0  0  0
 18 19  2  0  0  0
  1  2  1  0  0  0
  2  3  2  0  0  0
  3  4  1  0  0  0
  4  5  2  0  0  0
  5  6  1  0  0  0
  5  7  1  0  0  0
  7  8  2  0  0  0
 19 13  1  0  0  0
  8  2  1  0  0  0
 17 20  1  0  0  0
  6  9  1  0  0  0
M  END
> <minimizedAffinity>
-7.78200

> <CNNscore>
0.7385593653

> <CNNaffinity>
7.4712972641

> <CNN_VS>
5.5179967880

> <CNNaffinity_variance>
0.8506007195

$$$$
[H]Oc1c([H])c([H])c([C@@]([H])(C([H])([H])C([H])([H])[H])[C@@]([H])(C#N)c2c([H])c([H])c(O[H])c([H])c2[H])c([H])c1[H]


 22 23  0  0  0  0  0  0  0  0999 V2000
    9.3472   46.7629  131.6387 C   0  0  0  0  0  0  0  0  0  0  0  0
   10.1900   45.6314  131.9435 C   0  0  0  0  0  0  0  0  0  0  0  0
    9.7554   44.3283  132.1111 C   0  0  0  0  0  0  0  0  0  0  0  0
   10.6849   43.3536  132.3799 C   0  0  0  0  0  0  0  0  0  0  0  0
   12.0451   43.6146  132.4923 C   0  0  0  0  0  0  0  0  0  0  0  0
   12.9416   42.6037  132.7633 O   0  0  0  0  0  0  0  0  0  0  0  0
   12.4961   44.9087  132.3285 C   0  0  0  0  0  0  0  0  0  0  0  0
   11.5723   45.8871  132.0594 C   0  0  0  0  0  0  0  0  0  0  0  0
   13.9286   42.8048  132.8430 H   0  0  0  0  0  0  0  0  0  0  0  0
    8.8858   47.4655  134.0455 C   0  0  0  0  0  0  0  0  0  0  0  0
    9.4641   47.7997  132.7338 C   0  0  0  0  0  0  0  0  0  0  0  0
    9.2877   47.3184  130.2626 C   0  0  0  0  0  0  0  0  0  0  0  0
    7.9853   47.9398  129.9319 C   0  0  0  0  0  0  0  0  0  0  0  0
    6.8886   47.2793  129.4390 C   0  0  0  0  0  0  0  0  0  0  0  0
    5.6874   47.8886  129.1539 C   0  0  0  0  0  0  0  0  0  0  0  0
    5.5410   49.2266  129.3604 C   0  0  0  0  0  0  0  0  0  0  0  0
    4.3484   49.8663  129.0840 O   0  0  0  0  0  0  0  0  0  0  0  0
    6.6059   49.9388  129.8522 C   0  0  0  0  0  0  0  0  0  0  0  0
    7.8077   49.2963  130.1313 C   0  0  0  0  0  0  0  0  0  0  0  0
    4.2394   50.8562  129.2365 H   0  0  0  0  0  0  0  0  0  0  0  0
    9.8728   46.5359  129.2100 C   0  0  0  0  0  0  0  0  0  0  0  0
   10.3647   45.9052  128.3771 N   0  0  0  0  0  0  0  0  0  0  0  0
 10 11  1  0  0  0
 11  1  1  0  0  0
  1 12  1  0  0  0
 12 21  1  0  0  0
 21 22  3  0  0  0
 12 13  1  0  0  0
 13 14  2  0  0  0
 14 15  1  0  0  0
 15 16  2  0  0  0
 16 17  1  0  0  0
 16 18  1  0  0  0
 18 19  2  0  0  0
  1  2  1  0  0  0
  2  3  2  0  0  0
  3  4  1  0  0  0
  4  5  2  0  0  0
  5  6  1  0  0  0
  5  7  1  0  0  0
  7  8  2  0  0  0
 19 13  1  0  0  0
  8  2  1  0  0  0
 17 20  1  0  0  0
  6  9  1  0  0  0
M  END
> <minimizedAffinity>
-8.06034

> <CNNscore>
0.6279613972

> <CNNaffinity>
7.1832952499

> <CNN_VS>
4.5108323097

> <CNNaffinity_variance>
0.3579974771

$$$$
[H]Oc1c([H])c([H])c([C@@]([H])(C([H])([H])C([H])([H])[H])[C@@]([H])(C#N)c2c([H])c([H])c(O[H])c([H])c2[H])c([H])c1[H]


 22 23  0  0  0  0  0  0  0  0999 V2000
    8.7566   45.7876  129.5079 C   0  0  0  0  0  0  0  0  0  0  0  0
    8.1878   47.1142  129.5065 C   0  0  0  0  0  0  0  0  0  0  0  0
    6.8808   47.4273  129.1767 C   0  0  0  0  0  0  0  0  0  0  0  0
    6.4815   48.7397  129.2420 C   0  0  0  0  0  0  0  0  0  0  0  0
    7.3302   49.7714  129.6244 C   0  0  0  0  0  0  0  0  0  0  0  0
    6.8849   51.0746  129.6754 O   0  0  0  0  0  0  0  0  0  0  0  0
    8.6372   49.4773  129.9563 C   0  0  0  0  0  0  0  0  0  0  0  0
    9.0422   48.1677  129.8933 C   0  0  0  0  0  0  0  0  0  0  0  0
    7.5108   51.8170  129.9548 H   0  0  0  0  0  0  0  0  0  0  0  0
   10.8193   45.0007  128.2329 C   0  0  0  0  0  0  0  0  0  0  0  0
   10.2491   45.8689  129.2759 C   0  0  0  0  0  0  0  0  0  0  0  0
    8.3400   44.7823  130.5186 C   0  0  0  0  0  0  0  0  0  0  0  0
    8.7197   45.1439  131.9031 C   0  0  0  0  0  0  0  0  0  0  0  0
    8.0039   45.9637  132.7383 C   0  0  0  0  0  0  0  0  0  0  0  0
    8.3819   46.2688  134.0265 C   0  0  0  0  0  0  0  0  0  0  0  0
    9.5299   45.7443  134.5376 C   0  0  0  0  0  0  0  0  0  0  0  0
    9.9355   46.0317  135.8263 O   0  0  0  0  0  0  0  0  0  0  0  0
   10.2869   44.9170  133.7465 C   0  0  0  0  0  0  0  0  0  0  0  0
    9.8800   44.6263  132.4484 C   0  0  0  0  0  0  0  0  0  0  0  0
   10.7848   45.6440  136.2050 H   0  0  0  0  0  0  0  0  0  0  0  0
    8.5156   43.3972  130.1820 C   0  0  0  0  0  0  0  0  0  0  0  0
    8.6680   42.2905  129.8896 N   0  0  0  0  0  0  0  0  0  0  0  0
 10 11  1  0  0  0
 11  1  1  0  0  0
  1 12  1  0  0  0
 12 21  1  0  0  0
 21 22  3  0  0  0
 12 13  1  0  0  0
 13 14  2  0  0  0
 14 15  1  0  0  0
 15 16  2  0  0  0
 16 17  1  0  0  0
 16 18  1  0  0  0
 18 19  2  0  0  0
  1  2  1  0  0  0
  2  3  2  0  0  0
  3  4  1  0  0  0
  4  5  2  0  0  0
  5  6  1  0  0  0
  5  7  1  0  0  0
  7  8  2  0  0  0
 19 13  1  0  0  0
  8  2  1  0  0  0
 17 20  1  0  0  0
  6  9  1  0  0  0
M  END
> <minimizedAffinity>
-8.32861

> <CNNscore>
0.5354621410

> <CNNaffinity>
7.0970792770

> <CNN_VS>
3.8002171516

> <CNNaffinity_variance>
0.2139776200

$$$$
[H]Oc1c([H])c([H])c([C@@]([H])(C([H])([H])C([H])([H])[H])[C@@]([H])(C#N)c2c([H])c([H])c(O[H])c([H])c2[H])c([H])c1[H]


 22 23  0  0  0  0  0  0  0  0999 V2000
    9.5442   47.9790  130.7794 C   0  0  0  0  0  0  0  0  0  0  0  0
    8.2448   48.3740  130.2904 C   0  0  0  0  0  0  0  0  0  0  0  0
    7.3750   47.5664  129.5789 C   0  0  0  0  0  0  0  0  0  0  0  0
    6.1606   48.0821  129.1975 C   0  0  0  0  0  0  0  0  0  0  0  0
    5.7626   49.3803  129.4929 C   0  0  0  0  0  0  0  0  0  0  0  0
    4.5334   49.8548  129.0893 O   0  0  0  0  0  0  0  0  0  0  0  0
    6.6177   50.1997  130.2015 C   0  0  0  0  0  0  0  0  0  0  0  0
    7.8326   49.6902  130.5856 C   0  0  0  0  0  0  0  0  0  0  0  0
    4.2542   50.8006  129.3094 H   0  0  0  0  0  0  0  0  0  0  0  0
   10.0370   49.0444  133.0425 C   0  0  0  0  0  0  0  0  0  0  0  0
   10.1575   49.1086  131.5769 C   0  0  0  0  0  0  0  0  0  0  0  0
    9.7626   46.6260  131.3517 C   0  0  0  0  0  0  0  0  0  0  0  0
    9.8388   45.5575  130.3299 C   0  0  0  0  0  0  0  0  0  0  0  0
   10.6761   45.5511  129.2432 C   0  0  0  0  0  0  0  0  0  0  0  0
   10.7285   44.5327  128.3183 C   0  0  0  0  0  0  0  0  0  0  0  0
    9.9148   43.4497  128.4568 C   0  0  0  0  0  0  0  0  0  0  0  0
    9.9443   42.4122  127.5454 O   0  0  0  0  0  0  0  0  0  0  0  0
    9.0556   43.4021  129.5257 C   0  0  0  0  0  0  0  0  0  0  0  0
    9.0245   44.4460  130.4447 C   0  0  0  0  0  0  0  0  0  0  0  0
    9.3424   41.6106  127.6472 H   0  0  0  0  0  0  0  0  0  0  0  0
    9.0248   46.2839  132.5354 C   0  0  0  0  0  0  0  0  0  0  0  0
    8.4519   46.0149  133.5013 N   0  0  0  0  0  0  0  0  0  0  0  0
 10 11  1  0  0  0
 11  1  1  0  0  0
  1 12  1  0  0  0
 12 21  1  0  0  0
 21 22  3  0  0  0
 12 13  1  0  0  0
 13 14  2  0  0  0
 14 15  1  0  0  0
 15 16  2  0  0  0
 16 17  1  0  0  0
 16 18  1  0  0  0
 18 19  2  0  0  0
  1  2  1  0  0  0
  2  3  2  0  0  0
  3  4  1  0  0  0
  4  5  2  0  0  0
  5  6  1  0  0  0
  5  7  1  0  0  0
  7  8  2  0  0  0
 19 13  1  0  0  0
  8  2  1  0  0  0
 17 20  1  0  0  0
  6  9  1  0  0  0
M  END
> <minimizedAffinity>
-7.98075

> <CNNscore>
0.5278280973

> <CNNaffinity>
6.8843779564

> <CNN_VS>
3.6337680817

> <CNNaffinity_variance>
0.2470400333

$$$$
[H]Oc1c([H])c([H])c([C@@]([H])(C([H])([H])C([H])([H])[H])[C@@]([H])(C#N)c2c([H])c([H])c(O[H])c([H])c2[H])c([H])c1[H]


 22 23  0  0  0  0  0  0  0  0999 V2000
    8.9042   45.8052  129.5436 C   0  0  0  0  0  0  0  0  0  0  0  0
    8.4924   47.1863  129.6240 C   0  0  0  0  0  0  0  0  0  0  0  0
    9.2769   48.2332  130.0753 C   0  0  0  0  0  0  0  0  0  0  0  0
    8.7479   49.5006  130.0739 C   0  0  0  0  0  0  0  0  0  0  0  0
    7.4582   49.7824  129.6400 C   0  0  0  0  0  0  0  0  0  0  0  0
    6.9696   51.0709  129.6568 O   0  0  0  0  0  0  0  0  0  0  0  0
    6.6618   48.7504  129.1870 C   0  0  0  0  0  0  0  0  0  0  0  0
    7.1848   47.4817  129.1857 C   0  0  0  0  0  0  0  0  0  0  0  0
    6.0302   51.2645  129.3390 H   0  0  0  0  0  0  0  0  0  0  0  0
   10.7688   44.8225  128.1093 C   0  0  0  0  0  0  0  0  0  0  0  0
   10.3756   45.7275  129.2017 C   0  0  0  0  0  0  0  0  0  0  0  0
    8.4491   44.8156  130.5532 C   0  0  0  0  0  0  0  0  0  0  0  0
    8.8651   45.1470  131.9348 C   0  0  0  0  0  0  0  0  0  0  0  0
   10.0939   44.8806  132.4835 C   0  0  0  0  0  0  0  0  0  0  0  0
   10.4505   45.2148  133.7705 C   0  0  0  0  0  0  0  0  0  0  0  0
    9.5561   45.8488  134.5782 C   0  0  0  0  0  0  0  0  0  0  0  0
    9.8844   46.1969  135.8739 O   0  0  0  0  0  0  0  0  0  0  0  0
    8.3103   46.1405  134.0821 C   0  0  0  0  0  0  0  0  0  0  0  0
    7.9778   45.7908  132.7774 C   0  0  0  0  0  0  0  0  0  0  0  0
    9.2231   46.6660  136.4720 H   0  0  0  0  0  0  0  0  0  0  0  0
    8.5480   43.4257  130.2053 C   0  0  0  0  0  0  0  0  0  0  0  0
    8.6481   42.3135  129.9114 N   0  0  0  0  0  0  0  0  0  0  0  0
 10 11  1  0  0  0
 11  1  1  0  0  0
  1 12  1  0  0  0
 12 21  1  0  0  0
 21 22  3  0  0  0
 12 13  1  0  0  0
 13 14  2  0  0  0
 14 15  1  0  0  0
 15 16  2  0  0  0
 16 17  1  0  0  0
 16 18  1  0  0  0
 18 19  2  0  0  0
  1  2  1  0  0  0
  2  3  2  0  0  0
  3  4  1  0  0  0
  4  5  2  0  0  0
  5  6  1  0  0  0
  5  7  1  0  0  0
  7  8  2  0  0  0
 19 13  1  0  0  0
  8  2  1  0  0  0
 17 20  1  0  0  0
  6  9  1  0  0  0
M  END
> <minimizedAffinity>
-8.38927

> <CNNscore>
0.5263210535

> <CNNaffinity>
7.0823774338

> <CNN_VS>
3.7276043892

> <CNNaffinity_variance>
0.1429235935

$$$$
[H]Oc1c([H])c([H])c2c(c1[H])C([H])([H])C([H])([H])N(C([H])([H])c1c([H])c([H])c3c(c1[H])OC([H])([H])O3)C2([H])c1c([H])c([H])c(OC([H])([H])C([H])([H])N2C([H])([H])C([H])([H])C([H])([H])C2([H])[H])c([H])c1[H]


 36 41  0  0  0  0  0  0  0  0999 V2000
   10.2681   46.9898  124.8902 O   0  0  0  0  0  0  0  0  0  0  0  0
    9.6571   46.9096  126.1479 C   0  0  0  0  0  0  0  0  0  0  0  0
   10.0535   45.9446  127.0509 C   0  0  0  0  0  0  0  0  0  0  0  0
    9.4466   45.8738  128.2850 C   0  0  0  0  0  0  0  0  0  0  0  0
    8.4615   46.7623  128.5924 C   0  0  0  0  0  0  0  0  0  0  0  0
    7.7177   46.7745  129.8821 C   0  0  0  0  0  0  0  0  0  0  0  0
    7.5372   48.0807  130.3241 N   0  0  0  0  0  0  0  0  0  0  0  0
    6.6208   48.8134  129.4311 C   0  0  0  0  0  0  0  0  0  0  0  0
    6.9860   48.7195  127.9969 C   0  0  0  0  0  0  0  0  0  0  0  0
    8.0723   47.7163  127.6950 C   0  0  0  0  0  0  0  0  0  0  0  0
    8.6655   47.8192  126.4314 C   0  0  0  0  0  0  0  0  0  0  0  0
   11.0899   47.5617  124.7290 H   0  0  0  0  0  0  0  0  0  0  0  0
    7.9649   45.6681  130.7812 C   0  0  0  0  0  0  0  0  0  0  0  0
    7.3677   45.3968  131.9710 C   0  0  0  0  0  0  0  0  0  0  0  0
    7.7158   44.2886  132.7530 C   0  0  0  0  0  0  0  0  0  0  0  0
    8.6855   43.3985  132.3736 C   0  0  0  0  0  0  0  0  0  0  0  0
    9.3102   43.6626  131.1517 C   0  0  0  0  0  0  0  0  0  0  0  0
    8.9544   44.7418  130.4137 C   0  0  0  0  0  0  0  0  0  0  0  0
    9.0825   42.3070  133.0708 O   0  0  0  0  0  0  0  0  0  0  0  0
    9.9941   42.0831  134.0602 C   0  0  0  0  0  0  0  0  0  0  0  0
   10.7235   43.2903  134.5492 C   0  0  0  0  0  0  0  0  0  0  0  0
    9.8928   44.1328  135.3914 N   0  0  0  0  0  0  0  0  0  0  0  0
   10.6080   44.7864  136.4388 C   0  0  0  0  0  0  0  0  0  0  0  0
   10.0792   46.1702  136.6060 C   0  0  0  0  0  0  0  0  0  0  0  0
    9.2247   46.4039  135.4061 C   0  0  0  0  0  0  0  0  0  0  0  0
    9.1654   45.1157  134.6548 C   0  0  0  0  0  0  0  0  0  0  0  0
    8.4174   48.8969  130.9907 C   0  0  0  0  0  0  0  0  0  0  0  0
    9.4994   48.3661  131.8217 C   0  0  0  0  0  0  0  0  0  0  0  0
    9.7775   48.9583  133.0551 C   0  0  0  0  0  0  0  0  0  0  0  0
   10.7618   48.5092  133.8949 C   0  0  0  0  0  0  0  0  0  0  0  0
   11.5287   47.4277  133.5360 C   0  0  0  0  0  0  0  0  0  0  0  0
   12.5807   46.7273  134.1286 O   0  0  0  0  0  0  0  0  0  0  0  0
   12.7000   45.4647  133.4556 C   0  0  0  0  0  0  0  0  0  0  0  0
   12.1527   45.7845  132.1865 O   0  0  0  0  0  0  0  0  0  0  0  0
   11.2472   46.8436  132.3087 C   0  0  0  0  0  0  0  0  0  0  0  0
   10.2630   47.2906  131.4661 C   0  0  0  0  0  0  0  0  0  0  0  0
  1  2  1  0  0  0
  2  3  2  0  0  0
  3  4  1  0  0  0
  4  5  2  0  0  0
  5  6  1  0  0  0
  6  7  1  0  0  0
  7 27  1  0  0  0
 27 28  1  0  0  0
 28 29  2  0  0  0
 29 30  1  0  0  0
 30 31  2  0  0  0
 31 32  1  0  0  0
 32 33  1  0  0  0
 33 34  1  0  0  0
 34 35  1  0  0  0
 35 36  2  0  0  0
  7  8  1  0  0  0
  8  9  1  0  0  0
  9 10  1  0  0  0
 10 11  2  0  0  0
  6 13  1  0  0  0
 13 14  2  0  0  0
 14 15  1  0  0  0
 15 16  2  0  0  0
 16 19  1  0  0  0
 19 20  1  0  0  0
 20 21  1  0  0  0
 21 22  1  0  0  0
 22 23  1  0  0  0
 23 24  1  0  0  0
 24 25  1  0  0  0
 25 26  1  0  0  0
 16 17  1  0  0  0
 17 18  2  0  0  0
 11  2  1  0  0  0
 18 13  1  0  0  0
 10  5  1  0  0  0
 26 22  1  0  0  0
 36 28  1  0  0  0
 35 31  1  0  0  0
  1 12  1  0  0  0
M  END
> <minimizedAffinity>
16.40184

> <CNNscore>
0.4293301702

> <CNNaffinity>
7.5477743149

> <CNN_VS>
3.2404873371

> <CNNaffinity_variance>
0.6457229853

$$$$
[H]Oc1c([H])c([H])c2c(c1[H])C([H])([H])C([H])([H])N(C([H])([H])c1c([H])c([H])c3c(c1[H])OC([H])([H])O3)C2([H])c1c([H])c([H])c(OC([H])([H])C([H])([H])N2C([H])([H])C([H])([H])C([H])([H])C2([H])[H])c([H])c1[H]


 36 41  0  0  0  0  0  0  0  0999 V2000
    5.6977   48.5344  128.9085 O   0  0  0  0  0  0  0  0  0  0  0  0
    6.7756   47.6612  129.1014 C   0  0  0  0  0  0  0  0  0  0  0  0
    6.9262   47.0007  130.3035 C   0  0  0  0  0  0  0  0  0  0  0  0
    7.9893   46.1442  130.4835 C   0  0  0  0  0  0  0  0  0  0  0  0
    8.8766   45.9643  129.4662 C   0  0  0  0  0  0  0  0  0  0  0  0
   10.0741   45.0833  129.5459 C   0  0  0  0  0  0  0  0  0  0  0  0
   10.2326   44.3740  128.3602 N   0  0  0  0  0  0  0  0  0  0  0  0
   10.5875   45.2797  127.2521 C   0  0  0  0  0  0  0  0  0  0  0  0
    9.6833   46.4483  127.1258 C   0  0  0  0  0  0  0  0  0  0  0  0
    8.7235   46.6206  128.2776 C   0  0  0  0  0  0  0  0  0  0  0  0
    7.6559   47.4988  128.0576 C   0  0  0  0  0  0  0  0  0  0  0  0
    4.8100   48.2159  128.5356 H   0  0  0  0  0  0  0  0  0  0  0  0
   10.3776   44.5210  130.8441 C   0  0  0  0  0  0  0  0  0  0  0  0
    9.9638   43.3388  131.3704 C   0  0  0  0  0  0  0  0  0  0  0  0
   10.3247   42.9197  132.6568 C   0  0  0  0  0  0  0  0  0  0  0  0
   11.1213   43.6735  133.4775 C   0  0  0  0  0  0  0  0  0  0  0  0
   11.5563   44.8930  132.9516 C   0  0  0  0  0  0  0  0  0  0  0  0
   11.1930   45.2753  131.7035 C   0  0  0  0  0  0  0  0  0  0  0  0
   11.5130   43.3430  134.7314 O   0  0  0  0  0  0  0  0  0  0  0  0
   11.0618   43.6390  135.9840 C   0  0  0  0  0  0  0  0  0  0  0  0
   10.9364   45.0934  136.2966 C   0  0  0  0  0  0  0  0  0  0  0  0
    9.6556   45.6380  135.8818 N   0  0  0  0  0  0  0  0  0  0  0  0
    9.7579   46.8475  135.1320 C   0  0  0  0  0  0  0  0  0  0  0  0
    8.7437   46.8359  134.0394 C   0  0  0  0  0  0  0  0  0  0  0  0
    8.2426   45.4318  133.9937 C   0  0  0  0  0  0  0  0  0  0  0  0
    8.8664   44.7080  135.1401 C   0  0  0  0  0  0  0  0  0  0  0  0
    9.5974   43.2292  127.9465 C   0  0  0  0  0  0  0  0  0  0  0  0
   10.3237   42.0989  127.3651 C   0  0  0  0  0  0  0  0  0  0  0  0
    9.8371   40.8019  127.5389 C   0  0  0  0  0  0  0  0  0  0  0  0
   10.4510   39.6965  127.0125 C   0  0  0  0  0  0  0  0  0  0  0  0
   11.6006   39.8369  126.2742 C   0  0  0  0  0  0  0  0  0  0  0  0
   12.4589   38.9570  125.6127 O   0  0  0  0  0  0  0  0  0  0  0  0
   13.2559   39.7266  124.6995 C   0  0  0  0  0  0  0  0  0  0  0  0
   13.2368   40.9965  125.3314 O   0  0  0  0  0  0  0  0  0  0  0  0
   12.0792   41.1289  126.1053 C   0  0  0  0  0  0  0  0  0  0  0  0
   11.4673   42.2370  126.6307 C   0  0  0  0  0  0  0  0  0  0  0  0
  1  2  1  0  0  0
  2  3  2  0  0  0
  3  4  1  0  0  0
  4  5  2  0  0  0
  5  6  1  0  0  0
  6  7  1  0  0  0
  7 27  1  0  0  0
 27 28  1  0  0  0
 28 29  2  0  0  0
 29 30  1  0  0  0
 30 31  2  0  0  0
 31 32  1  0  0  0
 32 33  1  0  0  0
 33 34  1  0  0  0
 34 35  1  0  0  0
 35 36  2  0  0  0
  7  8  1  0  0  0
  8  9  1  0  0  0
  9 10  1  0  0  0
 10 11  2  0  0  0
  6 13  1  0  0  0
 13 14  2  0  0  0
 14 15  1  0  0  0
 15 16  2  0  0  0
 16 19  1  0  0  0
 19 20  1  0  0  0
 20 21  1  0  0  0
 21 22  1  0  0  0
 22 23  1  0  0  0
 23 24  1  0  0  0
 24 25  1  0  0  0
 25 26  1  0  0  0
 16 17  1  0  0  0
 17 18  2  0  0  0
 11  2  1  0  0  0
 18 13  1  0  0  0
 10  5  1  0  0  0
 26 22  1  0  0  0
 36 28  1  0  0  0
 35 31  1  0  0  0
  1 12  1  0  0  0
M  END
> <minimizedAffinity>
24.72762

> <CNNscore>
0.3927421868

> <CNNaffinity>
7.4546051025

> <CNN_VS>
2.9277379513

> <CNNaffinity_variance>
0.6390817761

$$$$
[H]Oc1c([H])c([H])c2c(c1[H])C([H])([H])C([H])([H])N(C([H])([H])c1c([H])c([H])c3c(c1[H])OC([H])([H])O3)C2([H])c1c([H])c([H])c(OC([H])([H])C([H])([H])N2C([H])([H])C([H])([H])C([H])([H])C2([H])[H])c([H])c1[H]


 36 41  0  0  0  0  0  0  0  0999 V2000
   11.1532   45.0927  125.5201 O   0  0  0  0  0  0  0  0  0  0  0  0
   10.6297   45.1171  126.8189 C   0  0  0  0  0  0  0  0  0  0  0  0
   11.4058   44.7157  127.8868 C   0  0  0  0  0  0  0  0  0  0  0  0
   10.8821   44.7432  129.1600 C   0  0  0  0  0  0  0  0  0  0  0  0
    9.6012   45.1683  129.3421 C   0  0  0  0  0  0  0  0  0  0  0  0
    8.9173   45.2238  130.6634 C   0  0  0  0  0  0  0  0  0  0  0  0
    8.1692   46.3910  130.7723 N   0  0  0  0  0  0  0  0  0  0  0  0
    7.0311   46.3724  129.8350 C   0  0  0  0  0  0  0  0  0  0  0  0
    7.4139   46.0432  128.4406 C   0  0  0  0  0  0  0  0  0  0  0  0
    8.8363   45.5649  128.2815 C   0  0  0  0  0  0  0  0  0  0  0  0
    9.3338   45.5506  126.9733 C   0  0  0  0  0  0  0  0  0  0  0  0
   11.6355   45.8909  125.1215 H   0  0  0  0  0  0  0  0  0  0  0  0
    9.6229   44.6360  131.7815 C   0  0  0  0  0  0  0  0  0  0  0  0
   10.9610   44.4597  131.9377 C   0  0  0  0  0  0  0  0  0  0  0  0
   11.5138   43.8586  133.0752 C   0  0  0  0  0  0  0  0  0  0  0  0
   10.7432   43.4041  134.1125 C   0  0  0  0  0  0  0  0  0  0  0  0
    9.3640   43.5778  133.9684 C   0  0  0  0  0  0  0  0  0  0  0  0
    8.8545   44.1629  132.8576 C   0  0  0  0  0  0  0  0  0  0  0  0
   11.1972   42.8109  135.2426 O   0  0  0  0  0  0  0  0  0  0  0  0
   11.3642   43.2149  136.5344 C   0  0  0  0  0  0  0  0  0  0  0  0
   10.9697   44.6252  136.8244 C   0  0  0  0  0  0  0  0  0  0  0  0
   10.3928   45.2855  135.6667 N   0  0  0  0  0  0  0  0  0  0  0  0
    9.1872   45.9947  135.9476 C   0  0  0  0  0  0  0  0  0  0  0  0
    9.1739   47.2681  135.1724 C   0  0  0  0  0  0  0  0  0  0  0  0
   10.5647   47.4189  134.6551 C   0  0  0  0  0  0  0  0  0  0  0  0
   11.3030   46.1738  135.0185 C   0  0  0  0  0  0  0  0  0  0  0  0
    8.5866   47.6580  131.0978 C   0  0  0  0  0  0  0  0  0  0  0  0
    7.9372   48.8562  130.5636 C   0  0  0  0  0  0  0  0  0  0  0  0
    7.0089   49.5460  131.3458 C   0  0  0  0  0  0  0  0  0  0  0  0
    6.3725   50.6825  130.9225 C   0  0  0  0  0  0  0  0  0  0  0  0
    6.6381   51.1930  129.6753 C   0  0  0  0  0  0  0  0  0  0  0  0
    6.1872   52.2950  128.9467 O   0  0  0  0  0  0  0  0  0  0  0  0
    7.1152   52.5202  127.8746 C   0  0  0  0  0  0  0  0  0  0  0  0
    7.6486   51.2170  127.7033 O   0  0  0  0  0  0  0  0  0  0  0  0
    7.5617   50.5027  128.9027 C   0  0  0  0  0  0  0  0  0  0  0  0
    8.2002   49.3652  129.3234 C   0  0  0  0  0  0  0  0  0  0  0  0
  1  2  1  0  0  0
  2  3  2  0  0  0
  3  4  1  0  0  0
  4  5  2  0  0  0
  5  6  1  0  0  0
  6  7  1  0  0  0
  7 27  1  0  0  0
 27 28  1  0  0  0
 28 29  2  0  0  0
 29 30  1  0  0  0
 30 31  2  0  0  0
 31 32  1  0  0  0
 32 33  1  0  0  0
 33 34  1  0  0  0
 34 35  1  0  0  0
 35 36  2  0  0  0
  7  8  1  0  0  0
  8  9  1  0  0  0
  9 10  1  0  0  0
 10 11  2  0  0  0
  6 13  1  0  0  0
 13 14  2  0  0  0
 14 15  1  0  0  0
 15 16  2  0  0  0
 16 19  1  0  0  0
 19 20  1  0  0  0
 20 21  1  0  0  0
 21 22  1  0  0  0
 22 23  1  0  0  0
 23 24  1  0  0  0
 24 25  1  0  0  0
 25 26  1  0  0  0
 16 17  1  0  0  0
 17 18  2  0  0  0
 11  2  1  0  0  0
 18 13  1  0  0  0
 10  5  1  0  0  0
 26 22  1  0  0  0
 36 28  1  0  0  0
 35 31  1  0  0  0
  1 12  1  0  0  0
M  END
> <minimizedAffinity>
16.78442

> <CNNscore>
0.3501991034

> <CNNaffinity>
7.4977235794

> <CNN_VS>
2.6256961823

> <CNNaffinity_variance>
1.0923311710

$$$$
[H]Oc1c([H])c([H])c2c(c1[H])C([H])([H])C([H])([H])N(C([H])([H])c1c([H])c([H])c3c(c1[H])OC([H])([H])O3)C2([H])c1c([H])c([H])c(OC([H])([H])C([H])([H])N2C([H])([H])C([H])([H])C([H])([H])C2([H])[H])c([H])c1[H]


 36 41  0  0  0  0  0  0  0  0999 V2000
   10.0985   45.8298  125.7477 O   0  0  0  0  0  0  0  0  0  0  0  0
    9.5684   46.0181  127.0303 C   0  0  0  0  0  0  0  0  0  0  0  0
    9.6191   44.9980  127.9581 C   0  0  0  0  0  0  0  0  0  0  0  0
    9.0951   45.1928  129.2165 C   0  0  0  0  0  0  0  0  0  0  0  0
    8.5337   46.3950  129.5232 C   0  0  0  0  0  0  0  0  0  0  0  0
    7.9171   46.7197  130.8388 C   0  0  0  0  0  0  0  0  0  0  0  0
    8.2642   48.0080  131.2310 N   0  0  0  0  0  0  0  0  0  0  0  0
    7.6455   49.0097  130.3432 C   0  0  0  0  0  0  0  0  0  0  0  0
    7.8737   48.7487  128.9014 C   0  0  0  0  0  0  0  0  0  0  0  0
    8.4858   47.4023  128.6013 C   0  0  0  0  0  0  0  0  0  0  0  0
    9.0077   47.2416  127.3124 C   0  0  0  0  0  0  0  0  0  0  0  0
   11.0656   46.0448  125.5306 H   0  0  0  0  0  0  0  0  0  0  0  0
    7.7764   45.6250  131.7745 C   0  0  0  0  0  0  0  0  0  0  0  0
    7.5808   45.6815  133.1177 C   0  0  0  0  0  0  0  0  0  0  0  0
    7.4746   44.5335  133.9124 C   0  0  0  0  0  0  0  0  0  0  0  0
    7.5615   43.2698  133.3910 C   0  0  0  0  0  0  0  0  0  0  0  0
    7.7626   43.1932  132.0101 C   0  0  0  0  0  0  0  0  0  0  0  0
    7.8616   44.3196  131.2636 C   0  0  0  0  0  0  0  0  0  0  0  0
    7.4724   42.1118  134.0883 O   0  0  0  0  0  0  0  0  0  0  0  0
    8.2142   40.9687  134.1432 C   0  0  0  0  0  0  0  0  0  0  0  0
    9.6873   41.1482  133.9813 C   0  0  0  0  0  0  0  0  0  0  0  0
   10.0548   42.5394  133.7847 N   0  0  0  0  0  0  0  0  0  0  0  0
   10.4409   43.2097  134.9834 C   0  0  0  0  0  0  0  0  0  0  0  0
   11.5835   44.1215  134.6908 C   0  0  0  0  0  0  0  0  0  0  0  0
   12.0487   43.7313  133.3284 C   0  0  0  0  0  0  0  0  0  0  0  0
   11.0866   42.7131  132.8135 C   0  0  0  0  0  0  0  0  0  0  0  0
    9.4200   48.4480  131.8275 C   0  0  0  0  0  0  0  0  0  0  0  0
   10.6260   47.6213  131.8993 C   0  0  0  0  0  0  0  0  0  0  0  0
   11.4117   47.6442  133.0532 C   0  0  0  0  0  0  0  0  0  0  0  0
   12.5437   46.8878  133.2017 C   0  0  0  0  0  0  0  0  0  0  0  0
   12.9519   46.0576  132.1864 C   0  0  0  0  0  0  0  0  0  0  0  0
   14.0192   45.1765  132.0047 O   0  0  0  0  0  0  0  0  0  0  0  0
   13.6905   44.3115  130.9069 C   0  0  0  0  0  0  0  0  0  0  0  0
   12.7895   45.1312  130.1799 O   0  0  0  0  0  0  0  0  0  0  0  0
   12.1665   46.0396  131.0421 C   0  0  0  0  0  0  0  0  0  0  0  0
   11.0332   46.7953  130.8903 C   0  0  0  0  0  0  0  0  0  0  0  0
  1  2  1  0  0  0
  2  3  2  0  0  0
  3  4  1  0  0  0
  4  5  2  0  0  0
  5  6  1  0  0  0
  6  7  1  0  0  0
  7 27  1  0  0  0
 27 28  1  0  0  0
 28 29  2  0  0  0
 29 30  1  0  0  0
 30 31  2  0  0  0
 31 32  1  0  0  0
 32 33  1  0  0  0
 33 34  1  0  0  0
 34 35  1  0  0  0
 35 36  2  0  0  0
  7  8  1  0  0  0
  8  9  1  0  0  0
  9 10  1  0  0  0
 10 11  2  0  0  0
  6 13  1  0  0  0
 13 14  2  0  0  0
 14 15  1  0  0  0
 15 16  2  0  0  0
 16 19  1  0  0  0
 19 20  1  0  0  0
 20 21  1  0  0  0
 21 22  1  0  0  0
 22 23  1  0  0  0
 23 24  1  0  0  0
 24 25  1  0  0  0
 25 26  1  0  0  0
 16 17  1  0  0  0
 17 18  2  0  0  0
 11  2  1  0  0  0
 18 13  1  0  0  0
 10  5  1  0  0  0
 26 22  1  0  0  0
 36 28  1  0  0  0
 35 31  1  0  0  0
  1 12  1  0  0  0
M  END
> <minimizedAffinity>
19.41174

> <CNNscore>
0.3485457301

> <CNNaffinity>
7.1460013390

> <CNN_VS>
2.4907083511

> <CNNaffinity_variance>
0.7959662080

$$$$
[H]Oc1c([H])c([H])c2c(c1[H])C([H])([H])C([H])([H])N(C([H])([H])c1c([H])c([H])c3c(c1[H])OC([H])([H])O3)C2([H])c1c([H])c([H])c(OC([H])([H])C([H])([H])N2C([H])([H])C([H])([H])C([H])([H])C2([H])[H])c([H])c1[H]


 36 41  0  0  0  0  0  0  0  0999 V2000
    7.0412   51.7381  130.6124 O   0  0  0  0  0  0  0  0  0  0  0  0
    7.7996   50.6232  130.9912 C   0  0  0  0  0  0  0  0  0  0  0  0
    8.3675   49.8122  130.0302 C   0  0  0  0  0  0  0  0  0  0  0  0
    9.1114   48.7183  130.4125 C   0  0  0  0  0  0  0  0  0  0  0  0
    9.2734   48.4563  131.7391 C   0  0  0  0  0  0  0  0  0  0  0  0
   10.0358   47.2958  132.2762 C   0  0  0  0  0  0  0  0  0  0  0  0
   10.8004   47.6842  133.3710 N   0  0  0  0  0  0  0  0  0  0  0  0
    9.9372   48.0424  134.5115 C   0  0  0  0  0  0  0  0  0  0  0  0
    8.8653   49.0074  134.1665 C   0  0  0  0  0  0  0  0  0  0  0  0
    8.7091   49.2623  132.6872 C   0  0  0  0  0  0  0  0  0  0  0  0
    7.9465   50.3826  132.3371 C   0  0  0  0  0  0  0  0  0  0  0  0
    7.4613   52.6512  130.4769 H   0  0  0  0  0  0  0  0  0  0  0  0
   10.4862   46.3161  131.3114 C   0  0  0  0  0  0  0  0  0  0  0  0
   11.1911   45.1757  131.5316 C   0  0  0  0  0  0  0  0  0  0  0  0
   11.5769   44.3167  130.4952 C   0  0  0  0  0  0  0  0  0  0  0  0
   11.2711   44.5662  129.1835 C   0  0  0  0  0  0  0  0  0  0  0  0
   10.5459   45.7355  128.9390 C   0  0  0  0  0  0  0  0  0  0  0  0
   10.1844   46.5497  129.9599 C   0  0  0  0  0  0  0  0  0  0  0  0
   11.6078   43.7908  128.1250 O   0  0  0  0  0  0  0  0  0  0  0  0
   11.0555   42.6969  127.5264 C   0  0  0  0  0  0  0  0  0  0  0  0
   10.2573   41.8073  128.4207 C   0  0  0  0  0  0  0  0  0  0  0  0
    8.9650   42.3788  128.7562 N   0  0  0  0  0  0  0  0  0  0  0  0
    8.7607   42.5627  130.1562 C   0  0  0  0  0  0  0  0  0  0  0  0
    8.0360   43.8456  130.3830 C   0  0  0  0  0  0  0  0  0  0  0  0
    8.0905   44.5559  129.0726 C   0  0  0  0  0  0  0  0  0  0  0  0
    8.7124   43.6174  128.0928 C   0  0  0  0  0  0  0  0  0  0  0  0
   12.0215   48.3116  133.3934 C   0  0  0  0  0  0  0  0  0  0  0  0
   12.8524   48.3617  134.5976 C   0  0  0  0  0  0  0  0  0  0  0  0
   12.5575   49.2849  135.6027 C   0  0  0  0  0  0  0  0  0  0  0  0
   13.2776   49.3813  136.7637 C   0  0  0  0  0  0  0  0  0  0  0  0
   14.3455   48.5449  136.9797 C   0  0  0  0  0  0  0  0  0  0  0  0
   15.2677   48.3735  138.0134 O   0  0  0  0  0  0  0  0  0  0  0  0
   15.8905   47.0920  137.8363 C   0  0  0  0  0  0  0  0  0  0  0  0
   15.7435   46.9135  136.4367 O   0  0  0  0  0  0  0  0  0  0  0  0
   14.6334   47.6296  135.9767 C   0  0  0  0  0  0  0  0  0  0  0  0
   13.9149   47.5306  134.8138 C   0  0  0  0  0  0  0  0  0  0  0  0
  1  2  1  0  0  0
  2  3  2  0  0  0
  3  4  1  0  0  0
  4  5  2  0  0  0
  5  6  1  0  0  0
  6  7  1  0  0  0
  7 27  1  0  0  0
 27 28  1  0  0  0
 28 29  2  0  0  0
 29 30  1  0  0  0
 30 31  2  0  0  0
 31 32  1  0  0  0
 32 33  1  0  0  0
 33 34  1  0  0  0
 34 35  1  0  0  0
 35 36  2  0  0  0
  7  8  1  0  0  0
  8  9  1  0  0  0
  9 10  1  0  0  0
 10 11  2  0  0  0
  6 13  1  0  0  0
 13 14  2  0  0  0
 14 15  1  0  0  0
 15 16  2  0  0  0
 16 19  1  0  0  0
 19 20  1  0  0  0
 20 21  1  0  0  0
 21 22  1  0  0  0
 22 23  1  0  0  0
 23 24  1  0  0  0
 24 25  1  0  0  0
 25 26  1  0  0  0
 16 17  1  0  0  0
 17 18  2  0  0  0
 11  2  1  0  0  0
 18 13  1  0  0  0
 10  5  1  0  0  0
 26 22  1  0  0  0
 36 28  1  0  0  0
 35 31  1  0  0  0
  1 12  1  0  0  0
M  END
> <minimizedAffinity>
24.68920

> <CNNscore>
0.3073227406

> <CNNaffinity>
7.1640000343

> <CNN_VS>
2.2016601562

> <CNNaffinity_variance>
1.1389214993

$$$$
[H]Oc1c([H])c([H])c2c(c1[H])C([H])([H])C([H])([H])N(C([H])([H])c1c([H])c([H])c3c(c1[H])OC([H])([H])O3)C2([H])c1c([H])c([H])c(OC([H])([H])C([H])([H])N2C([H])([H])C([H])([H])C([H])([H])C2([H])[H])c([H])c1[H]


 36 41  0  0  0  0  0  0  0  0999 V2000
    6.9740   52.7879  127.9680 O   0  0  0  0  0  0  0  0  0  0  0  0
    7.1750   51.5702  128.6303 C   0  0  0  0  0  0  0  0  0  0  0  0
    7.6386   50.4717  127.9359 C   0  0  0  0  0  0  0  0  0  0  0  0
    7.8330   49.2789  128.5959 C   0  0  0  0  0  0  0  0  0  0  0  0
    7.5626   49.2057  129.9286 C   0  0  0  0  0  0  0  0  0  0  0  0
    7.7124   47.9708  130.7466 C   0  0  0  0  0  0  0  0  0  0  0  0
    8.2718   48.2745  131.9831 N   0  0  0  0  0  0  0  0  0  0  0  0
    7.3384   49.0742  132.7975 C   0  0  0  0  0  0  0  0  0  0  0  0
    6.7932   50.2571  132.0885 C   0  0  0  0  0  0  0  0  0  0  0  0
    7.1037   50.2962  130.6121 C   0  0  0  0  0  0  0  0  0  0  0  0
    6.8938   51.5250  129.9756 C   0  0  0  0  0  0  0  0  0  0  0  0
    7.7076   53.4840  127.8917 H   0  0  0  0  0  0  0  0  0  0  0  0
    8.0115   46.7514  130.0274 C   0  0  0  0  0  0  0  0  0  0  0  0
    7.1939   45.6954  129.7781 C   0  0  0  0  0  0  0  0  0  0  0  0
    7.6204   44.5622  129.0747 C   0  0  0  0  0  0  0  0  0  0  0  0
    8.8947   44.4375  128.5879 C   0  0  0  0  0  0  0  0  0  0  0  0
    9.7493   45.5152  128.8353 C   0  0  0  0  0  0  0  0  0  0  0  0
    9.3117   46.6005  129.5183 C   0  0  0  0  0  0  0  0  0  0  0  0
    9.3860   43.3775  127.9023 O   0  0  0  0  0  0  0  0  0  0  0  0
   10.0884   42.2595  128.2438 C   0  0  0  0  0  0  0  0  0  0  0  0
    9.7164   41.6389  129.5496 C   0  0  0  0  0  0  0  0  0  0  0  0
    9.8438   42.5685  130.6581 N   0  0  0  0  0  0  0  0  0  0  0  0
    8.6200   42.8146  131.3489 C   0  0  0  0  0  0  0  0  0  0  0  0
    8.8920   42.9114  132.8115 C   0  0  0  0  0  0  0  0  0  0  0  0
   10.2867   42.4098  132.9782 C   0  0  0  0  0  0  0  0  0  0  0  0
   10.8317   42.1723  131.6093 C   0  0  0  0  0  0  0  0  0  0  0  0
    9.5903   48.4763  132.3091 C   0  0  0  0  0  0  0  0  0  0  0  0
   10.4940   47.3704  132.6304 C   0  0  0  0  0  0  0  0  0  0  0  0
   11.5884   47.1099  131.8035 C   0  0  0  0  0  0  0  0  0  0  0  0
   12.4864   46.1047  132.0467 C   0  0  0  0  0  0  0  0  0  0  0  0
   12.3309   45.2978  133.1472 C   0  0  0  0  0  0  0  0  0  0  0  0
   13.0333   44.2163  133.6815 O   0  0  0  0  0  0  0  0  0  0  0  0
   12.6119   44.0508  135.0440 C   0  0  0  0  0  0  0  0  0  0  0  0
   11.3119   44.6163  134.9933 O   0  0  0  0  0  0  0  0  0  0  0  0
   11.2410   45.5620  133.9651 C   0  0  0  0  0  0  0  0  0  0  0  0
   10.3407   46.5670  133.7245 C   0  0  0  0  0  0  0  0  0  0  0  0
  1  2  1  0  0  0
  2  3  2  0  0  0
  3  4  1  0  0  0
  4  5  2  0  0  0
  5  6  1  0  0  0
  6  7  1  0  0  0
  7 27  1  0  0  0
 27 28  1  0  0  0
 28 29  2  0  0  0
 29 30  1  0  0  0
 30 31  2  0  0  0
 31 32  1  0  0  0
 32 33  1  0  0  0
 33 34  1  0  0  0
 34 35  1  0  0  0
 35 36  2  0  0  0
  7  8  1  0  0  0
  8  9  1  0  0  0
  9 10  1  0  0  0
 10 11  2  0  0  0
  6 13  1  0  0  0
 13 14  2  0  0  0
 14 15  1  0  0  0
 15 16  2  0  0  0
 16 19  1  0  0  0
 19 20  1  0  0  0
 20 21  1  0  0  0
 21 22  1  0  0  0
 22 23  1  0  0  0
 23 24  1  0  0  0
 24 25  1  0  0  0
 25 26  1  0  0  0
 16 17  1  0  0  0
 17 18  2  0  0  0
 11  2  1  0  0  0
 18 13  1  0  0  0
 10  5  1  0  0  0
 26 22  1  0  0  0
 36 28  1  0  0  0
 35 31  1  0  0  0
  1 12  1  0  0  0
M  END
> <minimizedAffinity>
7.38004

> <CNNscore>
0.2869596779

> <CNNaffinity>
7.2804222107

> <CNN_VS>
2.0891876221

> <CNNaffinity_variance>
0.3459982276

$$$$
[H]Oc1c([H])c([H])c2c(c1[H])C([H])([H])C([H])([H])N(C([H])([H])c1c([H])c([H])c3c(c1[H])OC([H])([H])O3)C2([H])c1c([H])c([H])c(OC([H])([H])C([H])([H])N2C([H])([H])C([H])([H])C([H])([H])C2([H])[H])c([H])c1[H]


 36 41  0  0  0  0  0  0  0  0999 V2000
    7.6199   48.6249  125.5408 O   0  0  0  0  0  0  0  0  0  0  0  0
    7.6081   48.3995  126.9230 C   0  0  0  0  0  0  0  0  0  0  0  0
    8.0739   47.2057  127.4348 C   0  0  0  0  0  0  0  0  0  0  0  0
    8.0582   46.9935  128.7953 C   0  0  0  0  0  0  0  0  0  0  0  0
    7.5805   47.9711  129.6143 C   0  0  0  0  0  0  0  0  0  0  0  0
    7.4929   47.8533  131.0958 C   0  0  0  0  0  0  0  0  0  0  0  0
    7.8800   49.0447  131.6997 N   0  0  0  0  0  0  0  0  0  0  0  0
    6.9069   50.1156  131.4159 C   0  0  0  0  0  0  0  0  0  0  0  0
    6.5841   50.2600  129.9758 C   0  0  0  0  0  0  0  0  0  0  0  0
    7.1203   49.1517  129.1030 C   0  0  0  0  0  0  0  0  0  0  0  0
    7.1203   49.4036  127.7261 C   0  0  0  0  0  0  0  0  0  0  0  0
    8.4152   49.0461  125.0732 H   0  0  0  0  0  0  0  0  0  0  0  0
    7.7900   46.5542  131.6596 C   0  0  0  0  0  0  0  0  0  0  0  0
    8.0364   46.2323  132.9563 C   0  0  0  0  0  0  0  0  0  0  0  0
    8.3262   44.9250  133.3658 C   0  0  0  0  0  0  0  0  0  0  0  0
    8.3828   43.8763  132.4863 C   0  0  0  0  0  0  0  0  0  0  0  0
    8.1315   44.1898  131.1478 C   0  0  0  0  0  0  0  0  0  0  0  0
    7.8531   45.4631  130.7777 C   0  0  0  0  0  0  0  0  0  0  0  0
    8.6581   42.5874  132.7993 O   0  0  0  0  0  0  0  0  0  0  0  0
    9.8001   41.8469  132.8859 C   0  0  0  0  0  0  0  0  0  0  0  0
   10.6555   41.8365  131.6625 C   0  0  0  0  0  0  0  0  0  0  0  0
   11.0488   43.1733  131.2534 N   0  0  0  0  0  0  0  0  0  0  0  0
   12.4467   43.4283  131.3804 C   0  0  0  0  0  0  0  0  0  0  0  0
   12.9050   44.2444  130.2200 C   0  0  0  0  0  0  0  0  0  0  0  0
   11.7742   44.2020  129.2484 C   0  0  0  0  0  0  0  0  0  0  0  0
   10.6474   43.4909  129.9208 C   0  0  0  0  0  0  0  0  0  0  0  0
    9.1453   49.5120  131.9568 C   0  0  0  0  0  0  0  0  0  0  0  0
   10.1250   48.7362  132.7192 C   0  0  0  0  0  0  0  0  0  0  0  0
   10.5027   49.1622  133.9941 C   0  0  0  0  0  0  0  0  0  0  0  0
   11.3999   48.4822  134.7741 C   0  0  0  0  0  0  0  0  0  0  0  0
   11.9725   47.3235  134.3092 C   0  0  0  0  0  0  0  0  0  0  0  0
   12.8934   46.4073  134.8201 O   0  0  0  0  0  0  0  0  0  0  0  0
   12.7962   45.2070  134.0383 C   0  0  0  0  0  0  0  0  0  0  0  0
   12.3067   45.7247  132.8117 O   0  0  0  0  0  0  0  0  0  0  0  0
   11.5929   46.9055  133.0413 C   0  0  0  0  0  0  0  0  0  0  0  0
   10.6954   47.5837  132.2583 C   0  0  0  0  0  0  0  0  0  0  0  0
  1  2  1  0  0  0
  2  3  2  0  0  0
  3  4  1  0  0  0
  4  5  2  0  0  0
  5  6  1  0  0  0
  6  7  1  0  0  0
  7 27  1  0  0  0
 27 28  1  0  0  0
 28 29  2  0  0  0
 29 30  1  0  0  0
 30 31  2  0  0  0
 31 32  1  0  0  0
 32 33  1  0  0  0
 33 34  1  0  0  0
 34 35  1  0  0  0
 35 36  2  0  0  0
  7  8  1  0  0  0
  8  9  1  0  0  0
  9 10  1  0  0  0
 10 11  2  0  0  0
  6 13  1  0  0  0
 13 14  2  0  0  0
 14 15  1  0  0  0
 15 16  2  0  0  0
 16 19  1  0  0  0
 19 20  1  0  0  0
 20 21  1  0  0  0
 21 22  1  0  0  0
 22 23  1  0  0  0
 23 24  1  0  0  0
 24 25  1  0  0  0
 25 26  1  0  0  0
 16 17  1  0  0  0
 17 18  2  0  0  0
 11  2  1  0  0  0
 18 13  1  0  0  0
 10  5  1  0  0  0
 26 22  1  0  0  0
 36 28  1  0  0  0
 35 31  1  0  0  0
  1 12  1  0  0  0
M  END
> <minimizedAffinity>
9.04260

> <CNNscore>
0.2784791291

> <CNNaffinity>
7.2681684494

> <CNN_VS>
2.0240333080

> <CNNaffinity_variance>
0.2320959568

$$$$
[H]Oc1c([H])c([H])c2c(c1[H])C([H])([H])C([H])([H])N(C([H])([H])c1c([H])c([H])c3c(c1[H])OC([H])([H])O3)C2([H])c1c([H])c([H])c(OC([H])([H])C([H])([H])N2C([H])([H])C([H])([H])C([H])([H])C2([H])[H])c([H])c1[H]


 36 41  0  0  0  0  0  0  0  0999 V2000
    7.3905   51.1940  128.1611 O   0  0  0  0  0  0  0  0  0  0  0  0
    7.6379   50.2932  129.2047 C   0  0  0  0  0  0  0  0  0  0  0  0
    7.6134   48.9341  128.9678 C   0  0  0  0  0  0  0  0  0  0  0  0
    7.8579   48.0565  130.0003 C   0  0  0  0  0  0  0  0  0  0  0  0
    8.1206   48.5492  131.2424 C   0  0  0  0  0  0  0  0  0  0  0  0
    8.3796   47.7043  132.4406 C   0  0  0  0  0  0  0  0  0  0  0  0
    9.4172   48.2404  133.1955 N   0  0  0  0  0  0  0  0  0  0  0  0
    9.0149   49.5229  133.8018 C   0  0  0  0  0  0  0  0  0  0  0  0
    8.4315   50.4821  132.8329 C   0  0  0  0  0  0  0  0  0  0  0  0
    8.1437   49.8959  131.4723 C   0  0  0  0  0  0  0  0  0  0  0  0
    7.9001   50.8184  130.4482 C   0  0  0  0  0  0  0  0  0  0  0  0
    8.1366   51.5558  127.5772 H   0  0  0  0  0  0  0  0  0  0  0  0
    8.1770   46.2803  132.2834 C   0  0  0  0  0  0  0  0  0  0  0  0
    8.3437   45.2964  133.2053 C   0  0  0  0  0  0  0  0  0  0  0  0
    8.1236   43.9448  132.9126 C   0  0  0  0  0  0  0  0  0  0  0  0
    7.7247   43.5181  131.6736 C   0  0  0  0  0  0  0  0  0  0  0  0
    7.5482   44.5175  130.7129 C   0  0  0  0  0  0  0  0  0  0  0  0
    7.7676   45.8184  131.0219 C   0  0  0  0  0  0  0  0  0  0  0  0
    7.4936   42.2341  131.3089 O   0  0  0  0  0  0  0  0  0  0  0  0
    8.0885   41.3632  130.4442 C   0  0  0  0  0  0  0  0  0  0  0  0
    9.4277   41.7782  129.9316 C   0  0  0  0  0  0  0  0  0  0  0  0
    9.3644   43.0011  129.1507 N   0  0  0  0  0  0  0  0  0  0  0  0
   10.1427   44.0697  129.6871 C   0  0  0  0  0  0  0  0  0  0  0  0
   10.7872   44.8174  128.5698 C   0  0  0  0  0  0  0  0  0  0  0  0
   10.5958   43.9550  127.3680 C   0  0  0  0  0  0  0  0  0  0  0  0
    9.7319   42.8115  127.7844 C   0  0  0  0  0  0  0  0  0  0  0  0
   10.7723   48.1295  133.0037 C   0  0  0  0  0  0  0  0  0  0  0  0
   11.4411   46.8327  132.8846 C   0  0  0  0  0  0  0  0  0  0  0  0
   11.5137   45.9882  133.9940 C   0  0  0  0  0  0  0  0  0  0  0  0
   12.1079   44.7548  133.9568 C   0  0  0  0  0  0  0  0  0  0  0  0
   12.6677   44.2982  132.7886 C   0  0  0  0  0  0  0  0  0  0  0  0
   13.3319   43.1317  132.4059 O   0  0  0  0  0  0  0  0  0  0  0  0
   13.3265   43.0756  130.9712 C   0  0  0  0  0  0  0  0  0  0  0  0
   13.2245   44.4535  130.6493 O   0  0  0  0  0  0  0  0  0  0  0  0
   12.5923   45.1426  131.6895 C   0  0  0  0  0  0  0  0  0  0  0  0
   11.9984   46.3773  131.7234 C   0  0  0  0  0  0  0  0  0  0  0  0
  1  2  1  0  0  0
  2  3  2  0  0  0
  3  4  1  0  0  0
  4  5  2  0  0  0
  5  6  1  0  0  0
  6  7  1  0  0  0
  7 27  1  0  0  0
 27 28  1  0  0  0
 28 29  2  0  0  0
 29 30  1  0  0  0
 30 31  2  0  0  0
 31 32  1  0  0  0
 32 33  1  0  0  0
 33 34  1  0  0  0
 34 35  1  0  0  0
 35 36  2  0  0  0
  7  8  1  0  0  0
  8  9  1  0  0  0
  9 10  1  0  0  0
 10 11  2  0  0  0
  6 13  1  0  0  0
 13 14  2  0  0  0
 14 15  1  0  0  0
 15 16  2  0  0  0
 16 19  1  0  0  0
 19 20  1  0  0  0
 20 21  1  0  0  0
 21 22  1  0  0  0
 22 23  1  0  0  0
 23 24  1  0  0  0
 24 25  1  0  0  0
 25 26  1  0  0  0
 16 17  1  0  0  0
 17 18  2  0  0  0
 11  2  1  0  0  0
 18 13  1  0  0  0
 10  5  1  0  0  0
 26 22  1  0  0  0
 36 28  1  0  0  0
 35 31  1  0  0  0
  1 12  1  0  0  0
M  END
> <minimizedAffinity>
3.81088

> <CNNscore>
0.2778481245

> <CNNaffinity>
7.4930663109

> <CNN_VS>
2.0819344521

> <CNNaffinity_variance>
0.2098613679

$$$$
[H]Oc1c([H])c([H])c2c(c1[H])C([H])([H])C([H])([H])N(C([H])([H])c1c([H])c([H])c3c(c1[H])OC([H])([H])O3)C2([H])c1c([H])c([H])c(OC([H])([H])C([H])([H])N2C([H])([H])C([H])([H])C([H])([H])C2([H])[H])c([H])c1[H]


 36 41  0  0  0  0  0  0  0  0999 V2000
   10.2853   45.0901  125.3555 O   0  0  0  0  0  0  0  0  0  0  0  0
   10.3175   44.7812  126.7212 C   0  0  0  0  0  0  0  0  0  0  0  0
   11.0215   45.5824  127.5967 C   0  0  0  0  0  0  0  0  0  0  0  0
   11.0472   45.2704  128.9377 C   0  0  0  0  0  0  0  0  0  0  0  0
   10.3738   44.1711  129.3767 C   0  0  0  0  0  0  0  0  0  0  0  0
   10.3430   43.7193  130.7950 C   0  0  0  0  0  0  0  0  0  0  0  0
    9.0629   43.3007  131.1417 N   0  0  0  0  0  0  0  0  0  0  0  0
    8.7006   42.0692  130.4163 C   0  0  0  0  0  0  0  0  0  0  0  0
    8.9184   42.1553  128.9519 C   0  0  0  0  0  0  0  0  0  0  0  0
    9.6780   43.3807  128.5060 C   0  0  0  0  0  0  0  0  0  0  0  0
    9.6289   43.6657  127.1365 C   0  0  0  0  0  0  0  0  0  0  0  0
    9.5698   45.6890  124.9582 H   0  0  0  0  0  0  0  0  0  0  0  0
   11.2179   44.4148  131.7140 C   0  0  0  0  0  0  0  0  0  0  0  0
   12.3287   45.1451  131.4340 C   0  0  0  0  0  0  0  0  0  0  0  0
   13.0974   45.7591  132.4305 C   0  0  0  0  0  0  0  0  0  0  0  0
   12.7838   45.6659  133.7606 C   0  0  0  0  0  0  0  0  0  0  0  0
   11.6436   44.9181  134.0666 C   0  0  0  0  0  0  0  0  0  0  0  0
   10.9167   44.3343  133.0834 C   0  0  0  0  0  0  0  0  0  0  0  0
   13.4738   46.2252  134.7834 O   0  0  0  0  0  0  0  0  0  0  0  0
   13.5112   47.4670  135.3462 C   0  0  0  0  0  0  0  0  0  0  0  0
   12.1847   48.1172  135.5607 C   0  0  0  0  0  0  0  0  0  0  0  0
   11.1455   47.5376  134.7282 N   0  0  0  0  0  0  0  0  0  0  0  0
   10.0450   47.0062  135.4645 C   0  0  0  0  0  0  0  0  0  0  0  0
    8.7774   47.3075  134.7400 C   0  0  0  0  0  0  0  0  0  0  0  0
    9.1570   48.3040  133.6972 C   0  0  0  0  0  0  0  0  0  0  0  0
   10.6418   48.4462  133.7492 C   0  0  0  0  0  0  0  0  0  0  0  0
    7.9769   44.0558  131.5103 C   0  0  0  0  0  0  0  0  0  0  0  0
    7.7865   45.4305  131.0443 C   0  0  0  0  0  0  0  0  0  0  0  0
    8.7407   46.4025  131.3513 C   0  0  0  0  0  0  0  0  0  0  0  0
    8.6410   47.7044  130.9379 C   0  0  0  0  0  0  0  0  0  0  0  0
    7.5642   48.1042  130.1848 C   0  0  0  0  0  0  0  0  0  0  0  0
    7.1570   49.3108  129.6131 O   0  0  0  0  0  0  0  0  0  0  0  0
    6.1610   49.0119  128.6231 C   0  0  0  0  0  0  0  0  0  0  0  0
    5.6454   47.7882  129.1223 O   0  0  0  0  0  0  0  0  0  0  0  0
    6.6194   47.1332  129.8831 C   0  0  0  0  0  0  0  0  0  0  0  0
    6.7161   45.8297  130.2952 C   0  0  0  0  0  0  0  0  0  0  0  0
  1  2  1  0  0  0
  2  3  2  0  0  0
  3  4  1  0  0  0
  4  5  2  0  0  0
  5  6  1  0  0  0
  6  7  1  0  0  0
  7 27  1  0  0  0
 27 28  1  0  0  0
 28 29  2  0  0  0
 29 30  1  0  0  0
 30 31  2  0  0  0
 31 32  1  0  0  0
 32 33  1  0  0  0
 33 34  1  0  0  0
 34 35  1  0  0  0
 35 36  2  0  0  0
  7  8  1  0  0  0
  8  9  1  0  0  0
  9 10  1  0  0  0
 10 11  2  0  0  0
  6 13  1  0  0  0
 13 14  2  0  0  0
 14 15  1  0  0  0
 15 16  2  0  0  0
 16 19  1  0  0  0
 19 20  1  0  0  0
 20 21  1  0  0  0
 21 22  1  0  0  0
 22 23  1  0  0  0
 23 24  1  0  0  0
 24 25  1  0  0  0
 25 26  1  0  0  0
 16 17  1  0  0  0
 17 18  2  0  0  0
 11  2  1  0  0  0
 18 13  1  0  0  0
 10  5  1  0  0  0
 26 22  1  0  0  0
 36 28  1  0  0  0
 35 31  1  0  0  0
  1 12  1  0  0  0
M  END
> <minimizedAffinity>
8.61240

> <CNNscore>
0.2718112767

> <CNNaffinity>
7.5126276016

> <CNN_VS>
2.0420169830

> <CNNaffinity_variance>
0.2383664548

$$$$
[H]c1nc([C@]2([H])c3c([H])c([H])c4c(c([H])nn4[H])c3C([H])([H])[C@@]([H])(C([H])([H])[H])N2C([H])([H])C([H])(F)F)c([H])nc1N([H])C1([H])C([H])([H])N(C([H])([H])C([H])([H])C([H])([H])F)C1([H])[H]


 35 39  0  0  0  0  0  0  0  0999 V2000
   12.2494   44.2543  132.9533 C   0  0  0  0  0  0  0  0  0  0  0  0
   10.7786   44.2709  133.2914 C   0  0  0  0  0  0  0  0  0  0  0  0
    9.9913   43.3708  132.3612 C   0  0  0  0  0  0  0  0  0  0  0  0
   10.1612   43.8812  130.9799 C   0  0  0  0  0  0  0  0  0  0  0  0
   10.4334   45.2317  130.7710 C   0  0  0  0  0  0  0  0  0  0  0  0
   10.6048   45.6482  129.4765 C   0  0  0  0  0  0  0  0  0  0  0  0
   10.5077   44.7472  128.4045 C   0  0  0  0  0  0  0  0  0  0  0  0
   10.2397   43.4353  128.6438 C   0  0  0  0  0  0  0  0  0  0  0  0
   10.0915   42.3681  127.8467 N   0  0  0  0  0  0  0  0  0  0  0  0
    9.8352   41.3004  128.5920 N   0  0  0  0  0  0  0  0  0  0  0  0
    9.8057   41.6190  129.8862 C   0  0  0  0  0  0  0  0  0  0  0  0
   10.0634   42.9880  129.9392 C   0  0  0  0  0  0  0  0  0  0  0  0
   10.5426   46.1928  131.8839 C   0  0  0  0  0  0  0  0  0  0  0  0
   10.3069   45.6159  133.1707 N   0  0  0  0  0  0  0  0  0  0  0  0
   10.1592   42.3403  126.8064 H   0  0  0  0  0  0  0  0  0  0  0  0
    9.8267   47.4143  131.5659 C   0  0  0  0  0  0  0  0  0  0  0  0
   10.4781   48.6263  131.5493 C   0  0  0  0  0  0  0  0  0  0  0  0
    9.8348   49.7878  131.2764 N   0  0  0  0  0  0  0  0  0  0  0  0
    8.5066   49.7520  131.0113 C   0  0  0  0  0  0  0  0  0  0  0  0
    7.8556   48.5515  131.0266 C   0  0  0  0  0  0  0  0  0  0  0  0
    8.5170   47.4160  131.3001 N   0  0  0  0  0  0  0  0  0  0  0  0
    7.8719   50.9842  130.7297 N   0  0  0  0  0  0  0  0  0  0  0  0
    8.0305   51.7615  131.3988 H   0  0  0  0  0  0  0  0  0  0  0  0
    7.0444   51.1777  129.5842 C   0  0  0  0  0  0  0  0  0  0  0  0
    5.5692   51.2599  129.9336 C   0  0  0  0  0  0  0  0  0  0  0  0
    5.3623   49.9426  129.4451 N   0  0  0  0  0  0  0  0  0  0  0  0
    6.6895   49.9271  128.8129 C   0  0  0  0  0  0  0  0  0  0  0  0
    4.3232   49.7752  128.4791 C   0  0  0  0  0  0  0  0  0  0  0  0
    3.1972   50.7315  128.5069 C   0  0  0  0  0  0  0  0  0  0  0  0
    2.5539   51.0484  127.1969 C   0  0  0  0  0  0  0  0  0  0  0  0
    1.8018   52.2384  127.2925 F   0  0  0  0  0  0  0  0  0  0  0  0
    9.0987   45.8950  133.8355 C   0  0  0  0  0  0  0  0  0  0  0  0
    9.3712   46.7881  135.0265 C   0  0  0  0  0  0  0  0  0  0  0  0
   10.3973   47.6885  134.7466 F   0  0  0  0  0  0  0  0  0  0  0  0
    9.6957   46.0058  136.1430 F   0  0  0  0  0  0  0  0  0  0  0  0
  1  2  1  0  0  0
  2  3  1  0  0  0
  3  4  1  0  0  0
  4  5  2  0  0  0
  5  6  1  0  0  0
  6  7  2  0  0  0
  7  8  1  0  0  0
  8  9  1  0  0  0
  9 10  1  0  0  0
 10 11  2  0  0  0
 11 12  1  0  0  0
  5 13  1  0  0  0
 13 14  1  0  0  0
 14 32  1  0  0  0
 32 33  1  0  0  0
 33 34  1  0  0  0
 33 35  1  0  0  0
 13 16  1  0  0  0
 16 17  2  0  0  0
 17 18  1  0  0  0
 18 19  2  0  0  0
 19 22  1  0  0  0
 22 24  1  0  0  0
 24 25  1  0  0  0
 25 26  1  0  0  0
 26 28  1  0  0  0
 28 29  1  0  0  0
 29 30  1  0  0  0
 30 31  1  0  0  0
 26 27  1  0  0  0
 19 20  1  0  0  0
 20 21  2  0  0  0
 14  2  1  0  0  0
 21 16  1  0  0  0
 12  4  1  0  0  0
 27 24  1  0  0  0
 12  8  2  0  0  0
  9 15  1  0  0  0
 22 23  1  0  0  0
M  END
> <minimizedAffinity>
5.30210

> <CNNscore>
0.4244296551

> <CNNaffinity>
8.0885829926

> <CNN_VS>
3.4330344200

> <CNNaffinity_variance>
0.4744063318

$$$$
[H]c1nc([C@]2([H])c3c([H])c([H])c4c(c([H])nn4[H])c3C([H])([H])[C@@]([H])(C([H])([H])[H])N2C([H])([H])C([H])(F)F)c([H])nc1N([H])C1([H])C([H])([H])N(C([H])([H])C([H])([H])C([H])([H])F)C1([H])[H]


 35 39  0  0  0  0  0  0  0  0999 V2000
    9.5001   47.1066  126.9639 C   0  0  0  0  0  0  0  0  0  0  0  0
    8.4254   46.3078  127.6603 C   0  0  0  0  0  0  0  0  0  0  0  0
    7.4226   47.2152  128.3432 C   0  0  0  0  0  0  0  0  0  0  0  0
    8.1477   48.0135  129.3603 C   0  0  0  0  0  0  0  0  0  0  0  0
    9.3125   47.5077  129.9337 C   0  0  0  0  0  0  0  0  0  0  0  0
    9.9576   48.2950  130.8516 C   0  0  0  0  0  0  0  0  0  0  0  0
    9.4607   49.5608  131.1998 C   0  0  0  0  0  0  0  0  0  0  0  0
    8.3201   50.0239  130.6214 C   0  0  0  0  0  0  0  0  0  0  0  0
    7.6220   51.1609  130.7490 N   0  0  0  0  0  0  0  0  0  0  0  0
    6.5664   51.1159  129.9460 N   0  0  0  0  0  0  0  0  0  0  0  0
    6.5303   49.9669  129.2708 C   0  0  0  0  0  0  0  0  0  0  0  0
    7.6500   49.2515  129.6922 C   0  0  0  0  0  0  0  0  0  0  0  0
    9.8520   46.1822  129.5786 C   0  0  0  0  0  0  0  0  0  0  0  0
    9.0523   45.4673  128.6333 N   0  0  0  0  0  0  0  0  0  0  0  0
    7.8401   51.9720  131.3670 H   0  0  0  0  0  0  0  0  0  0  0  0
   10.2591   45.4678  130.7742 C   0  0  0  0  0  0  0  0  0  0  0  0
   11.5213   44.9291  130.8752 C   0  0  0  0  0  0  0  0  0  0  0  0
   11.9261   44.2387  131.9692 N   0  0  0  0  0  0  0  0  0  0  0  0
   11.0577   44.0751  132.9963 C   0  0  0  0  0  0  0  0  0  0  0  0
    9.8039   44.6080  132.9009 C   0  0  0  0  0  0  0  0  0  0  0  0
    9.4288   45.2872  131.8056 N   0  0  0  0  0  0  0  0  0  0  0  0
   11.5180   43.3506  134.1205 N   0  0  0  0  0  0  0  0  0  0  0  0
   11.2182   42.3603  134.1999 H   0  0  0  0  0  0  0  0  0  0  0  0
   12.3578   43.9308  135.1168 C   0  0  0  0  0  0  0  0  0  0  0  0
   12.0224   45.3858  135.3916 C   0  0  0  0  0  0  0  0  0  0  0  0
   13.1657   45.8053  134.6613 N   0  0  0  0  0  0  0  0  0  0  0  0
   13.6978   44.4352  134.6323 C   0  0  0  0  0  0  0  0  0  0  0  0
   14.0593   46.6971  135.3301 C   0  0  0  0  0  0  0  0  0  0  0  0
   13.5341   48.0143  135.7456 C   0  0  0  0  0  0  0  0  0  0  0  0
   14.3075   48.7443  136.7939 C   0  0  0  0  0  0  0  0  0  0  0  0
   15.3155   47.9148  137.3296 F   0  0  0  0  0  0  0  0  0  0  0  0
    8.2828   44.3749  129.0743 C   0  0  0  0  0  0  0  0  0  0  0  0
    9.0392   43.0887  128.8221 C   0  0  0  0  0  0  0  0  0  0  0  0
    9.4405   42.5057  130.0226 F   0  0  0  0  0  0  0  0  0  0  0  0
   10.1490   43.3422  128.0047 F   0  0  0  0  0  0  0  0  0  0  0  0
  1  2  1  0  0  0
  2  3  1  0  0  0
  3  4  1  0  0  0
  4  5  2  0  0  0
  5  6  1  0  0  0
  6  7  2  0  0  0
  7  8  1  0  0  0
  8  9  1  0  0  0
  9 10  1  0  0  0
 10 11  2  0  0  0
 11 12  1  0  0  0
  5 13  1  0  0  0
 13 14  1  0  0  0
 14 32  1  0  0  0
 32 33  1  0  0  0
 33 34  1  0  0  0
 33 35  1  0  0  0
 13 16  1  0  0  0
 16 17  2  0  0  0
 17 18  1  0  0  0
 18 19  2  0  0  0
 19 22  1  0  0  0
 22 24  1  0  0  0
 24 25  1  0  0  0
 25 26  1  0  0  0
 26 28  1  0  0  0
 28 29  1  0  0  0
 29 30  1  0  0  0
 30 31  1  0  0  0
 26 27  1  0  0  0
 19 20  1  0  0  0
 20 21  2  0  0  0
 14  2  1  0  0  0
 21 16  1  0  0  0
 12  4  1  0  0  0
 27 24  1  0  0  0
 12  8  2  0  0  0
  9 15  1  0  0  0
 22 23  1  0  0  0
M  END
> <minimizedAffinity>
10.63645

> <CNNscore>
0.3925497830

> <CNNaffinity>
7.8843026161

> <CNN_VS>
3.0949811935

> <CNNaffinity_variance>
0.8501016498

$$$$
[H]c1nc([C@]2([H])c3c([H])c([H])c4c(c([H])nn4[H])c3C([H])([H])[C@@]([H])(C([H])([H])[H])N2C([H])([H])C([H])(F)F)c([H])nc1N([H])C1([H])C([H])([H])N(C([H])([H])C([H])([H])C([H])([H])F)C1([H])[H]


 35 39  0  0  0  0  0  0  0  0999 V2000
    8.7154   44.9866  136.1222 C   0  0  0  0  0  0  0  0  0  0  0  0
    7.7835   45.4353  135.0230 C   0  0  0  0  0  0  0  0  0  0  0  0
    6.7331   44.3836  134.7304 C   0  0  0  0  0  0  0  0  0  0  0  0
    7.4301   43.1544  134.2823 C   0  0  0  0  0  0  0  0  0  0  0  0
    8.6787   43.2519  133.6718 C   0  0  0  0  0  0  0  0  0  0  0  0
    9.2911   42.0843  133.2972 C   0  0  0  0  0  0  0  0  0  0  0  0
    8.6809   40.8400  133.5200 C   0  0  0  0  0  0  0  0  0  0  0  0
    7.4607   40.7808  134.1179 C   0  0  0  0  0  0  0  0  0  0  0  0
    6.6508   39.7670  134.4536 N   0  0  0  0  0  0  0  0  0  0  0  0
    5.5565   40.2547  135.0244 N   0  0  0  0  0  0  0  0  0  0  0  0
    5.6039   41.5857  135.0851 C   0  0  0  0  0  0  0  0  0  0  0  0
    6.8211   41.9422  134.5066 C   0  0  0  0  0  0  0  0  0  0  0  0
    9.3374   44.5492  133.4321 C   0  0  0  0  0  0  0  0  0  0  0  0
    8.5618   45.6763  133.8473 N   0  0  0  0  0  0  0  0  0  0  0  0
    6.8176   38.7480  134.3073 H   0  0  0  0  0  0  0  0  0  0  0  0
    9.8983   44.5893  132.0944 C   0  0  0  0  0  0  0  0  0  0  0  0
   11.0047   45.3599  131.8194 C   0  0  0  0  0  0  0  0  0  0  0  0
   11.5409   45.4355  130.5768 N   0  0  0  0  0  0  0  0  0  0  0  0
   10.9670   44.7280  129.5738 C   0  0  0  0  0  0  0  0  0  0  0  0
    9.8688   43.9617  129.8418 C   0  0  0  0  0  0  0  0  0  0  0  0
    9.3579   43.9049  131.0818 N   0  0  0  0  0  0  0  0  0  0  0  0
   11.5567   44.8317  128.2924 N   0  0  0  0  0  0  0  0  0  0  0  0
   12.3257   44.1711  128.0708 H   0  0  0  0  0  0  0  0  0  0  0  0
   11.1331   45.7932  127.3277 C   0  0  0  0  0  0  0  0  0  0  0  0
   10.8450   47.1517  127.9412 C   0  0  0  0  0  0  0  0  0  0  0  0
    9.4476   46.9233  127.8339 N   0  0  0  0  0  0  0  0  0  0  0  0
    9.6658   45.7568  126.9662 C   0  0  0  0  0  0  0  0  0  0  0  0
    8.6845   47.9316  127.1689 C   0  0  0  0  0  0  0  0  0  0  0  0
    7.7915   48.7735  127.9918 C   0  0  0  0  0  0  0  0  0  0  0  0
    6.4099   48.2567  128.2253 C   0  0  0  0  0  0  0  0  0  0  0  0
    6.3880   46.8490  128.1312 F   0  0  0  0  0  0  0  0  0  0  0  0
    7.9485   46.4827  132.8709 C   0  0  0  0  0  0  0  0  0  0  0  0
    8.4062   47.9155  133.0379 C   0  0  0  0  0  0  0  0  0  0  0  0
    8.9955   48.3876  131.8666 F   0  0  0  0  0  0  0  0  0  0  0  0
    9.3042   48.0059  134.1099 F   0  0  0  0  0  0  0  0  0  0  0  0
  1  2  1  0  0  0
  2  3  1  0  0  0
  3  4  1  0  0  0
  4  5  2  0  0  0
  5  6  1  0  0  0
  6  7  2  0  0  0
  7  8  1  0  0  0
  8  9  1  0  0  0
  9 10  1  0  0  0
 10 11  2  0  0  0
 11 12  1  0  0  0
  5 13  1  0  0  0
 13 14  1  0  0  0
 14 32  1  0  0  0
 32 33  1  0  0  0
 33 34  1  0  0  0
 33 35  1  0  0  0
 13 16  1  0  0  0
 16 17  2  0  0  0
 17 18  1  0  0  0
 18 19  2  0  0  0
 19 22  1  0  0  0
 22 24  1  0  0  0
 24 25  1  0  0  0
 25 26  1  0  0  0
 26 28  1  0  0  0
 28 29  1  0  0  0
 29 30  1  0  0  0
 30 31  1  0  0  0
 26 27  1  0  0  0
 19 20  1  0  0  0
 20 21  2  0  0  0
 14  2  1  0  0  0
 21 16  1  0  0  0
 12  4  1  0  0  0
 27 24  1  0  0  0
 12  8  2  0  0  0
  9 15  1  0  0  0
 22 23  1  0  0  0
M  END
> <minimizedAffinity>
33.25562

> <CNNscore>
0.3873814344

> <CNNaffinity>
7.5631003380

> <CNN_VS>
2.9298045635

> <CNNaffinity_variance>
1.0770112276

$$$$
[H]c1nc([C@]2([H])c3c([H])c([H])c4c(c([H])nn4[H])c3C([H])([H])[C@@]([H])(C([H])([H])[H])N2C([H])([H])C([H])(F)F)c([H])nc1N([H])C1([H])C([H])([H])N(C([H])([H])C([H])([H])C([H])([H])F)C1([H])[H]


 35 39  0  0  0  0  0  0  0  0999 V2000
    8.1754   49.8746  134.2352 C   0  0  0  0  0  0  0  0  0  0  0  0
    9.5063   49.6167  133.5717 C   0  0  0  0  0  0  0  0  0  0  0  0
    9.4698   49.9912  132.1042 C   0  0  0  0  0  0  0  0  0  0  0  0
    8.4447   49.1488  131.4433 C   0  0  0  0  0  0  0  0  0  0  0  0
    8.1302   47.8995  131.9741 C   0  0  0  0  0  0  0  0  0  0  0  0
    7.1590   47.1701  131.3390 C   0  0  0  0  0  0  0  0  0  0  0  0
    6.5093   47.6643  130.1971 C   0  0  0  0  0  0  0  0  0  0  0  0
    6.8414   48.8879  129.7045 C   0  0  0  0  0  0  0  0  0  0  0  0
    6.4073   49.6056  128.6591 N   0  0  0  0  0  0  0  0  0  0  0  0
    7.0681   50.7557  128.6163 N   0  0  0  0  0  0  0  0  0  0  0  0
    7.9473   50.8372  129.6152 C   0  0  0  0  0  0  0  0  0  0  0  0
    7.8161   49.6450  130.3256 C   0  0  0  0  0  0  0  0  0  0  0  0
    8.7990   47.3644  133.1744 C   0  0  0  0  0  0  0  0  0  0  0  0
    9.8101   48.2252  133.7044 N   0  0  0  0  0  0  0  0  0  0  0  0
    5.6722   49.3389  127.9692 H   0  0  0  0  0  0  0  0  0  0  0  0
    9.1547   45.9720  132.9737 C   0  0  0  0  0  0  0  0  0  0  0  0
   10.0476   45.6096  131.9915 C   0  0  0  0  0  0  0  0  0  0  0  0
   10.3856   44.3167  131.7645 N   0  0  0  0  0  0  0  0  0  0  0  0
    9.8247   43.3509  132.5316 C   0  0  0  0  0  0  0  0  0  0  0  0
    8.9379   43.7055  133.5078 C   0  0  0  0  0  0  0  0  0  0  0  0
    8.6207   44.9939  133.7112 N   0  0  0  0  0  0  0  0  0  0  0  0
   10.2040   42.0146  132.2651 N   0  0  0  0  0  0  0  0  0  0  0  0
   10.3472   41.3917  133.0827 H   0  0  0  0  0  0  0  0  0  0  0  0
   10.3893   41.5184  130.9407 C   0  0  0  0  0  0  0  0  0  0  0  0
   11.1660   42.4789  130.0580 C   0  0  0  0  0  0  0  0  0  0  0  0
    9.9718   42.8579  129.3896 N   0  0  0  0  0  0  0  0  0  0  0  0
    9.2340   41.7374  129.9908 C   0  0  0  0  0  0  0  0  0  0  0  0
    9.9819   42.7695  127.9638 C   0  0  0  0  0  0  0  0  0  0  0  0
   10.3592   43.9781  127.2020 C   0  0  0  0  0  0  0  0  0  0  0  0
   10.5580   45.2318  127.9888 C   0  0  0  0  0  0  0  0  0  0  0  0
   11.8511   45.2597  128.5527 F   0  0  0  0  0  0  0  0  0  0  0  0
   11.1632   47.8822  133.5275 C   0  0  0  0  0  0  0  0  0  0  0  0
   11.6156   47.0014  134.6720 C   0  0  0  0  0  0  0  0  0  0  0  0
   12.2133   45.8364  134.1950 F   0  0  0  0  0  0  0  0  0  0  0  0
   10.5235   46.6915  135.4938 F   0  0  0  0  0  0  0  0  0  0  0  0
  1  2  1  0  0  0
  2  3  1  0  0  0
  3  4  1  0  0  0
  4  5  2  0  0  0
  5  6  1  0  0  0
  6  7  2  0  0  0
  7  8  1  0  0  0
  8  9  1  0  0  0
  9 10  1  0  0  0
 10 11  2  0  0  0
 11 12  1  0  0  0
  5 13  1  0  0  0
 13 14  1  0  0  0
 14 32  1  0  0  0
 32 33  1  0  0  0
 33 34  1  0  0  0
 33 35  1  0  0  0
 13 16  1  0  0  0
 16 17  2  0  0  0
 17 18  1  0  0  0
 18 19  2  0  0  0
 19 22  1  0  0  0
 22 24  1  0  0  0
 24 25  1  0  0  0
 25 26  1  0  0  0
 26 28  1  0  0  0
 28 29  1  0  0  0
 29 30  1  0  0  0
 30 31  1  0  0  0
 26 27  1  0  0  0
 19 20  1  0  0  0
 20 21  2  0  0  0
 14  2  1  0  0  0
 21 16  1  0  0  0
 12  4  1  0  0  0
 27 24  1  0  0  0
 12  8  2  0  0  0
  9 15  1  0  0  0
 22 23  1  0  0  0
M  END
> <minimizedAffinity>
4.91622

> <CNNscore>
0.3637826443

> <CNNaffinity>
7.8990044594

> <CNN_VS>
2.8735206127

> <CNNaffinity_variance>
0.3346450031

$$$$
[H]c1nc([C@]2([H])c3c([H])c([H])c4c(c([H])nn4[H])c3C([H])([H])[C@@]([H])(C([H])([H])[H])N2C([H])([H])C([H])(F)F)c([H])nc1N([H])C1([H])C([H])([H])N(C([H])([H])C([H])([H])C([H])([H])F)C1([H])[H]


 35 39  0  0  0  0  0  0  0  0999 V2000
    9.8662   45.0705  136.3253 C   0  0  0  0  0  0  0  0  0  0  0  0
    9.0072   45.8724  135.3782 C   0  0  0  0  0  0  0  0  0  0  0  0
    7.6901   45.1745  135.1071 C   0  0  0  0  0  0  0  0  0  0  0  0
    7.9879   43.8660  134.4772 C   0  0  0  0  0  0  0  0  0  0  0  0
    9.1630   43.7025  133.7467 C   0  0  0  0  0  0  0  0  0  0  0  0
    9.4024   42.4667  133.2044 C   0  0  0  0  0  0  0  0  0  0  0  0
    8.4961   41.4090  133.3785 C   0  0  0  0  0  0  0  0  0  0  0  0
    7.3576   41.6032  134.0970 C   0  0  0  0  0  0  0  0  0  0  0  0
    6.3317   40.8057  134.4253 N   0  0  0  0  0  0  0  0  0  0  0  0
    5.4608   41.4939  135.1526 N   0  0  0  0  0  0  0  0  0  0  0  0
    5.8736   42.7495  135.3277 C   0  0  0  0  0  0  0  0  0  0  0  0
    7.0917   42.8386  134.6557 C   0  0  0  0  0  0  0  0  0  0  0  0
   10.1288   44.8001  133.5553 C   0  0  0  0  0  0  0  0  0  0  0  0
    9.7252   46.0353  134.1519 N   0  0  0  0  0  0  0  0  0  0  0  0
    6.2024   39.8027  134.1706 H   0  0  0  0  0  0  0  0  0  0  0  0
   10.5709   44.8465  132.1740 C   0  0  0  0  0  0  0  0  0  0  0  0
   11.7633   45.4452  131.8377 C   0  0  0  0  0  0  0  0  0  0  0  0
   12.1953   45.5235  130.5553 N   0  0  0  0  0  0  0  0  0  0  0  0
   11.4261   44.9938  129.5737 C   0  0  0  0  0  0  0  0  0  0  0  0
   10.2417   44.3984  129.9024 C   0  0  0  0  0  0  0  0  0  0  0  0
    9.8376   44.3348  131.1808 N   0  0  0  0  0  0  0  0  0  0  0  0
   11.9119   45.0940  128.2491 N   0  0  0  0  0  0  0  0  0  0  0  0
   12.7754   44.5656  128.0210 H   0  0  0  0  0  0  0  0  0  0  0  0
   11.2638   45.8800  127.2508 C   0  0  0  0  0  0  0  0  0  0  0  0
   10.9001   47.2694  127.7430 C   0  0  0  0  0  0  0  0  0  0  0  0
    9.5358   46.8917  127.8547 N   0  0  0  0  0  0  0  0  0  0  0  0
    9.7769   45.6530  127.1005 C   0  0  0  0  0  0  0  0  0  0  0  0
    8.5851   47.7278  127.1928 C   0  0  0  0  0  0  0  0  0  0  0  0
    7.4640   48.2624  127.9931 C   0  0  0  0  0  0  0  0  0  0  0  0
    7.8237   49.0250  129.2257 C   0  0  0  0  0  0  0  0  0  0  0  0
    6.6649   49.3353  129.9688 F   0  0  0  0  0  0  0  0  0  0  0  0
    9.2789   47.0820  133.3242 C   0  0  0  0  0  0  0  0  0  0  0  0
   10.3844   48.1020  133.1580 C   0  0  0  0  0  0  0  0  0  0  0  0
   10.1328   49.2360  133.9278 F   0  0  0  0  0  0  0  0  0  0  0  0
   10.5146   48.4460  131.8057 F   0  0  0  0  0  0  0  0  0  0  0  0
  1  2  1  0  0  0
  2  3  1  0  0  0
  3  4  1  0  0  0
  4  5  2  0  0  0
  5  6  1  0  0  0
  6  7  2  0  0  0
  7  8  1  0  0  0
  8  9  1  0  0  0
  9 10  1  0  0  0
 10 11  2  0  0  0
 11 12  1  0  0  0
  5 13  1  0  0  0
 13 14  1  0  0  0
 14 32  1  0  0  0
 32 33  1  0  0  0
 33 34  1  0  0  0
 33 35  1  0  0  0
 13 16  1  0  0  0
 16 17  2  0  0  0
 17 18  1  0  0  0
 18 19  2  0  0  0
 19 22  1  0  0  0
 22 24  1  0  0  0
 24 25  1  0  0  0
 25 26  1  0  0  0
 26 28  1  0  0  0
 28 29  1  0  0  0
 29 30  1  0  0  0
 30 31  1  0  0  0
 26 27  1  0  0  0
 19 20  1  0  0  0
 20 21  2  0  0  0
 14  2  1  0  0  0
 21 16  1  0  0  0
 12  4  1  0  0  0
 27 24  1  0  0  0
 12  8  2  0  0  0
  9 15  1  0  0  0
 22 23  1  0  0  0
M  END
> <minimizedAffinity>
25.92897

> <CNNscore>
0.3633513153

> <CNNaffinity>
7.6332931519

> <CNN_VS>
2.7735671997

> <CNNaffinity_variance>
0.7075355649

$$$$
[H]c1nc([C@]2([H])c3c([H])c([H])c4c(c([H])nn4[H])c3C([H])([H])[C@@]([H])(C([H])([H])[H])N2C([H])([H])C([H])(F)F)c([H])nc1N([H])C1([H])C([H])([H])N(C([H])([H])C([H])([H])C([H])([H])F)C1([H])[H]


 35 39  0  0  0  0  0  0  0  0999 V2000
    9.0603   47.0148  126.7371 C   0  0  0  0  0  0  0  0  0  0  0  0
    8.2308   46.1590  127.6631 C   0  0  0  0  0  0  0  0  0  0  0  0
    7.3839   47.0109  128.5864 C   0  0  0  0  0  0  0  0  0  0  0  0
    8.2972   47.8415  129.4070 C   0  0  0  0  0  0  0  0  0  0  0  0
    9.5907   47.3942  129.6680 C   0  0  0  0  0  0  0  0  0  0  0  0
   10.4027   48.2102  130.4120 C   0  0  0  0  0  0  0  0  0  0  0  0
    9.9456   49.4473  130.8924 C   0  0  0  0  0  0  0  0  0  0  0  0
    8.6763   49.8532  130.6200 C   0  0  0  0  0  0  0  0  0  0  0  0
    7.9764   50.9523  130.9339 N   0  0  0  0  0  0  0  0  0  0  0  0
    6.7590   50.8561  130.4144 N   0  0  0  0  0  0  0  0  0  0  0  0
    6.6140   49.7094  129.7500 C   0  0  0  0  0  0  0  0  0  0  0  0
    7.8366   49.0509  129.8714 C   0  0  0  0  0  0  0  0  0  0  0  0
   10.0904   46.0996  129.1695 C   0  0  0  0  0  0  0  0  0  0  0  0
    9.1184   45.3481  128.4381 N   0  0  0  0  0  0  0  0  0  0  0  0
    8.3000   51.7712  131.4926 H   0  0  0  0  0  0  0  0  0  0  0  0
   10.8140   45.4025  130.2164 C   0  0  0  0  0  0  0  0  0  0  0  0
   10.2338   45.1824  131.4446 C   0  0  0  0  0  0  0  0  0  0  0  0
   10.8894   44.5529  132.4502 N   0  0  0  0  0  0  0  0  0  0  0  0
   12.1578   44.1270  132.2368 C   0  0  0  0  0  0  0  0  0  0  0  0
   12.7380   44.3431  131.0195 C   0  0  0  0  0  0  0  0  0  0  0  0
   12.0660   44.9694  130.0408 N   0  0  0  0  0  0  0  0  0  0  0  0
   12.8075   43.4733  133.3098 N   0  0  0  0  0  0  0  0  0  0  0  0
   13.4726   42.7143  133.0679 H   0  0  0  0  0  0  0  0  0  0  0  0
   12.5768   43.8211  134.6737 C   0  0  0  0  0  0  0  0  0  0  0  0
   11.1526   43.5393  135.1179 C   0  0  0  0  0  0  0  0  0  0  0  0
   10.8425   44.9239  135.0612 N   0  0  0  0  0  0  0  0  0  0  0  0
   12.2641   45.2766  134.9353 C   0  0  0  0  0  0  0  0  0  0  0  0
   10.2654   45.4979  136.2353 C   0  0  0  0  0  0  0  0  0  0  0  0
    9.2655   46.5711  136.0565 C   0  0  0  0  0  0  0  0  0  0  0  0
    8.7322   46.7675  134.6754 C   0  0  0  0  0  0  0  0  0  0  0  0
    9.5617   47.6468  133.9475 F   0  0  0  0  0  0  0  0  0  0  0  0
    8.5358   44.2159  129.0368 C   0  0  0  0  0  0  0  0  0  0  0  0
    9.3085   42.9778  128.6362 C   0  0  0  0  0  0  0  0  0  0  0  0
    9.8600   42.3542  129.7538 F   0  0  0  0  0  0  0  0  0  0  0  0
   10.3121   43.3196  127.7198 F   0  0  0  0  0  0  0  0  0  0  0  0
  1  2  1  0  0  0
  2  3  1  0  0  0
  3  4  1  0  0  0
  4  5  2  0  0  0
  5  6  1  0  0  0
  6  7  2  0  0  0
  7  8  1  0  0  0
  8  9  1  0  0  0
  9 10  1  0  0  0
 10 11  2  0  0  0
 11 12  1  0  0  0
  5 13  1  0  0  0
 13 14  1  0  0  0
 14 32  1  0  0  0
 32 33  1  0  0  0
 33 34  1  0  0  0
 33 35  1  0  0  0
 13 16  1  0  0  0
 16 17  2  0  0  0
 17 18  1  0  0  0
 18 19  2  0  0  0
 19 22  1  0  0  0
 22 24  1  0  0  0
 24 25  1  0  0  0
 25 26  1  0  0  0
 26 28  1  0  0  0
 28 29  1  0  0  0
 29 30  1  0  0  0
 30 31  1  0  0  0
 26 27  1  0  0  0
 19 20  1  0  0  0
 20 21  2  0  0  0
 14  2  1  0  0  0
 21 16  1  0  0  0
 12  4  1  0  0  0
 27 24  1  0  0  0
 12  8  2  0  0  0
  9 15  1  0  0  0
 22 23  1  0  0  0
M  END
> <minimizedAffinity>
3.51918

> <CNNscore>
0.3489596546

> <CNNaffinity>
7.9336462021

> <CNN_VS>
2.7685225010

> <CNNaffinity_variance>
0.3334440589

$$$$
[H]c1nc([C@]2([H])c3c([H])c([H])c4c(c([H])nn4[H])c3C([H])([H])[C@@]([H])(C([H])([H])[H])N2C([H])([H])C([H])(F)F)c([H])nc1N([H])C1([H])C([H])([H])N(C([H])([H])C([H])([H])C([H])([H])F)C1([H])[H]


 35 39  0  0  0  0  0  0  0  0999 V2000
    9.7557   42.2126  131.3139 C   0  0  0  0  0  0  0  0  0  0  0  0
   11.0233   42.9913  131.0596 C   0  0  0  0  0  0  0  0  0  0  0  0
   11.7942   43.2198  132.3436 C   0  0  0  0  0  0  0  0  0  0  0  0
   10.9344   44.0083  133.2583 C   0  0  0  0  0  0  0  0  0  0  0  0
    9.9572   44.8511  132.7328 C   0  0  0  0  0  0  0  0  0  0  0  0
    9.1735   45.5401  133.6214 C   0  0  0  0  0  0  0  0  0  0  0  0
    9.3518   45.4012  135.0068 C   0  0  0  0  0  0  0  0  0  0  0  0
   10.3160   44.5703  135.4862 C   0  0  0  0  0  0  0  0  0  0  0  0
   10.7121   44.2408  136.7235 N   0  0  0  0  0  0  0  0  0  0  0  0
   11.7120   43.3718  136.6434 N   0  0  0  0  0  0  0  0  0  0  0  0
   12.0068   43.1011  135.3718 C   0  0  0  0  0  0  0  0  0  0  0  0
   11.1196   43.8628  134.6129 C   0  0  0  0  0  0  0  0  0  0  0  0
    9.7524   45.0079  131.2810 C   0  0  0  0  0  0  0  0  0  0  0  0
   10.6665   44.2511  130.4835 N   0  0  0  0  0  0  0  0  0  0  0  0
   10.3233   44.5882  137.6266 H   0  0  0  0  0  0  0  0  0  0  0  0
    9.5857   46.4096  130.9447 C   0  0  0  0  0  0  0  0  0  0  0  0
    8.8192   46.7870  129.8661 C   0  0  0  0  0  0  0  0  0  0  0  0
    8.6598   48.0859  129.5129 N   0  0  0  0  0  0  0  0  0  0  0  0
    9.2763   49.0428  130.2478 C   0  0  0  0  0  0  0  0  0  0  0  0
   10.0381   48.6733  131.3194 C   0  0  0  0  0  0  0  0  0  0  0  0
   10.1793   47.3793  131.6471 N   0  0  0  0  0  0  0  0  0  0  0  0
    9.0843   50.3860  129.8485 N   0  0  0  0  0  0  0  0  0  0  0  0
    9.9349   50.9473  129.6526 H   0  0  0  0  0  0  0  0  0  0  0  0
    7.7897   50.9695  129.7136 C   0  0  0  0  0  0  0  0  0  0  0  0
    6.7737   50.3695  130.6689 C   0  0  0  0  0  0  0  0  0  0  0  0
    6.1847   49.6328  129.6073 N   0  0  0  0  0  0  0  0  0  0  0  0
    6.9297   50.4079  128.6046 C   0  0  0  0  0  0  0  0  0  0  0  0
    4.7739   49.7776  129.4347 C   0  0  0  0  0  0  0  0  0  0  0  0
    3.9462   48.5544  129.4773 C   0  0  0  0  0  0  0  0  0  0  0  0
    4.6757   47.2517  129.5070 C   0  0  0  0  0  0  0  0  0  0  0  0
    5.5925   47.1760  128.4370 F   0  0  0  0  0  0  0  0  0  0  0  0
   11.7019   44.9213  129.8063 C   0  0  0  0  0  0  0  0  0  0  0  0
   11.4848   44.8094  128.3128 C   0  0  0  0  0  0  0  0  0  0  0  0
   10.9465   45.9882  127.8002 F   0  0  0  0  0  0  0  0  0  0  0  0
   10.6431   43.7240  128.0346 F   0  0  0  0  0  0  0  0  0  0  0  0
  1  2  1  0  0  0
  2  3  1  0  0  0
  3  4  1  0  0  0
  4  5  2  0  0  0
  5  6  1  0  0  0
  6  7  2  0  0  0
  7  8  1  0  0  0
  8  9  1  0  0  0
  9 10  1  0  0  0
 10 11  2  0  0  0
 11 12  1  0  0  0
  5 13  1  0  0  0
 13 14  1  0  0  0
 14 32  1  0  0  0
 32 33  1  0  0  0
 33 34  1  0  0  0
 33 35  1  0  0  0
 13 16  1  0  0  0
 16 17  2  0  0  0
 17 18  1  0  0  0
 18 19  2  0  0  0
 19 22  1  0  0  0
 22 24  1  0  0  0
 24 25  1  0  0  0
 25 26  1  0  0  0
 26 28  1  0  0  0
 28 29  1  0  0  0
 29 30  1  0  0  0
 30 31  1  0  0  0
 26 27  1  0  0  0
 19 20  1  0  0  0
 20 21  2  0  0  0
 14  2  1  0  0  0
 21 16  1  0  0  0
 12  4  1  0  0  0
 27 24  1  0  0  0
 12  8  2  0  0  0
  9 15  1  0  0  0
 22 23  1  0  0  0
M  END
> <minimizedAffinity>
2.39830

> <CNNscore>
0.3461131155

> <CNNaffinity>
7.9896035194

> <CNN_VS>
2.7653064728

> <CNNaffinity_variance>
0.2553896010

$$$$
[H]c1nc([C@]2([H])c3c([H])c([H])c4c(c([H])nn4[H])c3C([H])([H])[C@@]([H])(C([H])([H])[H])N2C([H])([H])C([H])(F)F)c([H])nc1N([H])C1([H])C([H])([H])N(C([H])([H])C([H])([H])C([H])([H])F)C1([H])[H]


 35 39  0  0  0  0  0  0  0  0999 V2000
    8.3637   48.0950  134.1958 C   0  0  0  0  0  0  0  0  0  0  0  0
    9.6555   48.0976  133.4152 C   0  0  0  0  0  0  0  0  0  0  0  0
    9.5384   48.9422  132.1629 C   0  0  0  0  0  0  0  0  0  0  0  0
    8.4769   48.3528  131.3123 C   0  0  0  0  0  0  0  0  0  0  0  0
    8.1904   46.9927  131.4083 C   0  0  0  0  0  0  0  0  0  0  0  0
    7.1845   46.5021  130.6171 C   0  0  0  0  0  0  0  0  0  0  0  0
    6.4733   47.3396  129.7435 C   0  0  0  0  0  0  0  0  0  0  0  0
    6.7795   48.6630  129.6739 C   0  0  0  0  0  0  0  0  0  0  0  0
    6.2893   49.6823  128.9548 N   0  0  0  0  0  0  0  0  0  0  0  0
    6.9484   50.7913  129.2662 N   0  0  0  0  0  0  0  0  0  0  0  0
    7.8816   50.5480  130.1866 C   0  0  0  0  0  0  0  0  0  0  0  0
    7.7882   49.1844  130.4610 C   0  0  0  0  0  0  0  0  0  0  0  0
    8.9239   46.0975  132.3221 C   0  0  0  0  0  0  0  0  0  0  0  0
    9.9641   46.7477  133.0564 N   0  0  0  0  0  0  0  0  0  0  0  0
    5.5167   49.6500  128.2551 H   0  0  0  0  0  0  0  0  0  0  0  0
    9.2659   44.8595  131.6468 C   0  0  0  0  0  0  0  0  0  0  0  0
   10.0063   44.8732  130.4870 C   0  0  0  0  0  0  0  0  0  0  0  0
   10.3253   43.7366  129.8208 N   0  0  0  0  0  0  0  0  0  0  0  0
    9.9003   42.5488  130.3151 C   0  0  0  0  0  0  0  0  0  0  0  0
    9.1651   42.5300  131.4659 C   0  0  0  0  0  0  0  0  0  0  0  0
    8.8632   43.6707  132.1057 N   0  0  0  0  0  0  0  0  0  0  0  0
   10.2549   41.3858  129.5924 N   0  0  0  0  0  0  0  0  0  0  0  0
   11.0535   40.8301  129.9532 H   0  0  0  0  0  0  0  0  0  0  0  0
    9.5629   40.9720  128.4157 C   0  0  0  0  0  0  0  0  0  0  0  0
    9.7305   39.4910  128.1272 C   0  0  0  0  0  0  0  0  0  0  0  0
   10.6470   39.7806  127.0819 N   0  0  0  0  0  0  0  0  0  0  0  0
   10.2895   41.2063  127.1111 C   0  0  0  0  0  0  0  0  0  0  0  0
   10.3669   39.1995  125.8072 C   0  0  0  0  0  0  0  0  0  0  0  0
   11.5095   38.7119  125.0071 C   0  0  0  0  0  0  0  0  0  0  0  0
   12.8686   39.1543  125.4398 C   0  0  0  0  0  0  0  0  0  0  0  0
   13.2725   40.2916  124.7087 F   0  0  0  0  0  0  0  0  0  0  0  0
   11.3048   46.5073  132.7036 C   0  0  0  0  0  0  0  0  0  0  0  0
   11.8943   45.4692  133.6338 C   0  0  0  0  0  0  0  0  0  0  0  0
   12.0685   44.2540  132.9741 F   0  0  0  0  0  0  0  0  0  0  0  0
   11.0645   45.3063  134.7513 F   0  0  0  0  0  0  0  0  0  0  0  0
  1  2  1  0  0  0
  2  3  1  0  0  0
  3  4  1  0  0  0
  4  5  2  0  0  0
  5  6  1  0  0  0
  6  7  2  0  0  0
  7  8  1  0  0  0
  8  9  1  0  0  0
  9 10  1  0  0  0
 10 11  2  0  0  0
 11 12  1  0  0  0
  5 13  1  0  0  0
 13 14  1  0  0  0
 14 32  1  0  0  0
 32 33  1  0  0  0
 33 34  1  0  0  0
 33 35  1  0  0  0
 13 16  1  0  0  0
 16 17  2  0  0  0
 17 18  1  0  0  0
 18 19  2  0  0  0
 19 22  1  0  0  0
 22 24  1  0  0  0
 24 25  1  0  0  0
 25 26  1  0  0  0
 26 28  1  0  0  0
 28 29  1  0  0  0
 29 30  1  0  0  0
 30 31  1  0  0  0
 26 27  1  0  0  0
 19 20  1  0  0  0
 20 21  2  0  0  0
 14  2  1  0  0  0
 21 16  1  0  0  0
 12  4  1  0  0  0
 27 24  1  0  0  0
 12  8  2  0  0  0
  9 15  1  0  0  0
 22 23  1  0  0  0
M  END
> <minimizedAffinity>
10.59106

> <CNNscore>
0.3400066793

> <CNNaffinity>
7.9780516624

> <CNN_VS>
2.7125909328

> <CNNaffinity_variance>
0.4053591788

$$$$
[H]c1nc([C@]2([H])c3c([H])c([H])c4c(c([H])nn4[H])c3C([H])([H])[C@@]([H])(C([H])([H])[H])N2C([H])([H])C([H])(F)F)c([H])nc1N([H])C1([H])C([H])([H])N(C([H])([H])C([H])([H])C([H])([H])F)C1([H])[H]


 35 39  0  0  0  0  0  0  0  0999 V2000
   12.4527   45.1434  132.6099 C   0  0  0  0  0  0  0  0  0  0  0  0
   11.0359   45.0895  133.1271 C   0  0  0  0  0  0  0  0  0  0  0  0
   10.2209   44.0481  132.3879 C   0  0  0  0  0  0  0  0  0  0  0  0
   10.1837   44.4293  130.9559 C   0  0  0  0  0  0  0  0  0  0  0  0
   10.3172   45.7681  130.5938 C   0  0  0  0  0  0  0  0  0  0  0  0
   10.2995   46.0649  129.2558 C   0  0  0  0  0  0  0  0  0  0  0  0
   10.1509   45.0572  128.2900 C   0  0  0  0  0  0  0  0  0  0  0  0
   10.0220   43.7600  128.6782 C   0  0  0  0  0  0  0  0  0  0  0  0
    9.8689   42.6111  128.0053 N   0  0  0  0  0  0  0  0  0  0  0  0
    9.7913   41.6073  128.8699 N   0  0  0  0  0  0  0  0  0  0  0  0
    9.8889   42.0501  130.1236 C   0  0  0  0  0  0  0  0  0  0  0  0
   10.0375   43.4323  130.0204 C   0  0  0  0  0  0  0  0  0  0  0  0
   10.4776   46.8405  131.5931 C   0  0  0  0  0  0  0  0  0  0  0  0
   10.4441   46.3791  132.9460 N   0  0  0  0  0  0  0  0  0  0  0  0
    9.8153   42.4848  126.9715 H   0  0  0  0  0  0  0  0  0  0  0  0
    9.6311   47.9706  131.2588 C   0  0  0  0  0  0  0  0  0  0  0  0
   10.0175   49.2541  131.5699 C   0  0  0  0  0  0  0  0  0  0  0  0
    9.2413   50.3295  131.2901 N   0  0  0  0  0  0  0  0  0  0  0  0
    8.0458   50.1319  130.6837 C   0  0  0  0  0  0  0  0  0  0  0  0
    7.6579   48.8599  130.3729 C   0  0  0  0  0  0  0  0  0  0  0  0
    8.4462   47.8125  130.6614 N   0  0  0  0  0  0  0  0  0  0  0  0
    7.2660   51.2790  130.4070 N   0  0  0  0  0  0  0  0  0  0  0  0
    7.1738   51.9822  131.1646 H   0  0  0  0  0  0  0  0  0  0  0  0
    6.6226   51.4854  129.1507 C   0  0  0  0  0  0  0  0  0  0  0  0
    7.6080   51.6767  128.0117 C   0  0  0  0  0  0  0  0  0  0  0  0
    7.3460   53.0723  127.9964 N   0  0  0  0  0  0  0  0  0  0  0  0
    6.1748   52.9012  128.8682 C   0  0  0  0  0  0  0  0  0  0  0  0
    6.9798   53.6399  126.7376 C   0  0  0  0  0  0  0  0  0  0  0  0
    7.8866   54.6457  126.1463 C   0  0  0  0  0  0  0  0  0  0  0  0
    8.4905   54.3083  124.8228 C   0  0  0  0  0  0  0  0  0  0  0  0
    7.5187   54.3892  123.8029 F   0  0  0  0  0  0  0  0  0  0  0  0
    9.3040   46.6368  133.7294 C   0  0  0  0  0  0  0  0  0  0  0  0
    8.3280   45.4880  133.5954 C   0  0  0  0  0  0  0  0  0  0  0  0
    7.3966   45.7432  132.5907 F   0  0  0  0  0  0  0  0  0  0  0  0
    7.6818   45.2680  134.8192 F   0  0  0  0  0  0  0  0  0  0  0  0
  1  2  1  0  0  0
  2  3  1  0  0  0
  3  4  1  0  0  0
  4  5  2  0  0  0
  5  6  1  0  0  0
  6  7  2  0  0  0
  7  8  1  0  0  0
  8  9  1  0  0  0
  9 10  1  0  0  0
 10 11  2  0  0  0
 11 12  1  0  0  0
  5 13  1  0  0  0
 13 14  1  0  0  0
 14 32  1  0  0  0
 32 33  1  0  0  0
 33 34  1  0  0  0
 33 35  1  0  0  0
 13 16  1  0  0  0
 16 17  2  0  0  0
 17 18  1  0  0  0
 18 19  2  0  0  0
 19 22  1  0  0  0
 22 24  1  0  0  0
 24 25  1  0  0  0
 25 26  1  0  0  0
 26 28  1  0  0  0
 28 29  1  0  0  0
 29 30  1  0  0  0
 30 31  1  0  0  0
 26 27  1  0  0  0
 19 20  1  0  0  0
 20 21  2  0  0  0
 14  2  1  0  0  0
 21 16  1  0  0  0
 12  4  1  0  0  0
 27 24  1  0  0  0
 12  8  2  0  0  0
  9 15  1  0  0  0
 22 23  1  0  0  0
M  END
> <minimizedAffinity>
-0.03499

> <CNNscore>
0.3393057585

> <CNNaffinity>
7.6947793961

> <CNN_VS>
2.6108829975

> <CNNaffinity_variance>
0.2614144385

$$$$
[H]Oc1c([H])c([H])c2c(c1[H])OC([H])([H])C([H])([H])C1=C2[C@@]([H])(c2c([H])c([H])c(OC([H])([H])C([H])([H])N3C([H])([H])C([H])([H])C([H])([H])C([H])([H])C([H])([H])C3([H])[H])c([H])c2[H])Oc2c([H])c(F)c([H])c([H])c21


 38 43  0  0  0  0  0  0  0  0999 V2000
    5.9423   49.5439  129.7623 O   0  0  0  0  0  0  0  0  0  0  0  0
    7.0774   48.7234  129.6141 C   0  0  0  0  0  0  0  0  0  0  0  0
    7.7427   48.2494  130.7237 C   0  0  0  0  0  0  0  0  0  0  0  0
    8.8669   47.4364  130.5844 C   0  0  0  0  0  0  0  0  0  0  0  0
    9.2796   47.1296  129.3225 C   0  0  0  0  0  0  0  0  0  0  0  0
   10.4856   46.2654  129.3351 C   0  0  0  0  0  0  0  0  0  0  0  0
   10.8676   45.4575  128.3161 C   0  0  0  0  0  0  0  0  0  0  0  0
   10.1561   45.2754  127.0438 C   0  0  0  0  0  0  0  0  0  0  0  0
   10.0840   46.6133  126.3434 C   0  0  0  0  0  0  0  0  0  0  0  0
    8.9604   47.3524  126.8658 O   0  0  0  0  0  0  0  0  0  0  0  0
    8.6172   47.6028  128.1848 C   0  0  0  0  0  0  0  0  0  0  0  0
    7.5261   48.3921  128.3531 C   0  0  0  0  0  0  0  0  0  0  0  0
   12.1837   44.8366  128.3518 C   0  0  0  0  0  0  0  0  0  0  0  0
   12.5962   43.9587  127.3883 C   0  0  0  0  0  0  0  0  0  0  0  0
   13.8413   43.3573  127.5163 C   0  0  0  0  0  0  0  0  0  0  0  0
   14.6758   43.6323  128.6068 C   0  0  0  0  0  0  0  0  0  0  0  0
   15.8859   43.0241  128.6985 F   0  0  0  0  0  0  0  0  0  0  0  0
   14.2413   44.5279  129.5759 C   0  0  0  0  0  0  0  0  0  0  0  0
   12.9998   45.1134  129.4252 C   0  0  0  0  0  0  0  0  0  0  0  0
   12.5658   45.9974  130.3555 O   0  0  0  0  0  0  0  0  0  0  0  0
   11.1595   46.2364  130.6224 C   0  0  0  0  0  0  0  0  0  0  0  0
    6.1288   50.5530  129.8044 H   0  0  0  0  0  0  0  0  0  0  0  0
   10.8766   44.9785  131.3992 C   0  0  0  0  0  0  0  0  0  0  0  0
    9.8213   44.1602  131.1078 C   0  0  0  0  0  0  0  0  0  0  0  0
    9.5881   43.0191  131.8352 C   0  0  0  0  0  0  0  0  0  0  0  0
   10.4145   42.6582  132.8894 C   0  0  0  0  0  0  0  0  0  0  0  0
   11.4844   43.4729  133.1971 C   0  0  0  0  0  0  0  0  0  0  0  0
   11.7046   44.6313  132.4435 C   0  0  0  0  0  0  0  0  0  0  0  0
   10.1462   41.4923  133.6052 O   0  0  0  0  0  0  0  0  0  0  0  0
    9.1287   41.5589  134.6169 C   0  0  0  0  0  0  0  0  0  0  0  0
    8.1488   42.6408  134.2923 C   0  0  0  0  0  0  0  0  0  0  0  0
    8.6789   43.9410  134.2815 N   0  0  0  0  0  0  0  0  0  0  0  0
    9.5206   44.3502  135.3302 C   0  0  0  0  0  0  0  0  0  0  0  0
   10.2218   45.6507  135.1230 C   0  0  0  0  0  0  0  0  0  0  0  0
    9.3256   46.8406  135.0247 C   0  0  0  0  0  0  0  0  0  0  0  0
    7.8668   46.5432  135.1356 C   0  0  0  0  0  0  0  0  0  0  0  0
    7.3423   45.9506  133.8457 C   0  0  0  0  0  0  0  0  0  0  0  0
    8.2648   44.8709  133.3162 C   0  0  0  0  0  0  0  0  0  0  0  0
  1  2  1  0  0  0
  2  3  2  0  0  0
  3  4  1  0  0  0
  4  5  2  0  0  0
  5  6  1  0  0  0
  6  7  2  0  0  0
  7  8  1  0  0  0
  8  9  1  0  0  0
  9 10  1  0  0  0
 10 11  1  0  0  0
 11 12  2  0  0  0
  7 13  1  0  0  0
 13 14  2  0  0  0
 14 15  1  0  0  0
 15 16  2  0  0  0
 16 17  1  0  0  0
 16 18  1  0  0  0
 18 19  2  0  0  0
 19 20  1  0  0  0
 20 21  1  0  0  0
 21 23  1  0  0  0
 23 24  2  0  0  0
 24 25  1  0  0  0
 25 26  2  0  0  0
 26 29  1  0  0  0
 29 30  1  0  0  0
 30 31  1  0  0  0
 31 32  1  0  0  0
 32 33  1  0  0  0
 33 34  1  0  0  0
 34 35  1  0  0  0
 35 36  1  0  0  0
 36 37  1  0  0  0
 37 38  1  0  0  0
 26 27  1  0  0  0
 27 28  2  0  0  0
 12  2  1  0  0  0
 19 13  1  0  0  0
 28 23  1  0  0  0
 11  5  1  0  0  0
 38 32  1  0  0  0
 21  6  1  0  0  0
  1 22  1  0  0  0
M  END
> <minimizedAffinity>
24.15690

> <CNNscore>
0.4840079248

> <CNNaffinity>
7.9097952843

> <CNN_VS>
3.8284037113

> <CNNaffinity_variance>
0.7293039560

$$$$
[H]Oc1c([H])c([H])c2c(c1[H])OC([H])([H])C([H])([H])C1=C2[C@@]([H])(c2c([H])c([H])c(OC([H])([H])C([H])([H])N3C([H])([H])C([H])([H])C([H])([H])C([H])([H])C([H])([H])C3([H])[H])c([H])c2[H])Oc2c([H])c(F)c([H])c([H])c21


 38 43  0  0  0  0  0  0  0  0999 V2000
    8.6200   42.5450  126.0995 O   0  0  0  0  0  0  0  0  0  0  0  0
    9.2205   43.0289  127.2780 C   0  0  0  0  0  0  0  0  0  0  0  0
    9.6758   44.3276  127.3439 C   0  0  0  0  0  0  0  0  0  0  0  0
   10.2711   44.8135  128.5075 C   0  0  0  0  0  0  0  0  0  0  0  0
   10.3843   43.9652  129.5679 C   0  0  0  0  0  0  0  0  0  0  0  0
   11.0401   44.6203  130.7264 C   0  0  0  0  0  0  0  0  0  0  0  0
   10.9116   44.2199  132.0148 C   0  0  0  0  0  0  0  0  0  0  0  0
   10.0941   43.0972  132.4939 C   0  0  0  0  0  0  0  0  0  0  0  0
   10.5998   41.8293  131.8439 C   0  0  0  0  0  0  0  0  0  0  0  0
   10.0025   41.7061  130.5363 O   0  0  0  0  0  0  0  0  0  0  0  0
    9.9287   42.6434  129.5183 C   0  0  0  0  0  0  0  0  0  0  0  0
    9.3540   42.2000  128.3717 C   0  0  0  0  0  0  0  0  0  0  0  0
   11.7802   44.7949  133.0315 C   0  0  0  0  0  0  0  0  0  0  0  0
   11.6504   44.4818  134.3560 C   0  0  0  0  0  0  0  0  0  0  0  0
   12.4735   45.1129  135.2792 C   0  0  0  0  0  0  0  0  0  0  0  0
   13.4274   46.0575  134.8805 C   0  0  0  0  0  0  0  0  0  0  0  0
   14.2136   46.6548  135.8122 F   0  0  0  0  0  0  0  0  0  0  0  0
   13.5468   46.3628  133.5304 C   0  0  0  0  0  0  0  0  0  0  0  0
   12.7174   45.7207  132.6321 C   0  0  0  0  0  0  0  0  0  0  0  0
   12.8285   45.9987  131.3109 O   0  0  0  0  0  0  0  0  0  0  0  0
   11.7267   45.8529  130.3779 C   0  0  0  0  0  0  0  0  0  0  0  0
    9.2609   42.1180  125.4199 H   0  0  0  0  0  0  0  0  0  0  0  0
   10.9529   47.0820  130.7731 C   0  0  0  0  0  0  0  0  0  0  0  0
   11.1049   48.2798  130.1324 C   0  0  0  0  0  0  0  0  0  0  0  0
   10.3852   49.3845  130.5164 C   0  0  0  0  0  0  0  0  0  0  0  0
    9.4805   49.3228  131.5663 C   0  0  0  0  0  0  0  0  0  0  0  0
    9.3148   48.1215  132.2239 C   0  0  0  0  0  0  0  0  0  0  0  0
   10.0577   47.0076  131.8171 C   0  0  0  0  0  0  0  0  0  0  0  0
    8.7678   50.4652  131.9277 O   0  0  0  0  0  0  0  0  0  0  0  0
    8.1595   51.2249  130.8713 C   0  0  0  0  0  0  0  0  0  0  0  0
    7.9817   50.3696  129.6576 C   0  0  0  0  0  0  0  0  0  0  0  0
    7.1406   49.2586  129.8299 N   0  0  0  0  0  0  0  0  0  0  0  0
    7.5673   47.9960  129.3831 C   0  0  0  0  0  0  0  0  0  0  0  0
    6.7242   46.8424  129.8124 C   0  0  0  0  0  0  0  0  0  0  0  0
    5.3283   46.8513  129.2833 C   0  0  0  0  0  0  0  0  0  0  0  0
    4.9885   48.0194  128.4180 C   0  0  0  0  0  0  0  0  0  0  0  0
    4.7558   49.2569  129.2573 C   0  0  0  0  0  0  0  0  0  0  0  0
    5.8329   49.4230  130.3105 C   0  0  0  0  0  0  0  0  0  0  0  0
  1  2  1  0  0  0
  2  3  2  0  0  0
  3  4  1  0  0  0
  4  5  2  0  0  0
  5  6  1  0  0  0
  6  7  2  0  0  0
  7  8  1  0  0  0
  8  9  1  0  0  0
  9 10  1  0  0  0
 10 11  1  0  0  0
 11 12  2  0  0  0
  7 13  1  0  0  0
 13 14  2  0  0  0
 14 15  1  0  0  0
 15 16  2  0  0  0
 16 17  1  0  0  0
 16 18  1  0  0  0
 18 19  2  0  0  0
 19 20  1  0  0  0
 20 21  1  0  0  0
 21 23  1  0  0  0
 23 24  2  0  0  0
 24 25  1  0  0  0
 25 26  2  0  0  0
 26 29  1  0  0  0
 29 30  1  0  0  0
 30 31  1  0  0  0
 31 32  1  0  0  0
 32 33  1  0  0  0
 33 34  1  0  0  0
 34 35  1  0  0  0
 35 36  1  0  0  0
 36 37  1  0  0  0
 37 38  1  0  0  0
 26 27  1  0  0  0
 27 28  2  0  0  0
 12  2  1  0  0  0
 19 13  1  0  0  0
 28 23  1  0  0  0
 11  5  1  0  0  0
 38 32  1  0  0  0
 21  6  1  0  0  0
  1 22  1  0  0  0
M  END
> <minimizedAffinity>
13.58238

> <CNNscore>
0.4389388859

> <CNNaffinity>
7.8770608902

> <CNN_VS>
3.4575483799

> <CNNaffinity_variance>
0.7026963234

$$$$
[H]Oc1c([H])c([H])c2c(c1[H])OC([H])([H])C([H])([H])C1=C2[C@@]([H])(c2c([H])c([H])c(OC([H])([H])C([H])([H])N3C([H])([H])C([H])([H])C([H])([H])C([H])([H])C([H])([H])C3([H])[H])c([H])c2[H])Oc2c([H])c(F)c([H])c([H])c21


 38 43  0  0  0  0  0  0  0  0999 V2000
    6.9125   45.0699  136.4201 O   0  0  0  0  0  0  0  0  0  0  0  0
    7.8297   44.9592  135.3570 C   0  0  0  0  0  0  0  0  0  0  0  0
    7.3800   44.8141  134.0627 C   0  0  0  0  0  0  0  0  0  0  0  0
    8.2824   44.7043  133.0053 C   0  0  0  0  0  0  0  0  0  0  0  0
    9.6131   44.7461  133.2957 C   0  0  0  0  0  0  0  0  0  0  0  0
   10.4451   44.6122  132.0746 C   0  0  0  0  0  0  0  0  0  0  0  0
   11.7271   45.0375  131.9629 C   0  0  0  0  0  0  0  0  0  0  0  0
   12.5060   45.7187  133.0057 C   0  0  0  0  0  0  0  0  0  0  0  0
   12.6075   44.7986  134.2010 C   0  0  0  0  0  0  0  0  0  0  0  0
   11.4144   44.9399  135.0000 O   0  0  0  0  0  0  0  0  0  0  0  0
   10.0874   44.8917  134.6037 C   0  0  0  0  0  0  0  0  0  0  0  0
    9.1843   44.9960  135.6113 C   0  0  0  0  0  0  0  0  0  0  0  0
   12.5106   44.6465  130.8001 C   0  0  0  0  0  0  0  0  0  0  0  0
   13.7841   45.1013  130.5992 C   0  0  0  0  0  0  0  0  0  0  0  0
   14.4525   44.7360  129.4380 C   0  0  0  0  0  0  0  0  0  0  0  0
   13.8494   43.9158  128.4763 C   0  0  0  0  0  0  0  0  0  0  0  0
   14.5337   43.5808  127.3528 F   0  0  0  0  0  0  0  0  0  0  0  0
   12.5552   43.4615  128.6973 C   0  0  0  0  0  0  0  0  0  0  0  0
   11.9125   43.8379  129.8602 C   0  0  0  0  0  0  0  0  0  0  0  0
   10.6544   43.3945  130.0963 O   0  0  0  0  0  0  0  0  0  0  0  0
    9.7063   44.1141  130.9265 C   0  0  0  0  0  0  0  0  0  0  0  0
    6.6307   44.1831  136.8549 H   0  0  0  0  0  0  0  0  0  0  0  0
    9.3515   45.2003  129.9467 C   0  0  0  0  0  0  0  0  0  0  0  0
   10.2892   46.0401  129.4140 C   0  0  0  0  0  0  0  0  0  0  0  0
    9.9350   47.0227  128.5226 C   0  0  0  0  0  0  0  0  0  0  0  0
    8.6150   47.1966  128.1328 C   0  0  0  0  0  0  0  0  0  0  0  0
    7.6557   46.3576  128.6609 C   0  0  0  0  0  0  0  0  0  0  0  0
    8.0374   45.3626  129.5677 C   0  0  0  0  0  0  0  0  0  0  0  0
    8.2933   48.2052  127.2257 O   0  0  0  0  0  0  0  0  0  0  0  0
    6.9026   48.4052  126.9274 C   0  0  0  0  0  0  0  0  0  0  0  0
    6.0579   47.9367  128.0690 C   0  0  0  0  0  0  0  0  0  0  0  0
    6.0033   48.8098  129.1672 N   0  0  0  0  0  0  0  0  0  0  0  0
    5.0221   49.8158  129.1991 C   0  0  0  0  0  0  0  0  0  0  0  0
    4.8855   50.5411  130.4956 C   0  0  0  0  0  0  0  0  0  0  0  0
    6.0850   51.3299  130.9052 C   0  0  0  0  0  0  0  0  0  0  0  0
    7.2394   51.2598  129.9612 C   0  0  0  0  0  0  0  0  0  0  0  0
    7.9676   49.9409  130.1038 C   0  0  0  0  0  0  0  0  0  0  0  0
    6.9996   48.7758  130.1543 C   0  0  0  0  0  0  0  0  0  0  0  0
  1  2  1  0  0  0
  2  3  2  0  0  0
  3  4  1  0  0  0
  4  5  2  0  0  0
  5  6  1  0  0  0
  6  7  2  0  0  0
  7  8  1  0  0  0
  8  9  1  0  0  0
  9 10  1  0  0  0
 10 11  1  0  0  0
 11 12  2  0  0  0
  7 13  1  0  0  0
 13 14  2  0  0  0
 14 15  1  0  0  0
 15 16  2  0  0  0
 16 17  1  0  0  0
 16 18  1  0  0  0
 18 19  2  0  0  0
 19 20  1  0  0  0
 20 21  1  0  0  0
 21 23  1  0  0  0
 23 24  2  0  0  0
 24 25  1  0  0  0
 25 26  2  0  0  0
 26 29  1  0  0  0
 29 30  1  0  0  0
 30 31  1  0  0  0
 31 32  1  0  0  0
 32 33  1  0  0  0
 33 34  1  0  0  0
 34 35  1  0  0  0
 35 36  1  0  0  0
 36 37  1  0  0  0
 37 38  1  0  0  0
 26 27  1  0  0  0
 27 28  2  0  0  0
 12  2  1  0  0  0
 19 13  1  0  0  0
 28 23  1  0  0  0
 11  5  1  0  0  0
 38 32  1  0  0  0
 21  6  1  0  0  0
  1 22  1  0  0  0
M  END
> <minimizedAffinity>
24.43827

> <CNNscore>
0.4273980260

> <CNNaffinity>
7.5746383667

> <CNN_VS>
3.2373855114

> <CNNaffinity_variance>
1.0372463465

$$$$
[H]Oc1c([H])c([H])c2c(c1[H])OC([H])([H])C([H])([H])C1=C2[C@@]([H])(c2c([H])c([H])c(OC([H])([H])C([H])([H])N3C([H])([H])C([H])([H])C([H])([H])C([H])([H])C([H])([H])C3([H])[H])c([H])c2[H])Oc2c([H])c(F)c([H])c([H])c21


 38 43  0  0  0  0  0  0  0  0999 V2000
    6.0597   51.7096  128.7046 O   0  0  0  0  0  0  0  0  0  0  0  0
    6.6826   50.7249  129.4959 C   0  0  0  0  0  0  0  0  0  0  0  0
    6.2635   49.4139  129.4324 C   0  0  0  0  0  0  0  0  0  0  0  0
    6.8758   48.4339  130.2127 C   0  0  0  0  0  0  0  0  0  0  0  0
    7.8952   48.8160  131.0322 C   0  0  0  0  0  0  0  0  0  0  0  0
    8.4407   47.6695  131.7999 C   0  0  0  0  0  0  0  0  0  0  0  0
    9.6825   47.6228  132.3407 C   0  0  0  0  0  0  0  0  0  0  0  0
   10.7064   48.6720  132.2468 C   0  0  0  0  0  0  0  0  0  0  0  0
   10.1588   49.9294  132.8831 C   0  0  0  0  0  0  0  0  0  0  0  0
    9.3527   50.6293  131.9124 O   0  0  0  0  0  0  0  0  0  0  0  0
    8.3329   50.1424  131.1103 C   0  0  0  0  0  0  0  0  0  0  0  0
    7.7169   51.0733  130.3385 C   0  0  0  0  0  0  0  0  0  0  0  0
   10.0203   46.5477  133.2621 C   0  0  0  0  0  0  0  0  0  0  0  0
   11.2763   46.4096  133.7840 C   0  0  0  0  0  0  0  0  0  0  0  0
   11.5451   45.3262  134.6100 C   0  0  0  0  0  0  0  0  0  0  0  0
   10.5595   44.3795  134.9156 C   0  0  0  0  0  0  0  0  0  0  0  0
   10.8599   43.3326  135.7260 F   0  0  0  0  0  0  0  0  0  0  0  0
    9.2881   44.5360  134.3777 C   0  0  0  0  0  0  0  0  0  0  0  0
    9.0459   45.6222  133.5602 C   0  0  0  0  0  0  0  0  0  0  0  0
    7.8086   45.7956  133.0365 O   0  0  0  0  0  0  0  0  0  0  0  0
    7.5694   46.5063  131.7941 C   0  0  0  0  0  0  0  0  0  0  0  0
    5.2555   52.1803  129.1367 H   0  0  0  0  0  0  0  0  0  0  0  0
    8.0359   45.4343  130.8460 C   0  0  0  0  0  0  0  0  0  0  0  0
    8.1409   45.6437  129.4993 C   0  0  0  0  0  0  0  0  0  0  0  0
    8.5690   44.6456  128.6589 C   0  0  0  0  0  0  0  0  0  0  0  0
    8.9090   43.3924  129.1471 C   0  0  0  0  0  0  0  0  0  0  0  0
    8.8087   43.1640  130.5039 C   0  0  0  0  0  0  0  0  0  0  0  0
    8.3704   44.1943  131.3432 C   0  0  0  0  0  0  0  0  0  0  0  0
    9.3394   42.4039  128.2632 O   0  0  0  0  0  0  0  0  0  0  0  0
   10.5325   42.6680  127.5084 C   0  0  0  0  0  0  0  0  0  0  0  0
   10.8216   44.1352  127.4976 C   0  0  0  0  0  0  0  0  0  0  0  0
   11.8600   44.5440  128.3495 N   0  0  0  0  0  0  0  0  0  0  0  0
   13.0504   43.7976  128.3917 C   0  0  0  0  0  0  0  0  0  0  0  0
   14.1788   44.4269  129.1377 C   0  0  0  0  0  0  0  0  0  0  0  0
   13.9376   44.6209  130.5981 C   0  0  0  0  0  0  0  0  0  0  0  0
   12.6003   44.1677  131.0829 C   0  0  0  0  0  0  0  0  0  0  0  0
   11.5269   45.1631  130.6992 C   0  0  0  0  0  0  0  0  0  0  0  0
   11.6657   45.5985  129.2541 C   0  0  0  0  0  0  0  0  0  0  0  0
  1  2  1  0  0  0
  2  3  2  0  0  0
  3  4  1  0  0  0
  4  5  2  0  0  0
  5  6  1  0  0  0
  6  7  2  0  0  0
  7  8  1  0  0  0
  8  9  1  0  0  0
  9 10  1  0  0  0
 10 11  1  0  0  0
 11 12  2  0  0  0
  7 13  1  0  0  0
 13 14  2  0  0  0
 14 15  1  0  0  0
 15 16  2  0  0  0
 16 17  1  0  0  0
 16 18  1  0  0  0
 18 19  2  0  0  0
 19 20  1  0  0  0
 20 21  1  0  0  0
 21 23  1  0  0  0
 23 24  2  0  0  0
 24 25  1  0  0  0
 25 26  2  0  0  0
 26 29  1  0  0  0
 29 30  1  0  0  0
 30 31  1  0  0  0
 31 32  1  0  0  0
 32 33  1  0  0  0
 33 34  1  0  0  0
 34 35  1  0  0  0
 35 36  1  0  0  0
 36 37  1  0  0  0
 37 38  1  0  0  0
 26 27  1  0  0  0
 27 28  2  0  0  0
 12  2  1  0  0  0
 19 13  1  0  0  0
 28 23  1  0  0  0
 11  5  1  0  0  0
 38 32  1  0  0  0
 21  6  1  0  0  0
  1 22  1  0  0  0
M  END
> <minimizedAffinity>
1.28596

> <CNNscore>
0.4213337600

> <CNNaffinity>
8.1324014664

> <CNN_VS>
3.4264552593

> <CNNaffinity_variance>
0.3934527338

$$$$
[H]Oc1c([H])c([H])c2c(c1[H])OC([H])([H])C([H])([H])C1=C2[C@@]([H])(c2c([H])c([H])c(OC([H])([H])C([H])([H])N3C([H])([H])C([H])([H])C([H])([H])C([H])([H])C([H])([H])C3([H])[H])c([H])c2[H])Oc2c([H])c(F)c([H])c([H])c21


 38 43  0  0  0  0  0  0  0  0999 V2000
    6.8251   52.0328  128.1344 O   0  0  0  0  0  0  0  0  0  0  0  0
    7.1193   50.8594  128.8557 C   0  0  0  0  0  0  0  0  0  0  0  0
    7.3204   49.6679  128.1936 C   0  0  0  0  0  0  0  0  0  0  0  0
    7.6125   48.5025  128.9013 C   0  0  0  0  0  0  0  0  0  0  0  0
    7.6920   48.5841  130.2592 C   0  0  0  0  0  0  0  0  0  0  0  0
    8.0027   47.2682  130.8702 C   0  0  0  0  0  0  0  0  0  0  0  0
    8.5607   47.0969  132.0933 C   0  0  0  0  0  0  0  0  0  0  0  0
    8.9746   48.1658  133.0122 C   0  0  0  0  0  0  0  0  0  0  0  0
    7.7569   48.9915  133.3606 C   0  0  0  0  0  0  0  0  0  0  0  0
    7.5436   49.9684  132.3204 O   0  0  0  0  0  0  0  0  0  0  0  0
    7.4896   49.7848  130.9480 C   0  0  0  0  0  0  0  0  0  0  0  0
    7.2069   50.9019  130.2311 C   0  0  0  0  0  0  0  0  0  0  0  0
    8.6052   45.7646  132.6779 C   0  0  0  0  0  0  0  0  0  0  0  0
    9.2167   45.5197  133.8758 C   0  0  0  0  0  0  0  0  0  0  0  0
    9.2744   44.2144  134.3462 C   0  0  0  0  0  0  0  0  0  0  0  0
    8.7210   43.1523  133.6205 C   0  0  0  0  0  0  0  0  0  0  0  0
    8.7978   41.8891  134.1118 F   0  0  0  0  0  0  0  0  0  0  0  0
    8.1021   43.4192  132.4057 C   0  0  0  0  0  0  0  0  0  0  0  0
    8.0569   44.7256  131.9603 C   0  0  0  0  0  0  0  0  0  0  0  0
    7.4473   45.0045  130.7831 O   0  0  0  0  0  0  0  0  0  0  0  0
    7.7977   46.1503  129.9644 C   0  0  0  0  0  0  0  0  0  0  0  0
    5.8271   52.2129  127.9715 H   0  0  0  0  0  0  0  0  0  0  0  0
    9.0860   45.6169  129.3973 C   0  0  0  0  0  0  0  0  0  0  0  0
   10.1906   46.4033  129.2247 C   0  0  0  0  0  0  0  0  0  0  0  0
   11.3521   45.8882  128.7038 C   0  0  0  0  0  0  0  0  0  0  0  0
   11.4441   44.5539  128.3355 C   0  0  0  0  0  0  0  0  0  0  0  0
   10.3385   43.7461  128.5030 C   0  0  0  0  0  0  0  0  0  0  0  0
    9.1645   44.2904  129.0355 C   0  0  0  0  0  0  0  0  0  0  0  0
   12.6400   44.0668  127.8101 O   0  0  0  0  0  0  0  0  0  0  0  0
   13.8361   44.2928  128.5726 C   0  0  0  0  0  0  0  0  0  0  0  0
   13.7772   43.5353  129.8606 C   0  0  0  0  0  0  0  0  0  0  0  0
   12.9879   44.1233  130.8619 N   0  0  0  0  0  0  0  0  0  0  0  0
   13.3559   45.3762  131.3820 C   0  0  0  0  0  0  0  0  0  0  0  0
   12.3448   46.0298  132.2631 C   0  0  0  0  0  0  0  0  0  0  0  0
   12.0448   45.2969  133.5287 C   0  0  0  0  0  0  0  0  0  0  0  0
   12.7927   44.0177  133.7100 C   0  0  0  0  0  0  0  0  0  0  0  0
   12.1978   42.9239  132.8500 C   0  0  0  0  0  0  0  0  0  0  0  0
   11.9262   43.4123  131.4411 C   0  0  0  0  0  0  0  0  0  0  0  0
  1  2  1  0  0  0
  2  3  2  0  0  0
  3  4  1  0  0  0
  4  5  2  0  0  0
  5  6  1  0  0  0
  6  7  2  0  0  0
  7  8  1  0  0  0
  8  9  1  0  0  0
  9 10  1  0  0  0
 10 11  1  0  0  0
 11 12  2  0  0  0
  7 13  1  0  0  0
 13 14  2  0  0  0
 14 15  1  0  0  0
 15 16  2  0  0  0
 16 17  1  0  0  0
 16 18  1  0  0  0
 18 19  2  0  0  0
 19 20  1  0  0  0
 20 21  1  0  0  0
 21 23  1  0  0  0
 23 24  2  0  0  0
 24 25  1  0  0  0
 25 26  2  0  0  0
 26 29  1  0  0  0
 29 30  1  0  0  0
 30 31  1  0  0  0
 31 32  1  0  0  0
 32 33  1  0  0  0
 33 34  1  0  0  0
 34 35  1  0  0  0
 35 36  1  0  0  0
 36 37  1  0  0  0
 37 38  1  0  0  0
 26 27  1  0  0  0
 27 28  2  0  0  0
 12  2  1  0  0  0
 19 13  1  0  0  0
 28 23  1  0  0  0
 11  5  1  0  0  0
 38 32  1  0  0  0
 21  6  1  0  0  0
  1 22  1  0  0  0
M  END
> <minimizedAffinity>
2.16266

> <CNNscore>
0.4189333022

> <CNNaffinity>
7.7783455849

> <CNN_VS>
3.2586081028

> <CNNaffinity_variance>
0.3708737493

$$$$
[H]Oc1c([H])c([H])c2c(c1[H])OC([H])([H])C([H])([H])C1=C2[C@@]([H])(c2c([H])c([H])c(OC([H])([H])C([H])([H])N3C([H])([H])C([H])([H])C([H])([H])C([H])([H])C([H])([H])C3([H])[H])c([H])c2[H])Oc2c([H])c(F)c([H])c([H])c21


 38 43  0  0  0  0  0  0  0  0999 V2000
    5.2565   49.2433  129.9058 O   0  0  0  0  0  0  0  0  0  0  0  0
    6.4633   48.5256  129.7955 C   0  0  0  0  0  0  0  0  0  0  0  0
    7.0672   48.0035  130.9185 C   0  0  0  0  0  0  0  0  0  0  0  0
    8.2618   47.2916  130.8167 C   0  0  0  0  0  0  0  0  0  0  0  0
    8.8051   47.1316  129.5773 C   0  0  0  0  0  0  0  0  0  0  0  0
   10.0720   46.3612  129.6294 C   0  0  0  0  0  0  0  0  0  0  0  0
   10.6048   45.6793  128.5864 C   0  0  0  0  0  0  0  0  0  0  0  0
   10.0226   45.5611  127.2428 C   0  0  0  0  0  0  0  0  0  0  0  0
    9.9020   46.9479  126.6529 C   0  0  0  0  0  0  0  0  0  0  0  0
    8.6810   47.5517  127.1288 O   0  0  0  0  0  0  0  0  0  0  0  0
    8.2065   47.6557  128.4266 C   0  0  0  0  0  0  0  0  0  0  0  0
    7.0442   48.3439  128.5584 C   0  0  0  0  0  0  0  0  0  0  0  0
   11.9592   45.1565  128.6919 C   0  0  0  0  0  0  0  0  0  0  0  0
   12.5233   44.4023  127.7009 C   0  0  0  0  0  0  0  0  0  0  0  0
   13.7977   43.8853  127.8931 C   0  0  0  0  0  0  0  0  0  0  0  0
   14.5101   44.1212  129.0754 C   0  0  0  0  0  0  0  0  0  0  0  0
   15.7535   43.5982  129.2279 F   0  0  0  0  0  0  0  0  0  0  0  0
   13.9224   44.8909  130.0715 C   0  0  0  0  0  0  0  0  0  0  0  0
   12.6547   45.3945  129.8558 C   0  0  0  0  0  0  0  0  0  0  0  0
   12.0717   46.1562  130.8124 O   0  0  0  0  0  0  0  0  0  0  0  0
   10.6329   46.2655  130.9667 C   0  0  0  0  0  0  0  0  0  0  0  0
    5.3557   50.2555  130.0492 H   0  0  0  0  0  0  0  0  0  0  0  0
   10.3879   44.9251  131.6062 C   0  0  0  0  0  0  0  0  0  0  0  0
    9.4595   44.0441  131.1262 C   0  0  0  0  0  0  0  0  0  0  0  0
    9.2578   42.8282  131.7317 C   0  0  0  0  0  0  0  0  0  0  0  0
    9.9884   42.4528  132.8497 C   0  0  0  0  0  0  0  0  0  0  0  0
   10.9296   43.3301  133.3472 C   0  0  0  0  0  0  0  0  0  0  0  0
   11.1198   44.5643  132.7156 C   0  0  0  0  0  0  0  0  0  0  0  0
    9.7557   41.2102  133.4374 O   0  0  0  0  0  0  0  0  0  0  0  0
    9.9390   41.1080  134.8584 C   0  0  0  0  0  0  0  0  0  0  0  0
    8.6129   41.0868  135.5491 C   0  0  0  0  0  0  0  0  0  0  0  0
    7.5028   40.9352  134.7029 N   0  0  0  0  0  0  0  0  0  0  0  0
    7.2452   41.9099  133.7234 C   0  0  0  0  0  0  0  0  0  0  0  0
    6.1957   41.5564  132.7238 C   0  0  0  0  0  0  0  0  0  0  0  0
    4.8243   41.3795  133.2865 C   0  0  0  0  0  0  0  0  0  0  0  0
    4.7183   41.5704  134.7633 C   0  0  0  0  0  0  0  0  0  0  0  0
    5.2549   40.3615  135.4987 C   0  0  0  0  0  0  0  0  0  0  0  0
    6.5782   39.9026  134.9194 C   0  0  0  0  0  0  0  0  0  0  0  0
  1  2  1  0  0  0
  2  3  2  0  0  0
  3  4  1  0  0  0
  4  5  2  0  0  0
  5  6  1  0  0  0
  6  7  2  0  0  0
  7  8  1  0  0  0
  8  9  1  0  0  0
  9 10  1  0  0  0
 10 11  1  0  0  0
 11 12  2  0  0  0
  7 13  1  0  0  0
 13 14  2  0  0  0
 14 15  1  0  0  0
 15 16  2  0  0  0
 16 17  1  0  0  0
 16 18  1  0  0  0
 18 19  2  0  0  0
 19 20  1  0  0  0
 20 21  1  0  0  0
 21 23  1  0  0  0
 23 24  2  0  0  0
 24 25  1  0  0  0
 25 26  2  0  0  0
 26 29  1  0  0  0
 29 30  1  0  0  0
 30 31  1  0  0  0
 31 32  1  0  0  0
 32 33  1  0  0  0
 33 34  1  0  0  0
 34 35  1  0  0  0
 35 36  1  0  0  0
 36 37  1  0  0  0
 37 38  1  0  0  0
 26 27  1  0  0  0
 27 28  2  0  0  0
 12  2  1  0  0  0
 19 13  1  0  0  0
 28 23  1  0  0  0
 11  5  1  0  0  0
 38 32  1  0  0  0
 21  6  1  0  0  0
  1 22  1  0  0  0
M  END
> <minimizedAffinity>
46.75659

> <CNNscore>
0.4170484841

> <CNNaffinity>
7.4611358643

> <CNN_VS>
3.1116554737

> <CNNaffinity_variance>
1.3097848892

$$$$
[H]Oc1c([H])c([H])c2c(c1[H])OC([H])([H])C([H])([H])C1=C2[C@@]([H])(c2c([H])c([H])c(OC([H])([H])C([H])([H])N3C([H])([H])C([H])([H])C([H])([H])C([H])([H])C([H])([H])C3([H])[H])c([H])c2[H])Oc2c([H])c(F)c([H])c([H])c21


 38 43  0  0  0  0  0  0  0  0999 V2000
    4.0753   50.7796  129.6020 O   0  0  0  0  0  0  0  0  0  0  0  0
    5.2054   49.9394  129.6266 C   0  0  0  0  0  0  0  0  0  0  0  0
    5.6627   49.4235  130.8195 C   0  0  0  0  0  0  0  0  0  0  0  0
    6.7807   48.5907  130.8513 C   0  0  0  0  0  0  0  0  0  0  0  0
    7.3985   48.3074  129.6702 C   0  0  0  0  0  0  0  0  0  0  0  0
    8.5701   47.4179  129.8640 C   0  0  0  0  0  0  0  0  0  0  0  0
    9.1078   46.6283  128.9027 C   0  0  0  0  0  0  0  0  0  0  0  0
    8.6220   46.4934  127.5228 C   0  0  0  0  0  0  0  0  0  0  0  0
    8.6930   47.8499  126.8589 C   0  0  0  0  0  0  0  0  0  0  0  0
    7.5087   48.5990  127.2025 O   0  0  0  0  0  0  0  0  0  0  0  0
    6.9487   48.8232  128.4501 C   0  0  0  0  0  0  0  0  0  0  0  0
    5.8581   49.6308  128.4519 C   0  0  0  0  0  0  0  0  0  0  0  0
   10.3878   45.9791  129.1449 C   0  0  0  0  0  0  0  0  0  0  0  0
   10.9450   45.1174  128.2415 C   0  0  0  0  0  0  0  0  0  0  0  0
   12.1397   44.4868  128.5631 C   0  0  0  0  0  0  0  0  0  0  0  0
   12.7793   44.7164  129.7876 C   0  0  0  0  0  0  0  0  0  0  0  0
   13.9456   44.0807  130.0673 F   0  0  0  0  0  0  0  0  0  0  0  0
   12.1999   45.5962  130.6934 C   0  0  0  0  0  0  0  0  0  0  0  0
   11.0123   46.2113  130.3495 C   0  0  0  0  0  0  0  0  0  0  0  0
   10.4399   47.0805  131.2168 O   0  0  0  0  0  0  0  0  0  0  0  0
    9.0128   47.3421  131.2462 C   0  0  0  0  0  0  0  0  0  0  0  0
    4.2684   51.7832  129.7042 H   0  0  0  0  0  0  0  0  0  0  0  0
    8.5804   46.0712  131.9270 C   0  0  0  0  0  0  0  0  0  0  0  0
    8.3138   46.0128  133.2663 C   0  0  0  0  0  0  0  0  0  0  0  0
    7.9218   44.8381  133.8596 C   0  0  0  0  0  0  0  0  0  0  0  0
    7.7830   43.6720  133.1211 C   0  0  0  0  0  0  0  0  0  0  0  0
    8.0481   43.7133  131.7679 C   0  0  0  0  0  0  0  0  0  0  0  0
    8.4463   44.9203  131.1825 C   0  0  0  0  0  0  0  0  0  0  0  0
    7.3830   42.4982  133.7582 O   0  0  0  0  0  0  0  0  0  0  0  0
    8.4086   41.5557  134.1091 C   0  0  0  0  0  0  0  0  0  0  0  0
    9.5879   42.2691  134.6890 C   0  0  0  0  0  0  0  0  0  0  0  0
   10.4862   42.7976  133.7482 N   0  0  0  0  0  0  0  0  0  0  0  0
   10.9973   41.9627  132.7394 C   0  0  0  0  0  0  0  0  0  0  0  0
   11.7520   42.6530  131.6532 C   0  0  0  0  0  0  0  0  0  0  0  0
   13.0060   43.3336  132.0924 C   0  0  0  0  0  0  0  0  0  0  0  0
   13.3032   43.2294  133.5517 C   0  0  0  0  0  0  0  0  0  0  0  0
   12.4265   44.1741  134.3448 C   0  0  0  0  0  0  0  0  0  0  0  0
   10.9820   44.1021  133.8914 C   0  0  0  0  0  0  0  0  0  0  0  0
  1  2  1  0  0  0
  2  3  2  0  0  0
  3  4  1  0  0  0
  4  5  2  0  0  0
  5  6  1  0  0  0
  6  7  2  0  0  0
  7  8  1  0  0  0
  8  9  1  0  0  0
  9 10  1  0  0  0
 10 11  1  0  0  0
 11 12  2  0  0  0
  7 13  1  0  0  0
 13 14  2  0  0  0
 14 15  1  0  0  0
 15 16  2  0  0  0
 16 17  1  0  0  0
 16 18  1  0  0  0
 18 19  2  0  0  0
 19 20  1  0  0  0
 20 21  1  0  0  0
 21 23  1  0  0  0
 23 24  2  0  0  0
 24 25  1  0  0  0
 25 26  2  0  0  0
 26 29  1  0  0  0
 29 30  1  0  0  0
 30 31  1  0  0  0
 31 32  1  0  0  0
 32 33  1  0  0  0
 33 34  1  0  0  0
 34 35  1  0  0  0
 35 36  1  0  0  0
 36 37  1  0  0  0
 37 38  1  0  0  0
 26 27  1  0  0  0
 27 28  2  0  0  0
 12  2  1  0  0  0
 19 13  1  0  0  0
 28 23  1  0  0  0
 11  5  1  0  0  0
 38 32  1  0  0  0
 21  6  1  0  0  0
  1 22  1  0  0  0
M  END
> <minimizedAffinity>
16.79569

> <CNNscore>
0.4120700061

> <CNNaffinity>
7.6863393784

> <CNN_VS>
3.1673099995

> <CNNaffinity_variance>
0.9056525230

$$$$
[H]Oc1c([H])c([H])c2c(c1[H])OC([H])([H])C([H])([H])C1=C2[C@@]([H])(c2c([H])c([H])c(OC([H])([H])C([H])([H])N3C([H])([H])C([H])([H])C([H])([H])C([H])([H])C([H])([H])C3([H])[H])c([H])c2[H])Oc2c([H])c(F)c([H])c([H])c21


 38 43  0  0  0  0  0  0  0  0999 V2000
    9.8248   44.8432  125.1419 O   0  0  0  0  0  0  0  0  0  0  0  0
    9.9947   44.6602  126.5281 C   0  0  0  0  0  0  0  0  0  0  0  0
   10.6605   45.6051  127.2779 C   0  0  0  0  0  0  0  0  0  0  0  0
   10.8320   45.4306  128.6507 C   0  0  0  0  0  0  0  0  0  0  0  0
   10.3210   44.3023  129.2188 C   0  0  0  0  0  0  0  0  0  0  0  0
   10.5858   44.2551  130.6779 C   0  0  0  0  0  0  0  0  0  0  0  0
    9.8677   43.5306  131.5703 C   0  0  0  0  0  0  0  0  0  0  0  0
    8.7008   42.6925  131.2638 C   0  0  0  0  0  0  0  0  0  0  0  0
    9.1301   41.6159  130.2930 C   0  0  0  0  0  0  0  0  0  0  0  0
    9.0945   42.1545  128.9549 O   0  0  0  0  0  0  0  0  0  0  0  0
    9.6433   43.3321  128.4728 C   0  0  0  0  0  0  0  0  0  0  0  0
    9.4927   43.5306  127.1388 C   0  0  0  0  0  0  0  0  0  0  0  0
   10.3609   43.3825  132.9317 C   0  0  0  0  0  0  0  0  0  0  0  0
    9.6464   42.7228  133.8927 C   0  0  0  0  0  0  0  0  0  0  0  0
   10.1489   42.6707  135.1862 C   0  0  0  0  0  0  0  0  0  0  0  0
   11.3657   43.2776  135.5213 C   0  0  0  0  0  0  0  0  0  0  0  0
   11.8244   43.2068  136.7969 F   0  0  0  0  0  0  0  0  0  0  0  0
   12.0794   43.9426  134.5321 C   0  0  0  0  0  0  0  0  0  0  0  0
   11.5589   43.9793  133.2534 C   0  0  0  0  0  0  0  0  0  0  0  0
   12.2476   44.6141  132.2747 O   0  0  0  0  0  0  0  0  0  0  0  0
   11.6085   45.1939  131.1080 C   0  0  0  0  0  0  0  0  0  0  0  0
   10.5723   44.4602  124.5507 H   0  0  0  0  0  0  0  0  0  0  0  0
   11.0339   46.4177  131.7698 C   0  0  0  0  0  0  0  0  0  0  0  0
   11.6187   47.6487  131.6653 C   0  0  0  0  0  0  0  0  0  0  0  0
   11.0713   48.7472  132.2814 C   0  0  0  0  0  0  0  0  0  0  0  0
    9.9078   48.6452  133.0299 C   0  0  0  0  0  0  0  0  0  0  0  0
    9.3045   47.4100  133.1457 C   0  0  0  0  0  0  0  0  0  0  0  0
    9.8783   46.3032  132.5101 C   0  0  0  0  0  0  0  0  0  0  0  0
    9.3816   49.7825  133.6409 O   0  0  0  0  0  0  0  0  0  0  0  0
    8.7905   50.7758  132.7882 C   0  0  0  0  0  0  0  0  0  0  0  0
    9.2680   50.5985  131.3822 C   0  0  0  0  0  0  0  0  0  0  0  0
    8.3285   50.0416  130.4998 N   0  0  0  0  0  0  0  0  0  0  0  0
    6.9596   50.1268  130.8076 C   0  0  0  0  0  0  0  0  0  0  0  0
    6.0276   49.7233  129.7147 C   0  0  0  0  0  0  0  0  0  0  0  0
    6.1175   48.2898  129.3079 C   0  0  0  0  0  0  0  0  0  0  0  0
    7.1347   47.4859  130.0480 C   0  0  0  0  0  0  0  0  0  0  0  0
    8.5283   47.7919  129.5436 C   0  0  0  0  0  0  0  0  0  0  0  0
    8.7494   49.2841  129.3966 C   0  0  0  0  0  0  0  0  0  0  0  0
  1  2  1  0  0  0
  2  3  2  0  0  0
  3  4  1  0  0  0
  4  5  2  0  0  0
  5  6  1  0  0  0
  6  7  2  0  0  0
  7  8  1  0  0  0
  8  9  1  0  0  0
  9 10  1  0  0  0
 10 11  1  0  0  0
 11 12  2  0  0  0
  7 13  1  0  0  0
 13 14  2  0  0  0
 14 15  1  0  0  0
 15 16  2  0  0  0
 16 17  1  0  0  0
 16 18  1  0  0  0
 18 19  2  0  0  0
 19 20  1  0  0  0
 20 21  1  0  0  0
 21 23  1  0  0  0
 23 24  2  0  0  0
 24 25  1  0  0  0
 25 26  2  0  0  0
 26 29  1  0  0  0
 29 30  1  0  0  0
 30 31  1  0  0  0
 31 32  1  0  0  0
 32 33  1  0  0  0
 33 34  1  0  0  0
 34 35  1  0  0  0
 35 36  1  0  0  0
 36 37  1  0  0  0
 37 38  1  0  0  0
 26 27  1  0  0  0
 27 28  2  0  0  0
 12  2  1  0  0  0
 19 13  1  0  0  0
 28 23  1  0  0  0
 11  5  1  0  0  0
 38 32  1  0  0  0
 21  6  1  0  0  0
  1 22  1  0  0  0
M  END
> <minimizedAffinity>
8.96118

> <CNNscore>
0.3889762461

> <CNNaffinity>
7.9706206322

> <CNN_VS>
3.1003820896

> <CNNaffinity_variance>
0.5187390447

$$$$
[H]Oc1c([H])c([H])c2c(c1[H])OC([H])([H])C([H])([H])C1=C2[C@@]([H])(c2c([H])c([H])c(OC([H])([H])C([H])([H])N3C([H])([H])C([H])([H])C([H])([H])C([H])([H])C([H])([H])C3([H])[H])c([H])c2[H])Oc2c([H])c(F)c([H])c([H])c21


 38 43  0  0  0  0  0  0  0  0999 V2000
    2.4024   46.3400  128.3316 O   0  0  0  0  0  0  0  0  0  0  0  0
    3.5740   46.6919  129.0296 C   0  0  0  0  0  0  0  0  0  0  0  0
    4.2019   45.7735  129.8424 C   0  0  0  0  0  0  0  0  0  0  0  0
    5.3623   46.1150  130.5360 C   0  0  0  0  0  0  0  0  0  0  0  0
    5.8489   47.3784  130.3818 C   0  0  0  0  0  0  0  0  0  0  0  0
    7.0792   47.5936  131.1828 C   0  0  0  0  0  0  0  0  0  0  0  0
    8.0133   48.5409  130.9243 C   0  0  0  0  0  0  0  0  0  0  0  0
    7.9903   49.4961  129.8084 C   0  0  0  0  0  0  0  0  0  0  0  0
    6.7438   50.3426  129.9326 C   0  0  0  0  0  0  0  0  0  0  0  0
    5.6360   49.6291  129.3446 O   0  0  0  0  0  0  0  0  0  0  0  0
    5.2239   48.3240  129.5619 C   0  0  0  0  0  0  0  0  0  0  0  0
    4.0961   47.9615  128.8999 C   0  0  0  0  0  0  0  0  0  0  0  0
    9.0534   48.8054  131.9077 C   0  0  0  0  0  0  0  0  0  0  0  0
   10.0614   49.6987  131.6728 C   0  0  0  0  0  0  0  0  0  0  0  0
   11.0544   49.8581  132.6303 C   0  0  0  0  0  0  0  0  0  0  0  0
   11.0416   49.1254  133.8237 C   0  0  0  0  0  0  0  0  0  0  0  0
   12.0303   49.3073  134.7359 F   0  0  0  0  0  0  0  0  0  0  0  0
   10.0091   48.2229  134.0466 C   0  0  0  0  0  0  0  0  0  0  0  0
    9.0332   48.0835  133.0796 C   0  0  0  0  0  0  0  0  0  0  0  0
    8.0135   47.2159  133.2862 O   0  0  0  0  0  0  0  0  0  0  0  0
    7.2860   46.5800  132.2035 C   0  0  0  0  0  0  0  0  0  0  0  0
    1.5216   46.5139  128.8304 H   0  0  0  0  0  0  0  0  0  0  0  0
    8.3301   45.5676  131.8154 C   0  0  0  0  0  0  0  0  0  0  0  0
    8.3772   44.3173  132.3657 C   0  0  0  0  0  0  0  0  0  0  0  0
    9.3426   43.4151  131.9920 C   0  0  0  0  0  0  0  0  0  0  0  0
   10.3019   43.7412  131.0444 C   0  0  0  0  0  0  0  0  0  0  0  0
   10.2689   44.9990  130.4788 C   0  0  0  0  0  0  0  0  0  0  0  0
    9.2769   45.9037  130.8734 C   0  0  0  0  0  0  0  0  0  0  0  0
   11.2665   42.7990  130.6902 O   0  0  0  0  0  0  0  0  0  0  0  0
   11.9450   42.1168  131.7567 C   0  0  0  0  0  0  0  0  0  0  0  0
   12.9505   43.0235  132.3915 C   0  0  0  0  0  0  0  0  0  0  0  0
   12.5257   43.6486  133.5749 N   0  0  0  0  0  0  0  0  0  0  0  0
   11.5798   43.0056  134.3920 C   0  0  0  0  0  0  0  0  0  0  0  0
   11.3623   43.6224  135.7330 C   0  0  0  0  0  0  0  0  0  0  0  0
   10.7931   45.0022  135.7066 C   0  0  0  0  0  0  0  0  0  0  0  0
   10.5425   45.5559  134.3430 C   0  0  0  0  0  0  0  0  0  0  0  0
   11.8383   45.9996  133.6995 C   0  0  0  0  0  0  0  0  0  0  0  0
   12.9273   44.9596  133.8716 C   0  0  0  0  0  0  0  0  0  0  0  0
  1  2  1  0  0  0
  2  3  2  0  0  0
  3  4  1  0  0  0
  4  5  2  0  0  0
  5  6  1  0  0  0
  6  7  2  0  0  0
  7  8  1  0  0  0
  8  9  1  0  0  0
  9 10  1  0  0  0
 10 11  1  0  0  0
 11 12  2  0  0  0
  7 13  1  0  0  0
 13 14  2  0  0  0
 14 15  1  0  0  0
 15 16  2  0  0  0
 16 17  1  0  0  0
 16 18  1  0  0  0
 18 19  2  0  0  0
 19 20  1  0  0  0
 20 21  1  0  0  0
 21 23  1  0  0  0
 23 24  2  0  0  0
 24 25  1  0  0  0
 25 26  2  0  0  0
 26 29  1  0  0  0
 29 30  1  0  0  0
 30 31  1  0  0  0
 31 32  1  0  0  0
 32 33  1  0  0  0
 33 34  1  0  0  0
 34 35  1  0  0  0
 35 36  1  0  0  0
 36 37  1  0  0  0
 37 38  1  0  0  0
 26 27  1  0  0  0
 27 28  2  0  0  0
 12  2  1  0  0  0
 19 13  1  0  0  0
 28 23  1  0  0  0
 11  5  1  0  0  0
 38 32  1  0  0  0
 21  6  1  0  0  0
  1 22  1  0  0  0
M  END
> <minimizedAffinity>
23.09365

> <CNNscore>
0.3672113717

> <CNNaffinity>
7.7965574265

> <CNN_VS>
2.8629846573

> <CNNaffinity_variance>
0.5858862400

$$$$
[H]Oc1c([H])c([H])c2c(c1[H])C([H])([H])C([H])([H])[C@@]([H])(c1c([H])c([H])c([H])c([H])c1[H])[C@@]2([H])c1c([H])c([H])c(OC([H])([H])C([H])([H])N2C([H])([H])C([H])(C([H])([H])F)C2([H])[H])c([H])c1F


 34 38  0  0  0  0  0  0  0  0999 V2000
    5.9578   50.8223  129.8695 O   0  0  0  0  0  0  0  0  0  0  0  0
    6.9360   49.8574  129.9741 C   0  0  0  0  0  0  0  0  0  0  0  0
    6.7230   48.5785  129.5103 C   0  0  0  0  0  0  0  0  0  0  0  0
    7.6960   47.5986  129.6086 C   0  0  0  0  0  0  0  0  0  0  0  0
    8.8778   47.9123  130.1730 C   0  0  0  0  0  0  0  0  0  0  0  0
    9.9941   46.9448  130.3323 C   0  0  0  0  0  0  0  0  0  0  0  0
   10.5554   46.8988  131.6892 C   0  0  0  0  0  0  0  0  0  0  0  0
   10.8910   48.2999  132.2098 C   0  0  0  0  0  0  0  0  0  0  0  0
   10.4848   49.3987  131.2611 C   0  0  0  0  0  0  0  0  0  0  0  0
    9.1390   49.1786  130.6520 C   0  0  0  0  0  0  0  0  0  0  0  0
    8.1645   50.1364  130.5466 C   0  0  0  0  0  0  0  0  0  0  0  0
    6.1257   51.7590  130.2140 H   0  0  0  0  0  0  0  0  0  0  0  0
    9.8990   45.7114  129.5918 C   0  0  0  0  0  0  0  0  0  0  0  0
    9.2538   44.5475  129.9493 C   0  0  0  0  0  0  0  0  0  0  0  0
    9.1950   43.4137  129.1818 C   0  0  0  0  0  0  0  0  0  0  0  0
    9.8211   43.3812  127.9290 C   0  0  0  0  0  0  0  0  0  0  0  0
   10.4789   44.5209  127.5239 C   0  0  0  0  0  0  0  0  0  0  0  0
   10.5129   45.6367  128.3269 C   0  0  0  0  0  0  0  0  0  0  0  0
   11.1724   46.7102  127.8604 F   0  0  0  0  0  0  0  0  0  0  0  0
    9.7259   42.2278  127.2148 O   0  0  0  0  0  0  0  0  0  0  0  0
   10.2363   40.9584  127.4052 C   0  0  0  0  0  0  0  0  0  0  0  0
   10.0053   39.9585  126.3284 C   0  0  0  0  0  0  0  0  0  0  0  0
   10.8639   38.8327  126.3608 N   0  0  0  0  0  0  0  0  0  0  0  0
   11.4813   38.3231  125.2133 C   0  0  0  0  0  0  0  0  0  0  0  0
   12.8383   38.5773  125.8078 C   0  0  0  0  0  0  0  0  0  0  0  0
   12.0813   38.8647  127.0723 C   0  0  0  0  0  0  0  0  0  0  0  0
   13.5684   39.8030  125.2847 C   0  0  0  0  0  0  0  0  0  0  0  0
   12.5865   40.5927  124.6796 F   0  0  0  0  0  0  0  0  0  0  0  0
    9.8941   46.1940  132.7717 C   0  0  0  0  0  0  0  0  0  0  0  0
    8.6187   45.6310  132.6021 C   0  0  0  0  0  0  0  0  0  0  0  0
    7.9974   44.9349  133.6116 C   0  0  0  0  0  0  0  0  0  0  0  0
    8.6064   44.7641  134.8307 C   0  0  0  0  0  0  0  0  0  0  0  0
    9.8506   45.2975  135.0374 C   0  0  0  0  0  0  0  0  0  0  0  0
   10.4500   45.9942  133.9990 C   0  0  0  0  0  0  0  0  0  0  0  0
  1  2  1  0  0  0
  2  3  2  0  0  0
  3  4  1  0  0  0
  4  5  2  0  0  0
  5  6  1  0  0  0
  6  7  1  0  0  0
  7  8  1  0  0  0
  8  9  1  0  0  0
  9 10  1  0  0  0
 10 11  2  0  0  0
  7 29  1  0  0  0
 29 30  2  0  0  0
 30 31  1  0  0  0
 31 32  2  0  0  0
 32 33  1  0  0  0
 33 34  2  0  0  0
  6 13  1  0  0  0
 13 14  2  0  0  0
 14 15  1  0  0  0
 15 16  2  0  0  0
 16 20  1  0  0  0
 20 21  1  0  0  0
 21 22  1  0  0  0
 22 23  1  0  0  0
 23 24  1  0  0  0
 24 25  1  0  0  0
 25 27  1  0  0  0
 27 28  1  0  0  0
 25 26  1  0  0  0
 16 17  1  0  0  0
 17 18  2  0  0  0
 18 19  1  0  0  0
 11  2  1  0  0  0
 34 29  1  0  0  0
 18 13  1  0  0  0
 10  5  1  0  0  0
 26 23  1  0  0  0
  1 12  1  0  0  0
M  END
> <minimizedAffinity>
8.88373

> <CNNscore>
0.4427253604

> <CNNaffinity>
7.9434738159

> <CNN_VS>
3.5167772770

> <CNNaffinity_variance>
1.6502907276

$$$$
[H]Oc1c([H])c([H])c2c(c1[H])C([H])([H])C([H])([H])[C@@]([H])(c1c([H])c([H])c([H])c([H])c1[H])[C@@]2([H])c1c([H])c([H])c(OC([H])([H])C([H])([H])N2C([H])([H])C([H])(C([H])([H])F)C2([H])[H])c([H])c1F


 34 38  0  0  0  0  0  0  0  0999 V2000
    7.1459   51.3924  128.5975 O   0  0  0  0  0  0  0  0  0  0  0  0
    7.4642   50.1973  129.2054 C   0  0  0  0  0  0  0  0  0  0  0  0
    8.7083   49.9928  129.7592 C   0  0  0  0  0  0  0  0  0  0  0  0
    9.0427   48.7978  130.3729 C   0  0  0  0  0  0  0  0  0  0  0  0
    8.1224   47.8158  130.4255 C   0  0  0  0  0  0  0  0  0  0  0  0
    8.3678   46.4936  131.0573 C   0  0  0  0  0  0  0  0  0  0  0  0
    8.0022   45.3501  130.2104 C   0  0  0  0  0  0  0  0  0  0  0  0
    6.5861   45.4960  129.6444 C   0  0  0  0  0  0  0  0  0  0  0  0
    5.9358   46.8079  130.0029 C   0  0  0  0  0  0  0  0  0  0  0  0
    6.8634   47.9726  129.8857 C   0  0  0  0  0  0  0  0  0  0  0  0
    6.5493   49.1621  129.2819 C   0  0  0  0  0  0  0  0  0  0  0  0
    6.2283   51.5313  128.1938 H   0  0  0  0  0  0  0  0  0  0  0  0
    9.5371   46.3767  131.8926 C   0  0  0  0  0  0  0  0  0  0  0  0
   10.8175   46.8174  131.6372 C   0  0  0  0  0  0  0  0  0  0  0  0
   11.8806   46.6814  132.4912 C   0  0  0  0  0  0  0  0  0  0  0  0
   11.7081   46.0547  133.7322 C   0  0  0  0  0  0  0  0  0  0  0  0
   10.4455   45.5975  134.0367 C   0  0  0  0  0  0  0  0  0  0  0  0
    9.4071   45.7550  133.1492 C   0  0  0  0  0  0  0  0  0  0  0  0
    8.2045   45.2847  133.5201 F   0  0  0  0  0  0  0  0  0  0  0  0
   12.8008   45.9516  134.5352 O   0  0  0  0  0  0  0  0  0  0  0  0
   13.3261   46.7673  135.5184 C   0  0  0  0  0  0  0  0  0  0  0  0
   12.6810   48.0914  135.7272 C   0  0  0  0  0  0  0  0  0  0  0  0
   13.5197   49.0858  136.2869 N   0  0  0  0  0  0  0  0  0  0  0  0
   13.5552   49.3558  137.6593 C   0  0  0  0  0  0  0  0  0  0  0  0
   15.0146   48.9994  137.7106 C   0  0  0  0  0  0  0  0  0  0  0  0
   14.9242   48.9815  136.2119 C   0  0  0  0  0  0  0  0  0  0  0  0
   15.3392   47.6294  138.2825 C   0  0  0  0  0  0  0  0  0  0  0  0
   15.8621   46.8936  137.2153 F   0  0  0  0  0  0  0  0  0  0  0  0
    8.8473   44.8985  129.1207 C   0  0  0  0  0  0  0  0  0  0  0  0
    9.7172   45.7811  128.4600 C   0  0  0  0  0  0  0  0  0  0  0  0
   10.5442   45.3561  127.4475 C   0  0  0  0  0  0  0  0  0  0  0  0
   10.5489   44.0435  127.0432 C   0  0  0  0  0  0  0  0  0  0  0  0
    9.7154   43.1502  127.6616 C   0  0  0  0  0  0  0  0  0  0  0  0
    8.8936   43.6108  128.6792 C   0  0  0  0  0  0  0  0  0  0  0  0
  1  2  1  0  0  0
  2  3  2  0  0  0
  3  4  1  0  0  0
  4  5  2  0  0  0
  5  6  1  0  0  0
  6  7  1  0  0  0
  7  8  1  0  0  0
  8  9  1  0  0  0
  9 10  1  0  0  0
 10 11  2  0  0  0
  7 29  1  0  0  0
 29 30  2  0  0  0
 30 31  1  0  0  0
 31 32  2  0  0  0
 32 33  1  0  0  0
 33 34  2  0  0  0
  6 13  1  0  0  0
 13 14  2  0  0  0
 14 15  1  0  0  0
 15 16  2  0  0  0
 16 20  1  0  0  0
 20 21  1  0  0  0
 21 22  1  0  0  0
 22 23  1  0  0  0
 23 24  1  0  0  0
 24 25  1  0  0  0
 25 27  1  0  0  0
 27 28  1  0  0  0
 25 26  1  0  0  0
 16 17  1  0  0  0
 17 18  2  0  0  0
 18 19  1  0  0  0
 11  2  1  0  0  0
 34 29  1  0  0  0
 18 13  1  0  0  0
 10  5  1  0  0  0
 26 23  1  0  0  0
  1 12  1  0  0  0
M  END
> <minimizedAffinity>
13.74585

> <CNNscore>
0.4170696735

> <CNNaffinity>
7.7840700150

> <CNN_VS>
3.2464995384

> <CNNaffinity_variance>
2.0908801556

$$$$
[H]Oc1c([H])c([H])c2c(c1[H])C([H])([H])C([H])([H])[C@@]([H])(c1c([H])c([H])c([H])c([H])c1[H])[C@@]2([H])c1c([H])c([H])c(OC([H])([H])C([H])([H])N2C([H])([H])C([H])(C([H])([H])F)C2([H])[H])c([H])c1F


 34 38  0  0  0  0  0  0  0  0999 V2000
    8.6134   42.3259  126.2336 O   0  0  0  0  0  0  0  0  0  0  0  0
    9.2800   43.1599  127.1049 C   0  0  0  0  0  0  0  0  0  0  0  0
    9.3157   42.8922  128.4552 C   0  0  0  0  0  0  0  0  0  0  0  0
    9.9809   43.7207  129.3427 C   0  0  0  0  0  0  0  0  0  0  0  0
   10.6064   44.8137  128.8653 C   0  0  0  0  0  0  0  0  0  0  0  0
   11.3505   45.7734  129.7214 C   0  0  0  0  0  0  0  0  0  0  0  0
   10.9861   47.1791  129.4987 C   0  0  0  0  0  0  0  0  0  0  0  0
   11.0212   47.5432  128.0110 C   0  0  0  0  0  0  0  0  0  0  0  0
   11.3241   46.3664  127.1190 C   0  0  0  0  0  0  0  0  0  0  0  0
   10.5994   45.1242  127.5219 C   0  0  0  0  0  0  0  0  0  0  0  0
    9.9360   44.2931  126.6575 C   0  0  0  0  0  0  0  0  0  0  0  0
    8.5939   42.5328  125.2431 H   0  0  0  0  0  0  0  0  0  0  0  0
   11.6484   45.3516  131.0675 C   0  0  0  0  0  0  0  0  0  0  0  0
   12.1774   44.1513  131.4897 C   0  0  0  0  0  0  0  0  0  0  0  0
   12.4472   43.8264  132.7935 C   0  0  0  0  0  0  0  0  0  0  0  0
   12.1849   44.7485  133.8151 C   0  0  0  0  0  0  0  0  0  0  0  0
   11.6570   45.9651  133.4452 C   0  0  0  0  0  0  0  0  0  0  0  0
   11.4014   46.2488  132.1242 C   0  0  0  0  0  0  0  0  0  0  0  0
   10.8888   47.4584  131.8430 F   0  0  0  0  0  0  0  0  0  0  0  0
   12.4755   44.3673  135.0878 O   0  0  0  0  0  0  0  0  0  0  0  0
   11.7930   43.6144  136.0234 C   0  0  0  0  0  0  0  0  0  0  0  0
   10.4523   43.0964  135.6401 C   0  0  0  0  0  0  0  0  0  0  0  0
   10.1166   43.2537  134.2733 N   0  0  0  0  0  0  0  0  0  0  0  0
    9.6737   42.1901  133.4794 C   0  0  0  0  0  0  0  0  0  0  0  0
    8.3729   42.8987  133.2233 C   0  0  0  0  0  0  0  0  0  0  0  0
    9.0402   44.0742  133.8769 C   0  0  0  0  0  0  0  0  0  0  0  0
    7.1809   42.3981  134.0218 C   0  0  0  0  0  0  0  0  0  0  0  0
    7.2076   41.0059  133.8997 F   0  0  0  0  0  0  0  0  0  0  0  0
    9.7712   47.7548  130.0450 C   0  0  0  0  0  0  0  0  0  0  0  0
    9.7526   49.0603  130.5621 C   0  0  0  0  0  0  0  0  0  0  0  0
    8.5997   49.6254  131.0532 C   0  0  0  0  0  0  0  0  0  0  0  0
    7.4165   48.9280  131.0555 C   0  0  0  0  0  0  0  0  0  0  0  0
    7.3915   47.6517  130.5601 C   0  0  0  0  0  0  0  0  0  0  0  0
    8.5714   47.1106  130.0723 C   0  0  0  0  0  0  0  0  0  0  0  0
  1  2  1  0  0  0
  2  3  2  0  0  0
  3  4  1  0  0  0
  4  5  2  0  0  0
  5  6  1  0  0  0
  6  7  1  0  0  0
  7  8  1  0  0  0
  8  9  1  0  0  0
  9 10  1  0  0  0
 10 11  2  0  0  0
  7 29  1  0  0  0
 29 30  2  0  0  0
 30 31  1  0  0  0
 31 32  2  0  0  0
 32 33  1  0  0  0
 33 34  2  0  0  0
  6 13  1  0  0  0
 13 14  2  0  0  0
 14 15  1  0  0  0
 15 16  2  0  0  0
 16 20  1  0  0  0
 20 21  1  0  0  0
 21 22  1  0  0  0
 22 23  1  0  0  0
 23 24  1  0  0  0
 24 25  1  0  0  0
 25 27  1  0  0  0
 27 28  1  0  0  0
 25 26  1  0  0  0
 16 17  1  0  0  0
 17 18  2  0  0  0
 18 19  1  0  0  0
 11  2  1  0  0  0
 34 29  1  0  0  0
 18 13  1  0  0  0
 10  5  1  0  0  0
 26 23  1  0  0  0
  1 12  1  0  0  0
M  END
> <minimizedAffinity>
12.01717

> <CNNscore>
0.4101750553

> <CNNaffinity>
7.7361974716

> <CNN_VS>
3.1731951237

> <CNNaffinity_variance>
1.6238015890

$$$$
[H]Oc1c([H])c([H])c2c(c1[H])C([H])([H])C([H])([H])[C@@]([H])(c1c([H])c([H])c([H])c([H])c1[H])[C@@]2([H])c1c([H])c([H])c(OC([H])([H])C([H])([H])N2C([H])([H])C([H])(C([H])([H])F)C2([H])[H])c([H])c1F


 34 38  0  0  0  0  0  0  0  0999 V2000
   10.9652   43.0986  126.5123 O   0  0  0  0  0  0  0  0  0  0  0  0
   10.5147   43.4714  127.7601 C   0  0  0  0  0  0  0  0  0  0  0  0
   10.8117   44.7115  128.2799 C   0  0  0  0  0  0  0  0  0  0  0  0
   10.3665   45.1000  129.5318 C   0  0  0  0  0  0  0  0  0  0  0  0
    9.6245   44.2378  130.2529 C   0  0  0  0  0  0  0  0  0  0  0  0
    9.0928   44.5445  131.6059 C   0  0  0  0  0  0  0  0  0  0  0  0
    9.3672   43.5033  132.6055 C   0  0  0  0  0  0  0  0  0  0  0  0
    8.9664   42.1141  132.0991 C   0  0  0  0  0  0  0  0  0  0  0  0
    8.4776   42.1203  130.6731 C   0  0  0  0  0  0  0  0  0  0  0  0
    9.3005   42.9854  129.7757 C   0  0  0  0  0  0  0  0  0  0  0  0
    9.7496   42.6172  128.5345 C   0  0  0  0  0  0  0  0  0  0  0  0
   10.7406   42.1845  126.1406 H   0  0  0  0  0  0  0  0  0  0  0  0
    9.1373   45.9225  132.0274 C   0  0  0  0  0  0  0  0  0  0  0  0
    9.4850   47.0318  131.2876 C   0  0  0  0  0  0  0  0  0  0  0  0
    9.4900   48.3195  131.7565 C   0  0  0  0  0  0  0  0  0  0  0  0
    9.1214   48.5851  133.0817 C   0  0  0  0  0  0  0  0  0  0  0  0
    8.7630   47.5097  133.8633 C   0  0  0  0  0  0  0  0  0  0  0  0
    8.7727   46.2335  133.3514 C   0  0  0  0  0  0  0  0  0  0  0  0
    8.4075   45.2374  134.1757 F   0  0  0  0  0  0  0  0  0  0  0  0
    9.1454   49.8831  133.4867 O   0  0  0  0  0  0  0  0  0  0  0  0
    9.4891   51.0606  132.8515 C   0  0  0  0  0  0  0  0  0  0  0  0
    9.2458   51.1450  131.3865 C   0  0  0  0  0  0  0  0  0  0  0  0
    8.2739   50.2442  130.8867 N   0  0  0  0  0  0  0  0  0  0  0  0
    6.9002   50.4976  130.9672 C   0  0  0  0  0  0  0  0  0  0  0  0
    6.7857   50.4552  129.4690 C   0  0  0  0  0  0  0  0  0  0  0  0
    8.1971   49.9444  129.5107 C   0  0  0  0  0  0  0  0  0  0  0  0
    6.6836   51.8041  128.7769 C   0  0  0  0  0  0  0  0  0  0  0  0
    5.6448   51.6712  127.8511 F   0  0  0  0  0  0  0  0  0  0  0  0
   10.6677   43.3639  133.2339 C   0  0  0  0  0  0  0  0  0  0  0  0
   11.7951   42.9700  132.4948 C   0  0  0  0  0  0  0  0  0  0  0  0
   13.0372   42.8652  133.0745 C   0  0  0  0  0  0  0  0  0  0  0  0
   13.2209   43.1441  134.4067 C   0  0  0  0  0  0  0  0  0  0  0  0
   12.1472   43.5315  135.1632 C   0  0  0  0  0  0  0  0  0  0  0  0
   10.9079   43.6273  134.5485 C   0  0  0  0  0  0  0  0  0  0  0  0
  1  2  1  0  0  0
  2  3  2  0  0  0
  3  4  1  0  0  0
  4  5  2  0  0  0
  5  6  1  0  0  0
  6  7  1  0  0  0
  7  8  1  0  0  0
  8  9  1  0  0  0
  9 10  1  0  0  0
 10 11  2  0  0  0
  7 29  1  0  0  0
 29 30  2  0  0  0
 30 31  1  0  0  0
 31 32  2  0  0  0
 32 33  1  0  0  0
 33 34  2  0  0  0
  6 13  1  0  0  0
 13 14  2  0  0  0
 14 15  1  0  0  0
 15 16  2  0  0  0
 16 20  1  0  0  0
 20 21  1  0  0  0
 21 22  1  0  0  0
 22 23  1  0  0  0
 23 24  1  0  0  0
 24 25  1  0  0  0
 25 27  1  0  0  0
 27 28  1  0  0  0
 25 26  1  0  0  0
 16 17  1  0  0  0
 17 18  2  0  0  0
 18 19  1  0  0  0
 11  2  1  0  0  0
 34 29  1  0  0  0
 18 13  1  0  0  0
 10  5  1  0  0  0
 26 23  1  0  0  0
  1 12  1  0  0  0
M  END
> <minimizedAffinity>
7.30402

> <CNNscore>
0.4053079784

> <CNNaffinity>
8.1771135330

> <CNN_VS>
3.3142492771

> <CNNaffinity_variance>
2.3333771229

$$$$
[H]Oc1c([H])c([H])c2c(c1[H])C([H])([H])C([H])([H])[C@@]([H])(c1c([H])c([H])c([H])c([H])c1[H])[C@@]2([H])c1c([H])c([H])c(OC([H])([H])C([H])([H])N2C([H])([H])C([H])(C([H])([H])F)C2([H])[H])c([H])c1F


 34 38  0  0  0  0  0  0  0  0999 V2000
    7.3994   41.7262  134.0040 O   0  0  0  0  0  0  0  0  0  0  0  0
    8.1743   42.8022  133.6288 C   0  0  0  0  0  0  0  0  0  0  0  0
    7.7023   43.7391  132.7368 C   0  0  0  0  0  0  0  0  0  0  0  0
    8.4691   44.8250  132.3503 C   0  0  0  0  0  0  0  0  0  0  0  0
    9.7064   44.9614  132.8644 C   0  0  0  0  0  0  0  0  0  0  0  0
   10.6180   46.0839  132.5234 C   0  0  0  0  0  0  0  0  0  0  0  0
   11.9697   45.6587  132.1353 C   0  0  0  0  0  0  0  0  0  0  0  0
   12.5683   44.6813  133.1517 C   0  0  0  0  0  0  0  0  0  0  0  0
   11.6092   44.3094  134.2536 C   0  0  0  0  0  0  0  0  0  0  0  0
   10.2233   44.0502  133.7609 C   0  0  0  0  0  0  0  0  0  0  0  0
    9.4506   42.9811  134.1325 C   0  0  0  0  0  0  0  0  0  0  0  0
    7.7569   41.0439  134.6604 H   0  0  0  0  0  0  0  0  0  0  0  0
   10.0362   47.2124  131.8404 C   0  0  0  0  0  0  0  0  0  0  0  0
    9.4858   47.2564  130.5779 C   0  0  0  0  0  0  0  0  0  0  0  0
    8.9360   48.3700  129.9984 C   0  0  0  0  0  0  0  0  0  0  0  0
    8.9046   49.5827  130.6992 C   0  0  0  0  0  0  0  0  0  0  0  0
    9.4409   49.5914  131.9672 C   0  0  0  0  0  0  0  0  0  0  0  0
    9.9830   48.4500  132.5097 C   0  0  0  0  0  0  0  0  0  0  0  0
   10.4841   48.5382  133.7532 F   0  0  0  0  0  0  0  0  0  0  0  0
    8.3449   50.6509  130.0707 O   0  0  0  0  0  0  0  0  0  0  0  0
    7.8453   50.8371  128.7964 C   0  0  0  0  0  0  0  0  0  0  0  0
    7.4033   49.6285  128.0504 C   0  0  0  0  0  0  0  0  0  0  0  0
    6.1586   49.0919  128.4609 N   0  0  0  0  0  0  0  0  0  0  0  0
    5.9552   48.5507  129.7350 C   0  0  0  0  0  0  0  0  0  0  0  0
    4.8874   49.5702  130.0180 C   0  0  0  0  0  0  0  0  0  0  0  0
    5.0110   49.9059  128.5597 C   0  0  0  0  0  0  0  0  0  0  0  0
    5.3013   50.7282  130.9106 C   0  0  0  0  0  0  0  0  0  0  0  0
    4.1187   51.1903  131.4953 F   0  0  0  0  0  0  0  0  0  0  0  0
   12.2597   45.1261  130.8169 C   0  0  0  0  0  0  0  0  0  0  0  0
   13.5766   44.8422  130.4198 C   0  0  0  0  0  0  0  0  0  0  0  0
   13.8585   44.3085  129.1848 C   0  0  0  0  0  0  0  0  0  0  0  0
   12.8548   44.0320  128.2889 C   0  0  0  0  0  0  0  0  0  0  0  0
   11.5567   44.2940  128.6370 C   0  0  0  0  0  0  0  0  0  0  0  0
   11.3059   44.8325  129.8901 C   0  0  0  0  0  0  0  0  0  0  0  0
  1  2  1  0  0  0
  2  3  2  0  0  0
  3  4  1  0  0  0
  4  5  2  0  0  0
  5  6  1  0  0  0
  6  7  1  0  0  0
  7  8  1  0  0  0
  8  9  1  0  0  0
  9 10  1  0  0  0
 10 11  2  0  0  0
  7 29  1  0  0  0
 29 30  2  0  0  0
 30 31  1  0  0  0
 31 32  2  0  0  0
 32 33  1  0  0  0
 33 34  2  0  0  0
  6 13  1  0  0  0
 13 14  2  0  0  0
 14 15  1  0  0  0
 15 16  2  0  0  0
 16 20  1  0  0  0
 20 21  1  0  0  0
 21 22  1  0  0  0
 22 23  1  0  0  0
 23 24  1  0  0  0
 24 25  1  0  0  0
 25 27  1  0  0  0
 27 28  1  0  0  0
 25 26  1  0  0  0
 16 17  1  0  0  0
 17 18  2  0  0  0
 18 19  1  0  0  0
 11  2  1  0  0  0
 34 29  1  0  0  0
 18 13  1  0  0  0
 10  5  1  0  0  0
 26 23  1  0  0  0
  1 12  1  0  0  0
M  END
> <minimizedAffinity>
5.62942

> <CNNscore>
0.3869278431

> <CNNaffinity>
7.8071885109

> <CNN_VS>
3.0208187103

> <CNNaffinity_variance>
0.8703900576

$$$$
[H]Oc1c([H])c([H])c2c(c1[H])C([H])([H])C([H])([H])[C@@]([H])(c1c([H])c([H])c([H])c([H])c1[H])[C@@]2([H])c1c([H])c([H])c(OC([H])([H])C([H])([H])N2C([H])([H])C([H])(C([H])([H])F)C2([H])[H])c([H])c1F


 34 38  0  0  0  0  0  0  0  0999 V2000
    4.9515   51.3367  129.8758 O   0  0  0  0  0  0  0  0  0  0  0  0
    6.0358   50.4950  129.9978 C   0  0  0  0  0  0  0  0  0  0  0  0
    5.9673   49.1850  129.5787 C   0  0  0  0  0  0  0  0  0  0  0  0
    7.0480   48.3276  129.6951 C   0  0  0  0  0  0  0  0  0  0  0  0
    8.1913   48.7943  130.2325 C   0  0  0  0  0  0  0  0  0  0  0  0
    9.4135   47.9678  130.4074 C   0  0  0  0  0  0  0  0  0  0  0  0
    9.9901   48.0326  131.7572 C   0  0  0  0  0  0  0  0  0  0  0  0
   10.1668   49.4798  132.2274 C   0  0  0  0  0  0  0  0  0  0  0  0
    9.6266   50.4918  131.2493 C   0  0  0  0  0  0  0  0  0  0  0  0
    8.3092   50.0977  130.6665 C   0  0  0  0  0  0  0  0  0  0  0  0
    7.2295   50.9327  130.5438 C   0  0  0  0  0  0  0  0  0  0  0  0
    5.0135   52.2975  130.1873 H   0  0  0  0  0  0  0  0  0  0  0  0
    9.4541   46.7073  129.7088 C   0  0  0  0  0  0  0  0  0  0  0  0
    8.4014   45.8903  129.3578 C   0  0  0  0  0  0  0  0  0  0  0  0
    8.5181   44.7062  128.6777 C   0  0  0  0  0  0  0  0  0  0  0  0
    9.7809   44.2443  128.2847 C   0  0  0  0  0  0  0  0  0  0  0  0
   10.8667   45.0259  128.6100 C   0  0  0  0  0  0  0  0  0  0  0  0
   10.7034   46.2075  129.2941 C   0  0  0  0  0  0  0  0  0  0  0  0
   11.8111   46.9152  129.5723 F   0  0  0  0  0  0  0  0  0  0  0  0
    9.8305   43.0635  127.6120 O   0  0  0  0  0  0  0  0  0  0  0  0
    9.8460   41.7454  128.0250 C   0  0  0  0  0  0  0  0  0  0  0  0
    9.1816   41.4243  129.3166 C   0  0  0  0  0  0  0  0  0  0  0  0
    9.4464   42.3334  130.3698 N   0  0  0  0  0  0  0  0  0  0  0  0
    9.2422   42.0076  131.7151 C   0  0  0  0  0  0  0  0  0  0  0  0
   10.6994   42.2302  132.0094 C   0  0  0  0  0  0  0  0  0  0  0  0
   10.7544   42.7976  130.6203 C   0  0  0  0  0  0  0  0  0  0  0  0
   11.5430   40.9742  132.1503 C   0  0  0  0  0  0  0  0  0  0  0  0
   10.6309   39.9283  132.3174 F   0  0  0  0  0  0  0  0  0  0  0  0
    9.4258   47.2934  132.8711 C   0  0  0  0  0  0  0  0  0  0  0  0
    8.3244   46.4398  132.6952 C   0  0  0  0  0  0  0  0  0  0  0  0
    7.8023   45.7117  133.7377 C   0  0  0  0  0  0  0  0  0  0  0  0
    8.3433   45.7938  134.9975 C   0  0  0  0  0  0  0  0  0  0  0  0
    9.4181   46.6147  135.2116 C   0  0  0  0  0  0  0  0  0  0  0  0
    9.9209   47.3358  134.1392 C   0  0  0  0  0  0  0  0  0  0  0  0
  1  2  1  0  0  0
  2  3  2  0  0  0
  3  4  1  0  0  0
  4  5  2  0  0  0
  5  6  1  0  0  0
  6  7  1  0  0  0
  7  8  1  0  0  0
  8  9  1  0  0  0
  9 10  1  0  0  0
 10 11  2  0  0  0
  7 29  1  0  0  0
 29 30  2  0  0  0
 30 31  1  0  0  0
 31 32  2  0  0  0
 32 33  1  0  0  0
 33 34  2  0  0  0
  6 13  1  0  0  0
 13 14  2  0  0  0
 14 15  1  0  0  0
 15 16  2  0  0  0
 16 20  1  0  0  0
 20 21  1  0  0  0
 21 22  1  0  0  0
 22 23  1  0  0  0
 23 24  1  0  0  0
 24 25  1  0  0  0
 25 27  1  0  0  0
 27 28  1  0  0  0
 25 26  1  0  0  0
 16 17  1  0  0  0
 17 18  2  0  0  0
 18 19  1  0  0  0
 11  2  1  0  0  0
 34 29  1  0  0  0
 18 13  1  0  0  0
 10  5  1  0  0  0
 26 23  1  0  0  0
  1 12  1  0  0  0
M  END
> <minimizedAffinity>
4.59825

> <CNNscore>
0.3637440503

> <CNNaffinity>
7.9938392639

> <CNN_VS>
2.9077115059

> <CNNaffinity_variance>
1.2623724937

$$$$
[H]Oc1c([H])c([H])c2c(c1[H])C([H])([H])C([H])([H])[C@@]([H])(c1c([H])c([H])c([H])c([H])c1[H])[C@@]2([H])c1c([H])c([H])c(OC([H])([H])C([H])([H])N2C([H])([H])C([H])(C([H])([H])F)C2([H])[H])c([H])c1F


 34 38  0  0  0  0  0  0  0  0999 V2000
    3.0849   48.5000  129.5779 O   0  0  0  0  0  0  0  0  0  0  0  0
    4.4214   48.1670  129.5344 C   0  0  0  0  0  0  0  0  0  0  0  0
    4.8969   47.0550  130.1929 C   0  0  0  0  0  0  0  0  0  0  0  0
    6.2366   46.7080  130.1587 C   0  0  0  0  0  0  0  0  0  0  0  0
    7.0897   47.4825  129.4614 C   0  0  0  0  0  0  0  0  0  0  0  0
    8.5461   47.2091  129.3538 C   0  0  0  0  0  0  0  0  0  0  0  0
    9.3953   48.3700  129.6531 C   0  0  0  0  0  0  0  0  0  0  0  0
    8.9537   49.6102  128.8698 C   0  0  0  0  0  0  0  0  0  0  0  0
    7.7060   49.3842  128.0545 C   0  0  0  0  0  0  0  0  0  0  0  0
    6.6619   48.6055  128.7854 C   0  0  0  0  0  0  0  0  0  0  0  0
    5.3323   48.9343  128.8301 C   0  0  0  0  0  0  0  0  0  0  0  0
    2.7469   49.3197  129.0900 H   0  0  0  0  0  0  0  0  0  0  0  0
    8.9983   45.9069  129.7761 C   0  0  0  0  0  0  0  0  0  0  0  0
    8.3806   45.0249  130.6359 C   0  0  0  0  0  0  0  0  0  0  0  0
    8.8681   43.7914  130.9808 C   0  0  0  0  0  0  0  0  0  0  0  0
   10.0832   43.3428  130.4469 C   0  0  0  0  0  0  0  0  0  0  0  0
   10.7400   44.1870  129.5799 C   0  0  0  0  0  0  0  0  0  0  0  0
   10.2141   45.4171  129.2618 C   0  0  0  0  0  0  0  0  0  0  0  0
   10.9129   46.1822  128.4065 F   0  0  0  0  0  0  0  0  0  0  0  0
   10.5129   42.1097  130.8266 O   0  0  0  0  0  0  0  0  0  0  0  0
   11.3218   41.6714  131.8569 C   0  0  0  0  0  0  0  0  0  0  0  0
   12.3379   42.6223  132.3823 C   0  0  0  0  0  0  0  0  0  0  0  0
   12.1114   43.0714  133.7062 N   0  0  0  0  0  0  0  0  0  0  0  0
   12.3357   44.3948  134.1012 C   0  0  0  0  0  0  0  0  0  0  0  0
   10.8891   44.5462  134.4808 C   0  0  0  0  0  0  0  0  0  0  0  0
   10.8178   43.0615  134.2679 C   0  0  0  0  0  0  0  0  0  0  0  0
   10.0243   45.3101  133.4921 C   0  0  0  0  0  0  0  0  0  0  0  0
    8.7383   45.3061  134.0398 F   0  0  0  0  0  0  0  0  0  0  0  0
    9.6565   48.8017  131.0137 C   0  0  0  0  0  0  0  0  0  0  0  0
    9.2294   50.0580  131.4737 C   0  0  0  0  0  0  0  0  0  0  0  0
    9.4448   50.4632  132.7695 C   0  0  0  0  0  0  0  0  0  0  0  0
   10.0900   49.6477  133.6667 C   0  0  0  0  0  0  0  0  0  0  0  0
   10.5227   48.4144  133.2584 C   0  0  0  0  0  0  0  0  0  0  0  0
   10.2900   48.0357  131.9448 C   0  0  0  0  0  0  0  0  0  0  0  0
  1  2  1  0  0  0
  2  3  2  0  0  0
  3  4  1  0  0  0
  4  5  2  0  0  0
  5  6  1  0  0  0
  6  7  1  0  0  0
  7  8  1  0  0  0
  8  9  1  0  0  0
  9 10  1  0  0  0
 10 11  2  0  0  0
  7 29  1  0  0  0
 29 30  2  0  0  0
 30 31  1  0  0  0
 31 32  2  0  0  0
 32 33  1  0  0  0
 33 34  2  0  0  0
  6 13  1  0  0  0
 13 14  2  0  0  0
 14 15  1  0  0  0
 15 16  2  0  0  0
 16 20  1  0  0  0
 20 21  1  0  0  0
 21 22  1  0  0  0
 22 23  1  0  0  0
 23 24  1  0  0  0
 24 25  1  0  0  0
 25 27  1  0  0  0
 27 28  1  0  0  0
 25 26  1  0  0  0
 16 17  1  0  0  0
 17 18  2  0  0  0
 18 19  1  0  0  0
 11  2  1  0  0  0
 34 29  1  0  0  0
 18 13  1  0  0  0
 10  5  1  0  0  0
 26 23  1  0  0  0
  1 12  1  0  0  0
M  END
> <minimizedAffinity>
1.88098

> <CNNscore>
0.3631804883

> <CNNaffinity>
7.7781615257

> <CNN_VS>
2.8248765469

> <CNNaffinity_variance>
0.4213763177

$$$$
[H]Oc1c([H])c([H])c2c(c1[H])C([H])([H])C([H])([H])[C@@]([H])(c1c([H])c([H])c([H])c([H])c1[H])[C@@]2([H])c1c([H])c([H])c(OC([H])([H])C([H])([H])N2C([H])([H])C([H])(C([H])([H])F)C2([H])[H])c([H])c1F


 34 38  0  0  0  0  0  0  0  0999 V2000
   12.2701   43.7690  127.4846 O   0  0  0  0  0  0  0  0  0  0  0  0
   11.2356   44.3399  128.1937 C   0  0  0  0  0  0  0  0  0  0  0  0
   11.0905   45.7077  128.2588 C   0  0  0  0  0  0  0  0  0  0  0  0
   10.0567   46.2957  128.9673 C   0  0  0  0  0  0  0  0  0  0  0  0
    9.1748   45.5029  129.6058 C   0  0  0  0  0  0  0  0  0  0  0  0
    8.0277   46.0204  130.3956 C   0  0  0  0  0  0  0  0  0  0  0  0
    7.9189   45.4403  131.7411 C   0  0  0  0  0  0  0  0  0  0  0  0
    7.9860   43.9103  131.7039 C   0  0  0  0  0  0  0  0  0  0  0  0
    8.2415   43.3607  130.3237 C   0  0  0  0  0  0  0  0  0  0  0  0
    9.2776   44.1284  129.5701 C   0  0  0  0  0  0  0  0  0  0  0  0
   10.3072   43.5632  128.8641 C   0  0  0  0  0  0  0  0  0  0  0  0
   12.3667   42.7624  127.4438 H   0  0  0  0  0  0  0  0  0  0  0  0
    7.6927   47.4121  130.2244 C   0  0  0  0  0  0  0  0  0  0  0  0
    8.3033   48.5133  130.7842 C   0  0  0  0  0  0  0  0  0  0  0  0
    7.9347   49.8144  130.5619 C   0  0  0  0  0  0  0  0  0  0  0  0
    6.8620   50.1038  129.7085 C   0  0  0  0  0  0  0  0  0  0  0  0
    6.2186   49.0372  129.1217 C   0  0  0  0  0  0  0  0  0  0  0  0
    6.6221   47.7470  129.3735 C   0  0  0  0  0  0  0  0  0  0  0  0
    5.9458   46.7607  128.7612 F   0  0  0  0  0  0  0  0  0  0  0  0
    6.5459   51.4140  129.5276 O   0  0  0  0  0  0  0  0  0  0  0  0
    7.1939   52.4602  128.9002 C   0  0  0  0  0  0  0  0  0  0  0  0
    6.9074   52.6766  127.4567 C   0  0  0  0  0  0  0  0  0  0  0  0
    7.2395   53.9626  126.9652 N   0  0  0  0  0  0  0  0  0  0  0  0
    8.4207   54.2174  126.2598 C   0  0  0  0  0  0  0  0  0  0  0  0
    7.6306   54.6615  125.0606 C   0  0  0  0  0  0  0  0  0  0  0  0
    6.4482   54.5945  125.9835 C   0  0  0  0  0  0  0  0  0  0  0  0
    7.5314   53.6550  123.9265 C   0  0  0  0  0  0  0  0  0  0  0  0
    8.5522   53.9956  123.0344 F   0  0  0  0  0  0  0  0  0  0  0  0
    8.7670   45.8730  132.8362 C   0  0  0  0  0  0  0  0  0  0  0  0
   10.1645   45.9123  132.7033 C   0  0  0  0  0  0  0  0  0  0  0  0
   10.9743   46.3501  133.7242 C   0  0  0  0  0  0  0  0  0  0  0  0
   10.4413   46.7677  134.9191 C   0  0  0  0  0  0  0  0  0  0  0  0
    9.0828   46.7450  135.0898 C   0  0  0  0  0  0  0  0  0  0  0  0
    8.2939   46.2977  134.0407 C   0  0  0  0  0  0  0  0  0  0  0  0
  1  2  1  0  0  0
  2  3  2  0  0  0
  3  4  1  0  0  0
  4  5  2  0  0  0
  5  6  1  0  0  0
  6  7  1  0  0  0
  7  8  1  0  0  0
  8  9  1  0  0  0
  9 10  1  0  0  0
 10 11  2  0  0  0
  7 29  1  0  0  0
 29 30  2  0  0  0
 30 31  1  0  0  0
 31 32  2  0  0  0
 32 33  1  0  0  0
 33 34  2  0  0  0
  6 13  1  0  0  0
 13 14  2  0  0  0
 14 15  1  0  0  0
 15 16  2  0  0  0
 16 20  1  0  0  0
 20 21  1  0  0  0
 21 22  1  0  0  0
 22 23  1  0  0  0
 23 24  1  0  0  0
 24 25  1  0  0  0
 25 27  1  0  0  0
 27 28  1  0  0  0
 25 26  1  0  0  0
 16 17  1  0  0  0
 17 18  2  0  0  0
 18 19  1  0  0  0
 11  2  1  0  0  0
 34 29  1  0  0  0
 18 13  1  0  0  0
 10  5  1  0  0  0
 26 23  1  0  0  0
  1 12  1  0  0  0
M  END
> <minimizedAffinity>
-4.91037

> <CNNscore>
0.3600062728

> <CNNaffinity>
7.3737692833

> <CNN_VS>
2.6546032429

> <CNNaffinity_variance>
0.1648495644

$$$$
[H]Oc1c([H])c([H])c2c(c1[H])C([H])([H])C([H])([H])[C@@]([H])(c1c([H])c([H])c([H])c([H])c1[H])[C@@]2([H])c1c([H])c([H])c(OC([H])([H])C([H])([H])N2C([H])([H])C([H])(C([H])([H])F)C2([H])[H])c([H])c1F


 34 38  0  0  0  0  0  0  0  0999 V2000
    4.0222   50.1993  129.5427 O   0  0  0  0  0  0  0  0  0  0  0  0
    5.2788   49.6405  129.6310 C   0  0  0  0  0  0  0  0  0  0  0  0
    5.4737   48.2953  129.4104 C   0  0  0  0  0  0  0  0  0  0  0  0
    6.7298   47.7197  129.4958 C   0  0  0  0  0  0  0  0  0  0  0  0
    7.7823   48.5019  129.8026 C   0  0  0  0  0  0  0  0  0  0  0  0
    9.1742   47.9959  129.9219 C   0  0  0  0  0  0  0  0  0  0  0  0
    9.8542   48.4046  131.1585 C   0  0  0  0  0  0  0  0  0  0  0  0
    9.7373   49.9135  131.3956 C   0  0  0  0  0  0  0  0  0  0  0  0
    8.8806   50.6109  130.3698 C   0  0  0  0  0  0  0  0  0  0  0  0
    7.6382   49.8539  130.0321 C   0  0  0  0  0  0  0  0  0  0  0  0
    6.3876   50.4071  129.9434 C   0  0  0  0  0  0  0  0  0  0  0  0
    3.8911   51.1892  129.7070 H   0  0  0  0  0  0  0  0  0  0  0  0
    9.4347   46.6754  129.4053 C   0  0  0  0  0  0  0  0  0  0  0  0
   10.4313   46.2770  128.5411 C   0  0  0  0  0  0  0  0  0  0  0  0
   10.6251   44.9929  128.1030 C   0  0  0  0  0  0  0  0  0  0  0  0
    9.7742   43.9679  128.5363 C   0  0  0  0  0  0  0  0  0  0  0  0
    8.7620   44.3138  129.4033 C   0  0  0  0  0  0  0  0  0  0  0  0
    8.6041   45.6156  129.8169 C   0  0  0  0  0  0  0  0  0  0  0  0
    7.5948   45.8731  130.6655 F   0  0  0  0  0  0  0  0  0  0  0  0
   10.0190   42.7151  128.0672 O   0  0  0  0  0  0  0  0  0  0  0  0
   10.0242   41.4705  128.6662 C   0  0  0  0  0  0  0  0  0  0  0  0
    9.8021   41.4167  130.1361 C   0  0  0  0  0  0  0  0  0  0  0  0
   10.8330   41.9899  130.9200 N   0  0  0  0  0  0  0  0  0  0  0  0
   10.7835   43.3102  131.3804 C   0  0  0  0  0  0  0  0  0  0  0  0
   10.8353   42.8349  132.8055 C   0  0  0  0  0  0  0  0  0  0  0  0
   11.1344   41.4917  132.2046 C   0  0  0  0  0  0  0  0  0  0  0  0
    9.5126   42.8475  133.5535 C   0  0  0  0  0  0  0  0  0  0  0  0
    8.6644   43.6627  132.7986 F   0  0  0  0  0  0  0  0  0  0  0  0
    9.5930   47.7565  132.4303 C   0  0  0  0  0  0  0  0  0  0  0  0
   10.4377   46.7472  132.9203 C   0  0  0  0  0  0  0  0  0  0  0  0
   10.2162   46.1492  134.1381 C   0  0  0  0  0  0  0  0  0  0  0  0
    9.1531   46.5204  134.9245 C   0  0  0  0  0  0  0  0  0  0  0  0
    8.3051   47.5009  134.4834 C   0  0  0  0  0  0  0  0  0  0  0  0
    8.5561   48.0841  133.2505 C   0  0  0  0  0  0  0  0  0  0  0  0
  1  2  1  0  0  0
  2  3  2  0  0  0
  3  4  1  0  0  0
  4  5  2  0  0  0
  5  6  1  0  0  0
  6  7  1  0  0  0
  7  8  1  0  0  0
  8  9  1  0  0  0
  9 10  1  0  0  0
 10 11  2  0  0  0
  7 29  1  0  0  0
 29 30  2  0  0  0
 30 31  1  0  0  0
 31 32  2  0  0  0
 32 33  1  0  0  0
 33 34  2  0  0  0
  6 13  1  0  0  0
 13 14  2  0  0  0
 14 15  1  0  0  0
 15 16  2  0  0  0
 16 20  1  0  0  0
 20 21  1  0  0  0
 21 22  1  0  0  0
 22 23  1  0  0  0
 23 24  1  0  0  0
 24 25  1  0  0  0
 25 27  1  0  0  0
 27 28  1  0  0  0
 25 26  1  0  0  0
 16 17  1  0  0  0
 17 18  2  0  0  0
 18 19  1  0  0  0
 11  2  1  0  0  0
 34 29  1  0  0  0
 18 13  1  0  0  0
 10  5  1  0  0  0
 26 23  1  0  0  0
  1 12  1  0  0  0
M  END
> <minimizedAffinity>
-3.72133

> <CNNscore>
0.3550388813

> <CNNaffinity>
7.8999204636

> <CNN_VS>
2.8047788143

> <CNNaffinity_variance>
0.2547647059

$$$$
[H]c1c(N([H])C([H])([H])C([H])([H])N([H])C([H])([H])C([H])([H])C([H])([H])F)nc(OC([H])([H])[H])c([C@]2([H])c3c(c4c([H])c([H])c([H])c([H])c4n3[H])C([H])([H])[C@@]([H])(C([H])([H])[H])N2C([H])([H])C(F)(F)C([H])([H])[H])c1[H]


 38 41  0  0  0  0  0  0  0  0999 V2000
    8.6645   45.4002  130.8964 C   0  0  0  0  0  0  0  0  0  0  0  0
    9.6473   44.6916  130.0703 N   0  0  0  0  0  0  0  0  0  0  0  0
    9.6703   43.3467  130.5499 C   0  0  0  0  0  0  0  0  0  0  0  0
    8.2987   42.7634  130.8167 C   0  0  0  0  0  0  0  0  0  0  0  0
   10.5313   43.3270  131.8277 C   0  0  0  0  0  0  0  0  0  0  0  0
    9.9712   44.3395  132.7511 C   0  0  0  0  0  0  0  0  0  0  0  0
    9.0989   45.3074  132.3062 C   0  0  0  0  0  0  0  0  0  0  0  0
    8.7860   46.0541  133.3730 N   0  0  0  0  0  0  0  0  0  0  0  0
    9.4208   45.6003  134.4666 C   0  0  0  0  0  0  0  0  0  0  0  0
    9.4345   46.0106  135.7806 C   0  0  0  0  0  0  0  0  0  0  0  0
   10.1962   45.3503  136.7380 C   0  0  0  0  0  0  0  0  0  0  0  0
   10.9657   44.2540  136.3855 C   0  0  0  0  0  0  0  0  0  0  0  0
   10.9418   43.8558  135.0687 C   0  0  0  0  0  0  0  0  0  0  0  0
   10.1900   44.5071  134.1226 C   0  0  0  0  0  0  0  0  0  0  0  0
    8.1284   46.8800  133.3343 H   0  0  0  0  0  0  0  0  0  0  0  0
    7.2922   47.3235  130.1037 C   0  0  0  0  0  0  0  0  0  0  0  0
    7.1901   48.6055  129.7512 N   0  0  0  0  0  0  0  0  0  0  0  0
    8.2094   49.4718  129.7491 C   0  0  0  0  0  0  0  0  0  0  0  0
    9.4436   48.9876  130.1418 C   0  0  0  0  0  0  0  0  0  0  0  0
    9.5903   47.6691  130.5134 C   0  0  0  0  0  0  0  0  0  0  0  0
    8.5070   46.8242  130.4960 C   0  0  0  0  0  0  0  0  0  0  0  0
    5.0109   46.9362  129.4216 C   0  0  0  0  0  0  0  0  0  0  0  0
    6.1664   46.4923  130.0742 O   0  0  0  0  0  0  0  0  0  0  0  0
    8.0775   50.8315  129.3659 N   0  0  0  0  0  0  0  0  0  0  0  0
    8.9212   51.4721  129.4675 H   0  0  0  0  0  0  0  0  0  0  0  0
    6.8867   51.4385  128.8418 C   0  0  0  0  0  0  0  0  0  0  0  0
    7.1110   52.2739  127.6060 C   0  0  0  0  0  0  0  0  0  0  0  0
    7.0147   53.6901  127.8859 N   0  0  0  0  0  0  0  0  0  0  0  0
    6.0639   54.0262  128.0615 H   0  0  0  0  0  0  0  0  0  0  0  0
    7.7128   54.5136  126.9411 C   0  0  0  0  0  0  0  0  0  0  0  0
    7.0852   54.5686  125.5812 C   0  0  0  0  0  0  0  0  0  0  0  0
    8.1592   54.6471  124.5175 C   0  0  0  0  0  0  0  0  0  0  0  0
    8.1399   53.5302  123.7352 F   0  0  0  0  0  0  0  0  0  0  0  0
    9.3682   44.8804  128.6862 C   0  0  0  0  0  0  0  0  0  0  0  0
   10.4440   44.6754  127.6995 C   0  0  0  0  0  0  0  0  0  0  0  0
   11.7719   44.9732  128.4489 C   0  0  0  0  0  0  0  0  0  0  0  0
   10.5664   43.3726  127.2602 F   0  0  0  0  0  0  0  0  0  0  0  0
   10.4730   45.4848  126.6092 F   0  0  0  0  0  0  0  0  0  0  0  0
 22 23  1  0  0  0
 23 16  1  0  0  0
 16 17  2  0  0  0
 17 18  1  0  0  0
 18 24  1  0  0  0
 24 26  1  0  0  0
 26 27  1  0  0  0
 27 28  1  0  0  0
 28 30  1  0  0  0
 30 31  1  0  0  0
 31 32  1  0  0  0
 32 33  1  0  0  0
 18 19  2  0  0  0
 19 20  1  0  0  0
 20 21  2  0  0  0
 21  1  1  0  0  0
  1  2  1  0  0  0
  2 34  1  0  0  0
 34 35  1  0  0  0
 35 36  1  0  0  0
 35 37  1  0  0  0
 35 38  1  0  0  0
  2  3  1  0  0  0
  3  4  1  0  0  0
  3  5  1  0  0  0
  5  6  1  0  0  0
  6  7  2  0  0  0
  7  8  1  0  0  0
  8  9  1  0  0  0
  9 10  2  0  0  0
 10 11  1  0  0  0
 11 12  2  0  0  0
 12 13  1  0  0  0
 13 14  2  0  0  0
 21 16  1  0  0  0
  7  1  1  0  0  0
 14  9  1  0  0  0
 14  6  1  0  0  0
 24 25  1  0  0  0
 28 29  1  0  0  0
  8 15  1  0  0  0
M  END
> <minimizedAffinity>
-1.74924

> <CNNscore>
0.4358840585

> <CNNaffinity>
7.5940308571

> <CNN_VS>
3.3101170063

> <CNNaffinity_variance>
0.1931885183

$$$$
[H]c1c(N([H])C([H])([H])C([H])([H])N([H])C([H])([H])C([H])([H])C([H])([H])F)nc(OC([H])([H])[H])c([C@]2([H])c3c(c4c([H])c([H])c([H])c([H])c4n3[H])C([H])([H])[C@@]([H])(C([H])([H])[H])N2C([H])([H])C(F)(F)C([H])([H])[H])c1[H]


 38 41  0  0  0  0  0  0  0  0999 V2000
    9.8874   44.5776  130.7549 C   0  0  0  0  0  0  0  0  0  0  0  0
   11.2339   43.9970  130.7400 N   0  0  0  0  0  0  0  0  0  0  0  0
   11.0656   42.6171  130.4131 C   0  0  0  0  0  0  0  0  0  0  0  0
   10.0867   42.3652  129.2857 C   0  0  0  0  0  0  0  0  0  0  0  0
   10.6211   41.8895  131.6966 C   0  0  0  0  0  0  0  0  0  0  0  0
    9.4208   42.5905  132.2062 C   0  0  0  0  0  0  0  0  0  0  0  0
    9.0857   43.8494  131.7608 C   0  0  0  0  0  0  0  0  0  0  0  0
    7.9658   44.1946  132.4093 N   0  0  0  0  0  0  0  0  0  0  0  0
    7.5824   43.2114  133.2407 C   0  0  0  0  0  0  0  0  0  0  0  0
    6.5224   43.0780  134.1089 C   0  0  0  0  0  0  0  0  0  0  0  0
    6.3516   41.9289  134.8726 C   0  0  0  0  0  0  0  0  0  0  0  0
    7.2543   40.8832  134.7747 C   0  0  0  0  0  0  0  0  0  0  0  0
    8.3084   41.0311  133.9028 C   0  0  0  0  0  0  0  0  0  0  0  0
    8.4780   42.1653  133.1482 C   0  0  0  0  0  0  0  0  0  0  0  0
    7.4714   45.1176  132.2688 H   0  0  0  0  0  0  0  0  0  0  0  0
    9.1062   46.9122  130.3678 C   0  0  0  0  0  0  0  0  0  0  0  0
    9.1453   48.2109  130.6679 N   0  0  0  0  0  0  0  0  0  0  0  0
    9.9210   48.7434  131.6189 C   0  0  0  0  0  0  0  0  0  0  0  0
   10.7293   47.8737  132.3275 C   0  0  0  0  0  0  0  0  0  0  0  0
   10.7178   46.5248  132.0474 C   0  0  0  0  0  0  0  0  0  0  0  0
    9.9000   46.0337  131.0586 C   0  0  0  0  0  0  0  0  0  0  0  0
    6.9131   46.8274  129.3663 C   0  0  0  0  0  0  0  0  0  0  0  0
    8.2599   46.4479  129.3541 O   0  0  0  0  0  0  0  0  0  0  0  0
    9.9485   50.1301  131.9180 N   0  0  0  0  0  0  0  0  0  0  0  0
    9.7698   50.8232  131.1306 H   0  0  0  0  0  0  0  0  0  0  0  0
   10.1998   50.6993  133.2117 C   0  0  0  0  0  0  0  0  0  0  0  0
    9.0150   51.4129  133.8140 C   0  0  0  0  0  0  0  0  0  0  0  0
    9.2750   52.8227  134.0093 N   0  0  0  0  0  0  0  0  0  0  0  0
    9.8586   53.2526  133.2865 H   0  0  0  0  0  0  0  0  0  0  0  0
    9.7256   53.1484  135.3317 C   0  0  0  0  0  0  0  0  0  0  0  0
    8.7717   53.9901  136.1240 C   0  0  0  0  0  0  0  0  0  0  0  0
    7.4492   53.2701  136.2772 C   0  0  0  0  0  0  0  0  0  0  0  0
    7.6508   51.9742  136.6515 F   0  0  0  0  0  0  0  0  0  0  0  0
   12.0994   44.7592  129.9038 C   0  0  0  0  0  0  0  0  0  0  0  0
   13.5585   44.6026  130.0433 C   0  0  0  0  0  0  0  0  0  0  0  0
   14.1561   44.9117  128.6430 C   0  0  0  0  0  0  0  0  0  0  0  0
   14.1460   45.5187  130.8923 F   0  0  0  0  0  0  0  0  0  0  0  0
   14.0411   43.3736  130.3619 F   0  0  0  0  0  0  0  0  0  0  0  0
 22 23  1  0  0  0
 23 16  1  0  0  0
 16 17  2  0  0  0
 17 18  1  0  0  0
 18 24  1  0  0  0
 24 26  1  0  0  0
 26 27  1  0  0  0
 27 28  1  0  0  0
 28 30  1  0  0  0
 30 31  1  0  0  0
 31 32  1  0  0  0
 32 33  1  0  0  0
 18 19  2  0  0  0
 19 20  1  0  0  0
 20 21  2  0  0  0
 21  1  1  0  0  0
  1  2  1  0  0  0
  2 34  1  0  0  0
 34 35  1  0  0  0
 35 36  1  0  0  0
 35 37  1  0  0  0
 35 38  1  0  0  0
  2  3  1  0  0  0
  3  4  1  0  0  0
  3  5  1  0  0  0
  5  6  1  0  0  0
  6  7  2  0  0  0
  7  8  1  0  0  0
  8  9  1  0  0  0
  9 10  2  0  0  0
 10 11  1  0  0  0
 11 12  2  0  0  0
 12 13  1  0  0  0
 13 14  2  0  0  0
 21 16  1  0  0  0
  7  1  1  0  0  0
 14  9  1  0  0  0
 14  6  1  0  0  0
 24 25  1  0  0  0
 28 29  1  0  0  0
  8 15  1  0  0  0
M  END
> <minimizedAffinity>
24.43209

> <CNNscore>
0.4322843850

> <CNNaffinity>
7.8404951096

> <CNN_VS>
3.3893237114

> <CNNaffinity_variance>
2.7466285229

$$$$
[H]c1c(N([H])C([H])([H])C([H])([H])N([H])C([H])([H])C([H])([H])C([H])([H])F)nc(OC([H])([H])[H])c([C@]2([H])c3c(c4c([H])c([H])c([H])c([H])c4n3[H])C([H])([H])[C@@]([H])(C([H])([H])[H])N2C([H])([H])C(F)(F)C([H])([H])[H])c1[H]


 38 41  0  0  0  0  0  0  0  0999 V2000
   10.8948   46.1050  132.0179 C   0  0  0  0  0  0  0  0  0  0  0  0
   10.3378   45.0584  132.8810 N   0  0  0  0  0  0  0  0  0  0  0  0
   11.4360   44.5396  133.6320 C   0  0  0  0  0  0  0  0  0  0  0  0
   12.3644   45.6022  134.1814 C   0  0  0  0  0  0  0  0  0  0  0  0
   12.2013   43.5643  132.7169 C   0  0  0  0  0  0  0  0  0  0  0  0
   12.5467   44.3010  131.4801 C   0  0  0  0  0  0  0  0  0  0  0  0
   11.9290   45.4891  131.1600 C   0  0  0  0  0  0  0  0  0  0  0  0
   12.4586   45.8896  129.9969 N   0  0  0  0  0  0  0  0  0  0  0  0
   13.3795   45.0087  129.5720 C   0  0  0  0  0  0  0  0  0  0  0  0
   14.1899   44.9627  128.4600 C   0  0  0  0  0  0  0  0  0  0  0  0
   15.0779   43.9131  128.2536 C   0  0  0  0  0  0  0  0  0  0  0  0
   15.1665   42.8807  129.1725 C   0  0  0  0  0  0  0  0  0  0  0  0
   14.3504   42.9406  130.2787 C   0  0  0  0  0  0  0  0  0  0  0  0
   13.4733   43.9765  130.4835 C   0  0  0  0  0  0  0  0  0  0  0  0
   12.1748   46.7790  129.5023 H   0  0  0  0  0  0  0  0  0  0  0  0
    9.6023   48.1082  131.2920 C   0  0  0  0  0  0  0  0  0  0  0  0
    8.6625   48.6649  130.5270 N   0  0  0  0  0  0  0  0  0  0  0  0
    7.9233   47.9982  129.6332 C   0  0  0  0  0  0  0  0  0  0  0  0
    8.1640   46.6424  129.5081 C   0  0  0  0  0  0  0  0  0  0  0  0
    9.1265   46.0299  130.2804 C   0  0  0  0  0  0  0  0  0  0  0  0
    9.8559   46.7655  131.1830 C   0  0  0  0  0  0  0  0  0  0  0  0
    9.6571   49.8785  132.9298 C   0  0  0  0  0  0  0  0  0  0  0  0
   10.3260   48.8893  132.2004 O   0  0  0  0  0  0  0  0  0  0  0  0
    6.9255   48.6118  128.8325 N   0  0  0  0  0  0  0  0  0  0  0  0
    6.0375   48.0651  128.6201 H   0  0  0  0  0  0  0  0  0  0  0  0
    7.0020   49.9301  128.2694 C   0  0  0  0  0  0  0  0  0  0  0  0
    6.4435   51.0148  129.1566 C   0  0  0  0  0  0  0  0  0  0  0  0
    7.1285   52.2748  128.9666 N   0  0  0  0  0  0  0  0  0  0  0  0
    6.8605   53.0095  129.6272 H   0  0  0  0  0  0  0  0  0  0  0  0
    7.1170   52.7387  127.6092 C   0  0  0  0  0  0  0  0  0  0  0  0
    7.2157   54.2267  127.4596 C   0  0  0  0  0  0  0  0  0  0  0  0
    7.4508   54.5873  126.0086 C   0  0  0  0  0  0  0  0  0  0  0  0
    8.7612   54.4061  125.6770 F   0  0  0  0  0  0  0  0  0  0  0  0
    9.2264   45.5566  133.6198 C   0  0  0  0  0  0  0  0  0  0  0  0
    7.8942   44.9629  133.4059 C   0  0  0  0  0  0  0  0  0  0  0  0
    7.0184   45.4410  134.5967 C   0  0  0  0  0  0  0  0  0  0  0  0
    7.2454   45.4234  132.2780 F   0  0  0  0  0  0  0  0  0  0  0  0
    7.7889   43.6088  133.4207 F   0  0  0  0  0  0  0  0  0  0  0  0
 22 23  1  0  0  0
 23 16  1  0  0  0
 16 17  2  0  0  0
 17 18  1  0  0  0
 18 24  1  0  0  0
 24 26  1  0  0  0
 26 27  1  0  0  0
 27 28  1  0  0  0
 28 30  1  0  0  0
 30 31  1  0  0  0
 31 32  1  0  0  0
 32 33  1  0  0  0
 18 19  2  0  0  0
 19 20  1  0  0  0
 20 21  2  0  0  0
 21  1  1  0  0  0
  1  2  1  0  0  0
  2 34  1  0  0  0
 34 35  1  0  0  0
 35 36  1  0  0  0
 35 37  1  0  0  0
 35 38  1  0  0  0
  2  3  1  0  0  0
  3  4  1  0  0  0
  3  5  1  0  0  0
  5  6  1  0  0  0
  6  7  2  0  0  0
  7  8  1  0  0  0
  8  9  1  0  0  0
  9 10  2  0  0  0
 10 11  1  0  0  0
 11 12  2  0  0  0
 12 13  1  0  0  0
 13 14  2  0  0  0
 21 16  1  0  0  0
  7  1  1  0  0  0
 14  9  1  0  0  0
 14  6  1  0  0  0
 24 25  1  0  0  0
 28 29  1  0  0  0
  8 15  1  0  0  0
M  END
> <minimizedAffinity>
7.39676

> <CNNscore>
0.4156901240

> <CNNaffinity>
7.5301527977

> <CNN_VS>
3.1302101612

> <CNNaffinity_variance>
0.8167921305

$$$$
[H]c1c(N([H])C([H])([H])C([H])([H])N([H])C([H])([H])C([H])([H])C([H])([H])F)nc(OC([H])([H])[H])c([C@]2([H])c3c(c4c([H])c([H])c([H])c([H])c4n3[H])C([H])([H])[C@@]([H])(C([H])([H])[H])N2C([H])([H])C(F)(F)C([H])([H])[H])c1[H]


 38 41  0  0  0  0  0  0  0  0999 V2000
    9.7146   45.8554  132.1915 C   0  0  0  0  0  0  0  0  0  0  0  0
    8.6788   45.2298  133.0199 N   0  0  0  0  0  0  0  0  0  0  0  0
    9.1432   43.9094  133.3030 C   0  0  0  0  0  0  0  0  0  0  0  0
   10.6066   43.8389  133.6852 C   0  0  0  0  0  0  0  0  0  0  0  0
    8.8599   43.0442  132.0598 C   0  0  0  0  0  0  0  0  0  0  0  0
    9.4849   43.7213  130.9011 C   0  0  0  0  0  0  0  0  0  0  0  0
    9.8807   45.0381  130.9711 C   0  0  0  0  0  0  0  0  0  0  0  0
   10.3982   45.3419  129.7738 N   0  0  0  0  0  0  0  0  0  0  0  0
   10.3458   44.2777  128.9556 C   0  0  0  0  0  0  0  0  0  0  0  0
   10.7398   44.0772  127.6518 C   0  0  0  0  0  0  0  0  0  0  0  0
   10.5684   42.8488  127.0239 C   0  0  0  0  0  0  0  0  0  0  0  0
    9.9911   41.7897  127.7044 C   0  0  0  0  0  0  0  0  0  0  0  0
    9.6025   42.0053  129.0066 C   0  0  0  0  0  0  0  0  0  0  0  0
    9.7714   43.2178  129.6277 C   0  0  0  0  0  0  0  0  0  0  0  0
   10.7876   46.2936  129.5311 H   0  0  0  0  0  0  0  0  0  0  0  0
   10.1250   48.3107  132.3072 C   0  0  0  0  0  0  0  0  0  0  0  0
    9.7969   49.5568  131.9639 N   0  0  0  0  0  0  0  0  0  0  0  0
    8.7698   49.8755  131.1682 C   0  0  0  0  0  0  0  0  0  0  0  0
    8.0090   48.8298  130.6785 C   0  0  0  0  0  0  0  0  0  0  0  0
    8.3156   47.5283  131.0101 C   0  0  0  0  0  0  0  0  0  0  0  0
    9.3832   47.2603  131.8323 C   0  0  0  0  0  0  0  0  0  0  0  0
   12.1886   47.1446  132.7558 C   0  0  0  0  0  0  0  0  0  0  0  0
   11.2201   48.0758  133.1467 O   0  0  0  0  0  0  0  0  0  0  0  0
    8.4373   51.2100  130.8195 N   0  0  0  0  0  0  0  0  0  0  0  0
    9.1563   51.9748  130.9942 H   0  0  0  0  0  0  0  0  0  0  0  0
    7.1947   51.6357  130.2401 C   0  0  0  0  0  0  0  0  0  0  0  0
    6.0838   50.6206  130.3446 C   0  0  0  0  0  0  0  0  0  0  0  0
    5.9590   49.8297  129.1396 N   0  0  0  0  0  0  0  0  0  0  0  0
    5.9273   50.3745  128.2735 H   0  0  0  0  0  0  0  0  0  0  0  0
    4.9139   48.8487  129.1991 C   0  0  0  0  0  0  0  0  0  0  0  0
    5.3900   47.4460  129.4272 C   0  0  0  0  0  0  0  0  0  0  0  0
    4.3101   46.4615  129.0328 C   0  0  0  0  0  0  0  0  0  0  0  0
    3.4297   46.2812  130.0586 F   0  0  0  0  0  0  0  0  0  0  0  0
    8.3614   46.0571  134.1354 C   0  0  0  0  0  0  0  0  0  0  0  0
    9.3877   46.3051  135.1641 C   0  0  0  0  0  0  0  0  0  0  0  0
    9.0566   47.6970  135.7695 C   0  0  0  0  0  0  0  0  0  0  0  0
    9.3400   45.4310  136.2313 F   0  0  0  0  0  0  0  0  0  0  0  0
   10.6822   46.4006  134.7643 F   0  0  0  0  0  0  0  0  0  0  0  0
 22 23  1  0  0  0
 23 16  1  0  0  0
 16 17  2  0  0  0
 17 18  1  0  0  0
 18 24  1  0  0  0
 24 26  1  0  0  0
 26 27  1  0  0  0
 27 28  1  0  0  0
 28 30  1  0  0  0
 30 31  1  0  0  0
 31 32  1  0  0  0
 32 33  1  0  0  0
 18 19  2  0  0  0
 19 20  1  0  0  0
 20 21  2  0  0  0
 21  1  1  0  0  0
  1  2  1  0  0  0
  2 34  1  0  0  0
 34 35  1  0  0  0
 35 36  1  0  0  0
 35 37  1  0  0  0
 35 38  1  0  0  0
  2  3  1  0  0  0
  3  4  1  0  0  0
  3  5  1  0  0  0
  5  6  1  0  0  0
  6  7  2  0  0  0
  7  8  1  0  0  0
  8  9  1  0  0  0
  9 10  2  0  0  0
 10 11  1  0  0  0
 11 12  2  0  0  0
 12 13  1  0  0  0
 13 14  2  0  0  0
 21 16  1  0  0  0
  7  1  1  0  0  0
 14  9  1  0  0  0
 14  6  1  0  0  0
 24 25  1  0  0  0
 28 29  1  0  0  0
  8 15  1  0  0  0
M  END
> <minimizedAffinity>
3.75946

> <CNNscore>
0.3915183246

> <CNNaffinity>
8.0142450333

> <CNN_VS>
3.1377236843

> <CNNaffinity_variance>
0.7804754972

$$$$
[H]c1c(N([H])C([H])([H])C([H])([H])N([H])C([H])([H])C([H])([H])C([H])([H])F)nc(OC([H])([H])[H])c([C@]2([H])c3c(c4c([H])c([H])c([H])c([H])c4n3[H])C([H])([H])[C@@]([H])(C([H])([H])[H])N2C([H])([H])C(F)(F)C([H])([H])[H])c1[H]


 38 41  0  0  0  0  0  0  0  0999 V2000
    9.4263   44.9770  130.6183 C   0  0  0  0  0  0  0  0  0  0  0  0
   10.7585   44.5847  130.1474 N   0  0  0  0  0  0  0  0  0  0  0  0
   11.1034   43.4054  130.8751 C   0  0  0  0  0  0  0  0  0  0  0  0
    9.9787   42.3977  130.9855 C   0  0  0  0  0  0  0  0  0  0  0  0
   11.5808   43.8479  132.2718 C   0  0  0  0  0  0  0  0  0  0  0  0
   10.5102   44.6862  132.8573 C   0  0  0  0  0  0  0  0  0  0  0  0
    9.5062   45.2119  132.0755 C   0  0  0  0  0  0  0  0  0  0  0  0
    8.7131   45.9110  132.8976 N   0  0  0  0  0  0  0  0  0  0  0  0
    9.1722   45.8488  134.1586 C   0  0  0  0  0  0  0  0  0  0  0  0
    8.7266   46.3844  135.3460 C   0  0  0  0  0  0  0  0  0  0  0  0
    9.4028   46.1618  136.5402 C   0  0  0  0  0  0  0  0  0  0  0  0
   10.5513   45.3881  136.5601 C   0  0  0  0  0  0  0  0  0  0  0  0
   10.9842   44.8596  135.3658 C   0  0  0  0  0  0  0  0  0  0  0  0
   10.3174   45.0788  134.1861 C   0  0  0  0  0  0  0  0  0  0  0  0
    7.8516   46.4305  132.5750 H   0  0  0  0  0  0  0  0  0  0  0  0
    9.4406   47.4297  130.1773 C   0  0  0  0  0  0  0  0  0  0  0  0
    8.9540   48.4939  129.5376 N   0  0  0  0  0  0  0  0  0  0  0  0
    7.9614   48.4482  128.6420 C   0  0  0  0  0  0  0  0  0  0  0  0
    7.4159   47.2062  128.3745 C   0  0  0  0  0  0  0  0  0  0  0  0
    7.8908   46.0825  129.0146 C   0  0  0  0  0  0  0  0  0  0  0  0
    8.9133   46.1896  129.9261 C   0  0  0  0  0  0  0  0  0  0  0  0
   10.4198   48.6134  132.0372 C   0  0  0  0  0  0  0  0  0  0  0  0
   10.4835   47.5771  131.0992 O   0  0  0  0  0  0  0  0  0  0  0  0
    7.4572   49.5954  127.9764 N   0  0  0  0  0  0  0  0  0  0  0  0
    7.1238   49.4937  126.9710 H   0  0  0  0  0  0  0  0  0  0  0  0
    7.3517   50.9098  128.5439 C   0  0  0  0  0  0  0  0  0  0  0  0
    7.4429   50.9425  130.0493 C   0  0  0  0  0  0  0  0  0  0  0  0
    6.1708   50.6528  130.6744 N   0  0  0  0  0  0  0  0  0  0  0  0
    6.0424   51.0781  131.5967 H   0  0  0  0  0  0  0  0  0  0  0  0
    5.8300   49.2593  130.6702 C   0  0  0  0  0  0  0  0  0  0  0  0
    4.8223   48.8687  129.6317 C   0  0  0  0  0  0  0  0  0  0  0  0
    3.8581   50.0101  129.3902 C   0  0  0  0  0  0  0  0  0  0  0  0
    3.8526   50.3607  128.0722 F   0  0  0  0  0  0  0  0  0  0  0  0
   10.7824   44.4981  128.7257 C   0  0  0  0  0  0  0  0  0  0  0  0
    9.7995   43.6405  128.0392 C   0  0  0  0  0  0  0  0  0  0  0  0
   10.6055   42.4413  127.4684 C   0  0  0  0  0  0  0  0  0  0  0  0
    8.8617   43.0733  128.8783 F   0  0  0  0  0  0  0  0  0  0  0  0
    9.1405   44.1552  126.9689 F   0  0  0  0  0  0  0  0  0  0  0  0
 22 23  1  0  0  0
 23 16  1  0  0  0
 16 17  2  0  0  0
 17 18  1  0  0  0
 18 24  1  0  0  0
 24 26  1  0  0  0
 26 27  1  0  0  0
 27 28  1  0  0  0
 28 30  1  0  0  0
 30 31  1  0  0  0
 31 32  1  0  0  0
 32 33  1  0  0  0
 18 19  2  0  0  0
 19 20  1  0  0  0
 20 21  2  0  0  0
 21  1  1  0  0  0
  1  2  1  0  0  0
  2 34  1  0  0  0
 34 35  1  0  0  0
 35 36  1  0  0  0
 35 37  1  0  0  0
 35 38  1  0  0  0
  2  3  1  0  0  0
  3  4  1  0  0  0
  3  5  1  0  0  0
  5  6  1  0  0  0
  6  7  2  0  0  0
  7  8  1  0  0  0
  8  9  1  0  0  0
  9 10  2  0  0  0
 10 11  1  0  0  0
 11 12  2  0  0  0
 12 13  1  0  0  0
 13 14  2  0  0  0
 21 16  1  0  0  0
  7  1  1  0  0  0
 14  9  1  0  0  0
 14  6  1  0  0  0
 24 25  1  0  0  0
 28 29  1  0  0  0
  8 15  1  0  0  0
M  END
> <minimizedAffinity>
5.15797

> <CNNscore>
0.3790707886

> <CNNaffinity>
7.9751410484

> <CNN_VS>
3.0231430531

> <CNNaffinity_variance>
0.7079740763

$$$$
[H]c1c(N([H])C([H])([H])C([H])([H])N([H])C([H])([H])C([H])([H])C([H])([H])F)nc(OC([H])([H])[H])c([C@]2([H])c3c(c4c([H])c([H])c([H])c([H])c4n3[H])C([H])([H])[C@@]([H])(C([H])([H])[H])N2C([H])([H])C(F)(F)C([H])([H])[H])c1[H]


 38 41  0  0  0  0  0  0  0  0999 V2000
    8.2283   45.0690  130.8091 C   0  0  0  0  0  0  0  0  0  0  0  0
    9.2908   44.3272  130.1226 N   0  0  0  0  0  0  0  0  0  0  0  0
    9.4417   43.1003  130.8377 C   0  0  0  0  0  0  0  0  0  0  0  0
    8.1318   42.4376  131.2088 C   0  0  0  0  0  0  0  0  0  0  0  0
   10.2795   43.3993  132.0958 C   0  0  0  0  0  0  0  0  0  0  0  0
    9.6052   44.4991  132.8220 C   0  0  0  0  0  0  0  0  0  0  0  0
    8.6471   45.2767  132.2114 C   0  0  0  0  0  0  0  0  0  0  0  0
    8.2432   46.1676  133.1263 N   0  0  0  0  0  0  0  0  0  0  0  0
    8.9028   45.9856  134.2823 C   0  0  0  0  0  0  0  0  0  0  0  0
    8.8538   46.6253  135.5004 C   0  0  0  0  0  0  0  0  0  0  0  0
    9.6627   46.2298  136.5596 C   0  0  0  0  0  0  0  0  0  0  0  0
   10.5444   45.1724  136.4096 C   0  0  0  0  0  0  0  0  0  0  0  0
   10.5821   44.5429  135.1866 C   0  0  0  0  0  0  0  0  0  0  0  0
    9.7838   44.9327  134.1401 C   0  0  0  0  0  0  0  0  0  0  0  0
    7.5063   46.9014  132.9402 H   0  0  0  0  0  0  0  0  0  0  0  0
    8.8636   47.3812  130.1307 C   0  0  0  0  0  0  0  0  0  0  0  0
    8.5636   48.5376  129.5382 N   0  0  0  0  0  0  0  0  0  0  0  0
    7.3920   48.8030  128.9495 C   0  0  0  0  0  0  0  0  0  0  0  0
    6.4411   47.7994  128.9663 C   0  0  0  0  0  0  0  0  0  0  0  0
    6.7126   46.5904  129.5684 C   0  0  0  0  0  0  0  0  0  0  0  0
    7.9345   46.3738  130.1581 C   0  0  0  0  0  0  0  0  0  0  0  0
   10.5551   48.1060  131.6906 C   0  0  0  0  0  0  0  0  0  0  0  0
   10.1193   47.1962  130.7208 O   0  0  0  0  0  0  0  0  0  0  0  0
    7.0939   50.0434  128.3283 N   0  0  0  0  0  0  0  0  0  0  0  0
    7.1853   50.1167  127.2706 H   0  0  0  0  0  0  0  0  0  0  0  0
    6.6708   51.2356  129.0069 C   0  0  0  0  0  0  0  0  0  0  0  0
    7.4004   52.4839  128.5769 C   0  0  0  0  0  0  0  0  0  0  0  0
    6.7140   53.1686  127.5031 N   0  0  0  0  0  0  0  0  0  0  0  0
    6.3563   52.5548  126.7661 H   0  0  0  0  0  0  0  0  0  0  0  0
    7.4432   54.2836  126.9708 C   0  0  0  0  0  0  0  0  0  0  0  0
    7.4947   54.3352  125.4739 C   0  0  0  0  0  0  0  0  0  0  0  0
    8.8997   54.6609  125.0146 C   0  0  0  0  0  0  0  0  0  0  0  0
    8.9893   54.5811  123.6561 F   0  0  0  0  0  0  0  0  0  0  0  0
    9.0165   44.2338  128.7279 C   0  0  0  0  0  0  0  0  0  0  0  0
   10.1272   43.9911  127.7895 C   0  0  0  0  0  0  0  0  0  0  0  0
   11.3976   44.5649  128.4754 C   0  0  0  0  0  0  0  0  0  0  0  0
   10.4072   42.6560  127.5793 F   0  0  0  0  0  0  0  0  0  0  0  0
   10.0832   44.6013  126.5769 F   0  0  0  0  0  0  0  0  0  0  0  0
 22 23  1  0  0  0
 23 16  1  0  0  0
 16 17  2  0  0  0
 17 18  1  0  0  0
 18 24  1  0  0  0
 24 26  1  0  0  0
 26 27  1  0  0  0
 27 28  1  0  0  0
 28 30  1  0  0  0
 30 31  1  0  0  0
 31 32  1  0  0  0
 32 33  1  0  0  0
 18 19  2  0  0  0
 19 20  1  0  0  0
 20 21  2  0  0  0
 21  1  1  0  0  0
  1  2  1  0  0  0
  2 34  1  0  0  0
 34 35  1  0  0  0
 35 36  1  0  0  0
 35 37  1  0  0  0
 35 38  1  0  0  0
  2  3  1  0  0  0
  3  4  1  0  0  0
  3  5  1  0  0  0
  5  6  1  0  0  0
  6  7  2  0  0  0
  7  8  1  0  0  0
  8  9  1  0  0  0
  9 10  2  0  0  0
 10 11  1  0  0  0
 11 12  2  0  0  0
 12 13  1  0  0  0
 13 14  2  0  0  0
 21 16  1  0  0  0
  7  1  1  0  0  0
 14  9  1  0  0  0
 14  6  1  0  0  0
 24 25  1  0  0  0
 28 29  1  0  0  0
  8 15  1  0  0  0
M  END
> <minimizedAffinity>
-2.69669

> <CNNscore>
0.3773844242

> <CNNaffinity>
7.6049170494

> <CNN_VS>
2.8699772358

> <CNNaffinity_variance>
0.1353804171

$$$$
[H]c1c(N([H])C([H])([H])C([H])([H])N([H])C([H])([H])C([H])([H])C([H])([H])F)nc(OC([H])([H])[H])c([C@]2([H])c3c(c4c([H])c([H])c([H])c([H])c4n3[H])C([H])([H])[C@@]([H])(C([H])([H])[H])N2C([H])([H])C(F)(F)C([H])([H])[H])c1[H]


 38 41  0  0  0  0  0  0  0  0999 V2000
    9.4005   45.7021  132.4363 C   0  0  0  0  0  0  0  0  0  0  0  0
   10.5460   45.6885  133.3518 N   0  0  0  0  0  0  0  0  0  0  0  0
   10.1695   46.4960  134.4678 C   0  0  0  0  0  0  0  0  0  0  0  0
    8.7614   46.2441  134.9642 C   0  0  0  0  0  0  0  0  0  0  0  0
   10.3482   47.9691  134.0528 C   0  0  0  0  0  0  0  0  0  0  0  0
    9.5720   48.1728  132.8087 C   0  0  0  0  0  0  0  0  0  0  0  0
    9.1336   47.1057  132.0573 C   0  0  0  0  0  0  0  0  0  0  0  0
    8.4750   47.6237  131.0125 N   0  0  0  0  0  0  0  0  0  0  0  0
    8.4795   48.9657  131.0729 C   0  0  0  0  0  0  0  0  0  0  0  0
    7.9520   49.9426  130.2587 C   0  0  0  0  0  0  0  0  0  0  0  0
    8.1024   51.2923  130.5557 C   0  0  0  0  0  0  0  0  0  0  0  0
    8.7937   51.6865  131.6892 C   0  0  0  0  0  0  0  0  0  0  0  0
    9.3150   50.6990  132.4931 C   0  0  0  0  0  0  0  0  0  0  0  0
    9.1671   49.3659  132.2008 C   0  0  0  0  0  0  0  0  0  0  0  0
    8.0230   47.0372  130.2589 H   0  0  0  0  0  0  0  0  0  0  0  0
    8.5921   44.4587  130.4336 C   0  0  0  0  0  0  0  0  0  0  0  0
    8.8398   43.7164  129.3537 N   0  0  0  0  0  0  0  0  0  0  0  0
   10.0608   43.3315  128.9656 C   0  0  0  0  0  0  0  0  0  0  0  0
   11.1247   43.7401  129.7486 C   0  0  0  0  0  0  0  0  0  0  0  0
   10.9103   44.5079  130.8722 C   0  0  0  0  0  0  0  0  0  0  0  0
    9.6332   44.8737  131.2228 C   0  0  0  0  0  0  0  0  0  0  0  0
    6.6199   45.7726  129.9825 C   0  0  0  0  0  0  0  0  0  0  0  0
    7.2777   44.8127  130.7595 O   0  0  0  0  0  0  0  0  0  0  0  0
   10.2997   42.5378  127.8140 N   0  0  0  0  0  0  0  0  0  0  0  0
   11.1204   42.7894  127.1851 H   0  0  0  0  0  0  0  0  0  0  0  0
    9.5217   41.4017  127.4081 C   0  0  0  0  0  0  0  0  0  0  0  0
   10.1624   40.5682  126.3262 C   0  0  0  0  0  0  0  0  0  0  0  0
   10.7518   39.3571  126.8544 N   0  0  0  0  0  0  0  0  0  0  0  0
   10.5884   39.2040  127.8533 H   0  0  0  0  0  0  0  0  0  0  0  0
   12.1313   39.1850  126.5002 C   0  0  0  0  0  0  0  0  0  0  0  0
   12.4337   37.9048  125.7819 C   0  0  0  0  0  0  0  0  0  0  0  0
   11.9758   37.9977  124.3422 C   0  0  0  0  0  0  0  0  0  0  0  0
   10.6138   38.0132  124.2737 F   0  0  0  0  0  0  0  0  0  0  0  0
   10.9512   44.3510  133.6281 C   0  0  0  0  0  0  0  0  0  0  0  0
   12.1747   44.1168  134.4162 C   0  0  0  0  0  0  0  0  0  0  0  0
   13.1278   45.2980  134.0846 C   0  0  0  0  0  0  0  0  0  0  0  0
   11.9874   44.1818  135.7822 F   0  0  0  0  0  0  0  0  0  0  0  0
   12.9015   43.0006  134.1503 F   0  0  0  0  0  0  0  0  0  0  0  0
 22 23  1  0  0  0
 23 16  1  0  0  0
 16 17  2  0  0  0
 17 18  1  0  0  0
 18 24  1  0  0  0
 24 26  1  0  0  0
 26 27  1  0  0  0
 27 28  1  0  0  0
 28 30  1  0  0  0
 30 31  1  0  0  0
 31 32  1  0  0  0
 32 33  1  0  0  0
 18 19  2  0  0  0
 19 20  1  0  0  0
 20 21  2  0  0  0
 21  1  1  0  0  0
  1  2  1  0  0  0
  2 34  1  0  0  0
 34 35  1  0  0  0
 35 36  1  0  0  0
 35 37  1  0  0  0
 35 38  1  0  0  0
  2  3  1  0  0  0
  3  4  1  0  0  0
  3  5  1  0  0  0
  5  6  1  0  0  0
  6  7  2  0  0  0
  7  8  1  0  0  0
  8  9  1  0  0  0
  9 10  2  0  0  0
 10 11  1  0  0  0
 11 12  2  0  0  0
 12 13  1  0  0  0
 13 14  2  0  0  0
 21 16  1  0  0  0
  7  1  1  0  0  0
 14  9  1  0  0  0
 14  6  1  0  0  0
 24 25  1  0  0  0
 28 29  1  0  0  0
  8 15  1  0  0  0
M  END
> <minimizedAffinity>
13.34981

> <CNNscore>
0.3717232347

> <CNNaffinity>
7.8428316116

> <CNN_VS>
2.9153628349

> <CNNaffinity_variance>
0.8253887296

$$$$
[H]c1c(N([H])C([H])([H])C([H])([H])N([H])C([H])([H])C([H])([H])C([H])([H])F)nc(OC([H])([H])[H])c([C@]2([H])c3c(c4c([H])c([H])c([H])c([H])c4n3[H])C([H])([H])[C@@]([H])(C([H])([H])[H])N2C([H])([H])C(F)(F)C([H])([H])[H])c1[H]


 38 41  0  0  0  0  0  0  0  0999 V2000
    8.6299   44.2904  130.8229 C   0  0  0  0  0  0  0  0  0  0  0  0
    9.4384   43.1847  130.2992 N   0  0  0  0  0  0  0  0  0  0  0  0
    9.2887   42.1109  131.2287 C   0  0  0  0  0  0  0  0  0  0  0  0
    7.8649   41.8932  131.6956 C   0  0  0  0  0  0  0  0  0  0  0  0
   10.2180   42.4013  132.4230 C   0  0  0  0  0  0  0  0  0  0  0  0
    9.8787   43.7517  132.9260 C   0  0  0  0  0  0  0  0  0  0  0  0
    9.1359   44.6302  132.1695 C   0  0  0  0  0  0  0  0  0  0  0  0
    9.0096   45.7455  132.9001 N   0  0  0  0  0  0  0  0  0  0  0  0
    9.6381   45.6084  134.0794 C   0  0  0  0  0  0  0  0  0  0  0  0
    9.7990   46.4473  135.1591 C   0  0  0  0  0  0  0  0  0  0  0  0
   10.5126   46.0510  136.2845 C   0  0  0  0  0  0  0  0  0  0  0  0
   11.0828   44.7902  136.3432 C   0  0  0  0  0  0  0  0  0  0  0  0
   10.9134   43.9632  135.2567 C   0  0  0  0  0  0  0  0  0  0  0  0
   10.2090   44.3535  134.1450 C   0  0  0  0  0  0  0  0  0  0  0  0
    8.4834   46.6010  132.5723 H   0  0  0  0  0  0  0  0  0  0  0  0
    7.5155   46.1523  129.5974 C   0  0  0  0  0  0  0  0  0  0  0  0
    7.5857   47.2210  128.8030 N   0  0  0  0  0  0  0  0  0  0  0  0
    8.7223   47.7126  128.2969 C   0  0  0  0  0  0  0  0  0  0  0  0
    9.8923   47.0556  128.6308 C   0  0  0  0  0  0  0  0  0  0  0  0
    9.8617   45.9476  129.4490 C   0  0  0  0  0  0  0  0  0  0  0  0
    8.6640   45.4870  129.9400 C   0  0  0  0  0  0  0  0  0  0  0  0
    5.1497   46.5196  129.8934 C   0  0  0  0  0  0  0  0  0  0  0  0
    6.2773   45.7121  130.0793 O   0  0  0  0  0  0  0  0  0  0  0  0
    8.7721   48.8497  127.4498 N   0  0  0  0  0  0  0  0  0  0  0  0
    9.6849   49.0709  126.9495 H   0  0  0  0  0  0  0  0  0  0  0  0
    7.6828   49.7502  127.1978 C   0  0  0  0  0  0  0  0  0  0  0  0
    7.7716   51.0542  127.9510 C   0  0  0  0  0  0  0  0  0  0  0  0
    6.4858   51.4677  128.4696 N   0  0  0  0  0  0  0  0  0  0  0  0
    5.9779   52.1271  127.8737 H   0  0  0  0  0  0  0  0  0  0  0  0
    6.5267   51.8971  129.8378 C   0  0  0  0  0  0  0  0  0  0  0  0
    7.1522   50.9135  130.7798 C   0  0  0  0  0  0  0  0  0  0  0  0
    7.1815   49.5380  130.1488 C   0  0  0  0  0  0  0  0  0  0  0  0
    6.0504   49.3232  129.4177 F   0  0  0  0  0  0  0  0  0  0  0  0
    9.1018   42.9167  128.9412 C   0  0  0  0  0  0  0  0  0  0  0  0
   10.0977   43.1790  127.8865 C   0  0  0  0  0  0  0  0  0  0  0  0
   10.9204   41.8691  127.7421 C   0  0  0  0  0  0  0  0  0  0  0  0
    9.5528   43.3979  126.6374 F   0  0  0  0  0  0  0  0  0  0  0  0
   11.0242   44.1467  128.1098 F   0  0  0  0  0  0  0  0  0  0  0  0
 22 23  1  0  0  0
 23 16  1  0  0  0
 16 17  2  0  0  0
 17 18  1  0  0  0
 18 24  1  0  0  0
 24 26  1  0  0  0
 26 27  1  0  0  0
 27 28  1  0  0  0
 28 30  1  0  0  0
 30 31  1  0  0  0
 31 32  1  0  0  0
 32 33  1  0  0  0
 18 19  2  0  0  0
 19 20  1  0  0  0
 20 21  2  0  0  0
 21  1  1  0  0  0
  1  2  1  0  0  0
  2 34  1  0  0  0
 34 35  1  0  0  0
 35 36  1  0  0  0
 35 37  1  0  0  0
 35 38  1  0  0  0
  2  3  1  0  0  0
  3  4  1  0  0  0
  3  5  1  0  0  0
  5  6  1  0  0  0
  6  7  2  0  0  0
  7  8  1  0  0  0
  8  9  1  0  0  0
  9 10  2  0  0  0
 10 11  1  0  0  0
 11 12  2  0  0  0
 12 13  1  0  0  0
 13 14  2  0  0  0
 21 16  1  0  0  0
  7  1  1  0  0  0
 14  9  1  0  0  0
 14  6  1  0  0  0
 24 25  1  0  0  0
 28 29  1  0  0  0
  8 15  1  0  0  0
M  END
> <minimizedAffinity>
14.96835

> <CNNscore>
0.3548357189

> <CNNaffinity>
7.6287064552

> <CNN_VS>
2.7069375515

> <CNNaffinity_variance>
0.8520019650

$$$$
[H]c1c(N([H])C([H])([H])C([H])([H])N([H])C([H])([H])C([H])([H])C([H])([H])F)nc(OC([H])([H])[H])c([C@]2([H])c3c(c4c([H])c([H])c([H])c([H])c4n3[H])C([H])([H])[C@@]([H])(C([H])([H])[H])N2C([H])([H])C(F)(F)C([H])([H])[H])c1[H]


 38 41  0  0  0  0  0  0  0  0999 V2000
    9.0278   45.5760  131.6137 C   0  0  0  0  0  0  0  0  0  0  0  0
   10.2285   45.8872  132.3959 N   0  0  0  0  0  0  0  0  0  0  0  0
    9.8109   46.7942  133.4168 C   0  0  0  0  0  0  0  0  0  0  0  0
    8.5104   46.4090  134.0898 C   0  0  0  0  0  0  0  0  0  0  0  0
    9.7029   48.1917  132.7768 C   0  0  0  0  0  0  0  0  0  0  0  0
    8.8064   48.0706  131.6050 C   0  0  0  0  0  0  0  0  0  0  0  0
    8.4968   46.8421  131.0661 C   0  0  0  0  0  0  0  0  0  0  0  0
    7.6782   47.0776  130.0325 N   0  0  0  0  0  0  0  0  0  0  0  0
    7.4595   48.3961  129.8975 C   0  0  0  0  0  0  0  0  0  0  0  0
    6.7103   49.1362  129.0107 C   0  0  0  0  0  0  0  0  0  0  0  0
    6.6525   50.5228  129.0919 C   0  0  0  0  0  0  0  0  0  0  0  0
    7.3553   51.1958  130.0774 C   0  0  0  0  0  0  0  0  0  0  0  0
    8.0995   50.4427  130.9563 C   0  0  0  0  0  0  0  0  0  0  0  0
    8.1572   49.0735  130.8770 C   0  0  0  0  0  0  0  0  0  0  0  0
    7.2736   46.3151  129.4234 H   0  0  0  0  0  0  0  0  0  0  0  0
    8.7753   43.3444  130.5336 C   0  0  0  0  0  0  0  0  0  0  0  0
    9.0420   42.5066  129.5309 N   0  0  0  0  0  0  0  0  0  0  0  0
    9.8042   42.8112  128.4746 C   0  0  0  0  0  0  0  0  0  0  0  0
   10.3428   44.0841  128.4371 C   0  0  0  0  0  0  0  0  0  0  0  0
   10.0908   44.9790  129.4538 C   0  0  0  0  0  0  0  0  0  0  0  0
    9.2998   44.6107  130.5151 C   0  0  0  0  0  0  0  0  0  0  0  0
    8.5676   42.5197  132.7911 C   0  0  0  0  0  0  0  0  0  0  0  0
    7.9646   42.9343  131.5984 O   0  0  0  0  0  0  0  0  0  0  0  0
   10.0774   41.9011  127.4208 N   0  0  0  0  0  0  0  0  0  0  0  0
   10.0837   42.2678  126.4219 H   0  0  0  0  0  0  0  0  0  0  0  0
   10.3526   40.5010  127.5784 C   0  0  0  0  0  0  0  0  0  0  0  0
    9.8721   39.6438  126.4339 C   0  0  0  0  0  0  0  0  0  0  0  0
   10.9675   39.1710  125.6155 N   0  0  0  0  0  0  0  0  0  0  0  0
   10.6827   38.6475  124.7831 H   0  0  0  0  0  0  0  0  0  0  0  0
   11.9902   38.4913  126.3573 C   0  0  0  0  0  0  0  0  0  0  0  0
   13.3746   38.6645  125.8099 C   0  0  0  0  0  0  0  0  0  0  0  0
   13.3701   39.7017  124.7076 C   0  0  0  0  0  0  0  0  0  0  0  0
   13.3730   40.9596  125.2346 F   0  0  0  0  0  0  0  0  0  0  0  0
   10.8758   44.6907  132.8184 C   0  0  0  0  0  0  0  0  0  0  0  0
   12.3488   44.6378  132.8422 C   0  0  0  0  0  0  0  0  0  0  0  0
   12.7231   43.1345  132.7253 C   0  0  0  0  0  0  0  0  0  0  0  0
   12.9529   45.2415  131.7579 F   0  0  0  0  0  0  0  0  0  0  0  0
   12.9849   45.0666  133.9630 F   0  0  0  0  0  0  0  0  0  0  0  0
 22 23  1  0  0  0
 23 16  1  0  0  0
 16 17  2  0  0  0
 17 18  1  0  0  0
 18 24  1  0  0  0
 24 26  1  0  0  0
 26 27  1  0  0  0
 27 28  1  0  0  0
 28 30  1  0  0  0
 30 31  1  0  0  0
 31 32  1  0  0  0
 32 33  1  0  0  0
 18 19  2  0  0  0
 19 20  1  0  0  0
 20 21  2  0  0  0
 21  1  1  0  0  0
  1  2  1  0  0  0
  2 34  1  0  0  0
 34 35  1  0  0  0
 35 36  1  0  0  0
 35 37  1  0  0  0
 35 38  1  0  0  0
  2  3  1  0  0  0
  3  4  1  0  0  0
  3  5  1  0  0  0
  5  6  1  0  0  0
  6  7  2  0  0  0
  7  8  1  0  0  0
  8  9  1  0  0  0
  9 10  2  0  0  0
 10 11  1  0  0  0
 11 12  2  0  0  0
 12 13  1  0  0  0
 13 14  2  0  0  0
 21 16  1  0  0  0
  7  1  1  0  0  0
 14  9  1  0  0  0
 14  6  1  0  0  0
 24 25  1  0  0  0
 28 29  1  0  0  0
  8 15  1  0  0  0
M  END
> <minimizedAffinity>
3.84465

> <CNNscore>
0.3515273035

> <CNNaffinity>
7.8735337257

> <CNN_VS>
2.7677621841

> <CNNaffinity_variance>
0.3194693923

$$$$
[H]C#C[C@]1(O[H])C([H])([H])C([H])([H])[C@@]2([H])[C@@]3([H])C(=C4C(=C([H])C(=O)C([H])([H])C4([H])[H])C([H])([H])C3([H])[H])[C@@]([H])(c3c([H])c([H])c(N(C([H])([H])[H])C([H])([H])C([H])([H])OC4([H])C([H])([H])C([H])([H])[C@]5(C([H])([H])[H])[C@@]6([H])C([H])([H])[C@]([H])(O[H])[C@@]7(C([H])([H])[H])[C@@]([H])(C([H])([H])C([H])([H])[C@]7([H])[C@]([H])(C([H])([H])[H])C([H])([H])C([H])([H])C(=O)O[H])[C@]6([H])[C@]([H])(O[H])C([H])([H])[C@]5([H])C4([H])[H])c([H])c3[H])C([H])([H])[C@]12C([H])([H])[H]


 65 73  0  0  0  0  0  0  0  0999 V2000
   15.8038   46.1320  137.5392 C   0  0  0  0  0  0  0  0  0  0  0  0
   16.5177   45.0829  137.9552 O   0  0  0  0  0  0  0  0  0  0  0  0
   19.3886   37.6400  142.5692 C   0  0  0  0  0  0  0  0  0  0  0  0
   20.1707   38.4959  143.5076 C   0  0  0  0  0  0  0  0  0  0  0  0
   20.2981   39.8600  142.8388 C   0  0  0  0  0  0  0  0  0  0  0  0
   19.1172   39.8453  141.9301 C   0  0  0  0  0  0  0  0  0  0  0  0
   19.1162   40.8224  140.8181 C   0  0  0  0  0  0  0  0  0  0  0  0
   19.0092   42.2340  141.4350 C   0  0  0  0  0  0  0  0  0  0  0  0
   17.7951   42.3684  142.0679 O   0  0  0  0  0  0  0  0  0  0  0  0
   19.1441   43.1794  140.2573 C   0  0  0  0  0  0  0  0  0  0  0  0
   17.9997   43.0125  139.2892 C   0  0  0  0  0  0  0  0  0  0  0  0
   16.7438   43.6330  139.8307 C   0  0  0  0  0  0  0  0  0  0  0  0
   15.8996   44.0312  138.5721 C   0  0  0  0  0  0  0  0  0  0  0  0
   15.9314   42.8078  137.7186 C   0  0  0  0  0  0  0  0  0  0  0  0
   16.2764   41.5387  138.4291 C   0  0  0  0  0  0  0  0  0  0  0  0
   17.7369   41.5802  138.9038 C   0  0  0  0  0  0  0  0  0  0  0  0
   18.6485   41.2569  137.7438 C   0  0  0  0  0  0  0  0  0  0  0  0
   17.8385   40.6301  140.0445 C   0  0  0  0  0  0  0  0  0  0  0  0
   17.6158   39.2198  139.6083 C   0  0  0  0  0  0  0  0  0  0  0  0
   17.8223   38.2140  140.7095 C   0  0  0  0  0  0  0  0  0  0  0  0
   16.8299   38.3495  141.6546 O   0  0  0  0  0  0  0  0  0  0  0  0
   19.1946   38.4275  141.3388 C   0  0  0  0  0  0  0  0  0  0  0  0
   20.2405   38.3193  140.2943 C   0  0  0  0  0  0  0  0  0  0  0  0
   17.9271   42.2491  143.0395 H   0  0  0  0  0  0  0  0  0  0  0  0
   15.9531   38.6139  141.2564 H   0  0  0  0  0  0  0  0  0  0  0  0
   21.3659   36.2850  142.2971 C   0  0  0  0  0  0  0  0  0  0  0  0
   19.8194   36.2188  142.4746 C   0  0  0  0  0  0  0  0  0  0  0  0
   19.3541   35.4656  141.2725 C   0  0  0  0  0  0  0  0  0  0  0  0
   18.4168   34.3369  141.7234 C   0  0  0  0  0  0  0  0  0  0  0  0
   17.0953   34.8206  142.1287 C   0  0  0  0  0  0  0  0  0  0  0  0
   16.2191   35.1868  141.0944 O   0  0  0  0  0  0  0  0  0  0  0  0
   16.7611   34.9052  143.3191 O   0  0  0  0  0  0  0  0  0  0  0  0
   16.1933   34.6176  140.2442 H   0  0  0  0  0  0  0  0  0  0  0  0
   15.2459   46.2957  136.1906 C   0  0  0  0  0  0  0  0  0  0  0  0
   14.2811   47.3308  135.9603 N   0  0  0  0  0  0  0  0  0  0  0  0
   14.3834   48.6012  136.6595 C   0  0  0  0  0  0  0  0  0  0  0  0
   13.1530   47.1662  135.0695 C   0  0  0  0  0  0  0  0  0  0  0  0
   13.0944   46.1255  134.1851 C   0  0  0  0  0  0  0  0  0  0  0  0
   12.0210   45.9475  133.3050 C   0  0  0  0  0  0  0  0  0  0  0  0
   10.9610   46.8141  133.2812 C   0  0  0  0  0  0  0  0  0  0  0  0
   11.0396   47.8770  134.1984 C   0  0  0  0  0  0  0  0  0  0  0  0
   12.0965   48.0438  135.0584 C   0  0  0  0  0  0  0  0  0  0  0  0
    9.7994   46.7166  132.3615 C   0  0  0  0  0  0  0  0  0  0  0  0
    9.3239   48.0833  131.9281 C   0  0  0  0  0  0  0  0  0  0  0  0
    9.3393   48.4234  130.5086 C   0  0  0  0  0  0  0  0  0  0  0  0
   10.5890   49.1568  130.0574 C   0  0  0  0  0  0  0  0  0  0  0  0
    9.0948   47.1712  129.6551 C   0  0  0  0  0  0  0  0  0  0  0  0
    8.9904   47.7298  128.2971 C   0  0  0  0  0  0  0  0  0  0  0  0
    8.2506   49.0328  128.4995 C   0  0  0  0  0  0  0  0  0  0  0  0
    8.1790   49.2592  130.0178 C   0  0  0  0  0  0  0  0  0  0  0  0
    8.3837   50.6137  130.2349 O   0  0  0  0  0  0  0  0  0  0  0  0
   10.3177   46.3165  129.9317 C   0  0  0  0  0  0  0  0  0  0  0  0
   10.7123   45.3870  128.8712 C   0  0  0  0  0  0  0  0  0  0  0  0
   10.1649   44.0077  128.9574 C   0  0  0  0  0  0  0  0  0  0  0  0
   10.2779   43.5467  130.3711 C   0  0  0  0  0  0  0  0  0  0  0  0
   10.6247   42.2723  130.5909 C   0  0  0  0  0  0  0  0  0  0  0  0
   10.7075   41.8868  132.0014 C   0  0  0  0  0  0  0  0  0  0  0  0
   11.5985   41.1317  132.3877 O   0  0  0  0  0  0  0  0  0  0  0  0
    9.6494   42.4730  132.8900 C   0  0  0  0  0  0  0  0  0  0  0  0
    9.8342   43.9608  132.8212 C   0  0  0  0  0  0  0  0  0  0  0  0
   10.0375   44.4610  131.4823 C   0  0  0  0  0  0  0  0  0  0  0  0
   10.0443   45.7789  131.2843 C   0  0  0  0  0  0  0  0  0  0  0  0
    7.5797   51.1059  129.9857 H   0  0  0  0  0  0  0  0  0  0  0  0
    6.9080   48.8546  130.5531 C   0  0  0  0  0  0  0  0  0  0  0  0
    5.8627   48.4998  130.9906 C   0  0  0  0  0  0  0  0  0  0  0  0
 26 27  1  0  0  0
 27 28  1  0  0  0
 28 29  1  0  0  0
 29 30  1  0  0  0
 30 31  1  0  0  0
 30 32  2  0  0  0
 27  3  1  0  0  0
  3  4  1  0  0  0
  4  5  1  0  0  0
  5  6  1  0  0  0
  6  7  1  0  0  0
  7  8  1  0  0  0
  8  9  1  0  0  0
  8 10  1  0  0  0
 10 11  1  0  0  0
 11 12  1  0  0  0
 12 13  1  0  0  0
 13 14  1  0  0  0
 14 15  1  0  0  0
 15 16  1  0  0  0
 16 17  1  0  0  0
 16 18  1  0  0  0
 18 19  1  0  0  0
 19 20  1  0  0  0
 20 21  1  0  0  0
 20 22  1  0  0  0
 22 23  1  0  0  0
 13  2  1  0  0  0
  2  1  1  0  0  0
  1 34  1  0  0  0
 34 35  1  0  0  0
 35 36  1  0  0  0
 35 37  1  0  0  0
 37 38  2  0  0  0
 38 39  1  0  0  0
 39 40  2  0  0  0
 40 41  1  0  0  0
 41 42  2  0  0  0
 40 43  1  0  0  0
 43 44  1  0  0  0
 44 45  1  0  0  0
 45 46  1  0  0  0
 45 47  1  0  0  0
 47 48  1  0  0  0
 48 49  1  0  0  0
 49 50  1  0  0  0
 50 51  1  0  0  0
 50 64  1  0  0  0
 64 65  3  0  0  0
 47 52  1  0  0  0
 52 53  1  0  0  0
 53 54  1  0  0  0
 54 55  1  0  0  0
 55 56  2  0  0  0
 56 57  1  0  0  0
 57 58  2  0  0  0
 57 59  1  0  0  0
 59 60  1  0  0  0
 60 61  1  0  0  0
 61 62  2  0  0  0
 22  3  1  0  0  0
 42 37  1  0  0  0
 62 43  1  0  0  0
 22  6  1  0  0  0
 50 45  1  0  0  0
 62 52  1  0  0  0
 18  7  1  0  0  0
 61 55  1  0  0  0
 16 11  1  0  0  0
 31 33  1  0  0  0
  9 24  1  0  0  0
 21 25  1  0  0  0
 51 63  1  0  0  0
M  END
> <minimizedAffinity>
14.01069

> <CNNscore>
0.3584047854

> <CNNaffinity>
8.0409259796

> <CNN_VS>
2.8819062710

> <CNNaffinity_variance>
0.6152633429

$$$$
[H]C#C[C@]1(O[H])C([H])([H])C([H])([H])[C@@]2([H])[C@@]3([H])C(=C4C(=C([H])C(=O)C([H])([H])C4([H])[H])C([H])([H])C3([H])[H])[C@@]([H])(c3c([H])c([H])c(N(C([H])([H])[H])C([H])([H])C([H])([H])OC4([H])C([H])([H])C([H])([H])[C@]5(C([H])([H])[H])[C@@]6([H])C([H])([H])[C@]([H])(O[H])[C@@]7(C([H])([H])[H])[C@@]([H])(C([H])([H])C([H])([H])[C@]7([H])[C@]([H])(C([H])([H])[H])C([H])([H])C([H])([H])C(=O)O[H])[C@]6([H])[C@]([H])(O[H])C([H])([H])[C@]5([H])C4([H])[H])c([H])c3[H])C([H])([H])[C@]12C([H])([H])[H]


 65 73  0  0  0  0  0  0  0  0999 V2000
    5.0046   49.8222  129.8289 C   0  0  0  0  0  0  0  0  0  0  0  0
    5.2614   49.4754  128.5651 O   0  0  0  0  0  0  0  0  0  0  0  0
   10.7993   43.2604  132.5192 C   0  0  0  0  0  0  0  0  0  0  0  0
   10.0370   43.3613  133.7973 C   0  0  0  0  0  0  0  0  0  0  0  0
    9.2147   44.6418  133.7061 C   0  0  0  0  0  0  0  0  0  0  0  0
    9.1074   44.8094  132.2293 C   0  0  0  0  0  0  0  0  0  0  0  0
    8.7272   46.1513  131.7338 C   0  0  0  0  0  0  0  0  0  0  0  0
    7.2728   46.4198  132.1779 C   0  0  0  0  0  0  0  0  0  0  0  0
    6.4302   45.5265  131.5576 O   0  0  0  0  0  0  0  0  0  0  0  0
    6.9986   47.8491  131.7524 C   0  0  0  0  0  0  0  0  0  0  0  0
    7.0555   47.9927  130.2522 C   0  0  0  0  0  0  0  0  0  0  0  0
    5.8281   47.4120  129.6105 C   0  0  0  0  0  0  0  0  0  0  0  0
    5.6484   48.1986  128.2672 C   0  0  0  0  0  0  0  0  0  0  0  0
    7.0082   48.1739  127.6538 C   0  0  0  0  0  0  0  0  0  0  0  0
    7.9243   47.1101  128.1671 C   0  0  0  0  0  0  0  0  0  0  0  0
    8.2894   47.3905  129.6328 C   0  0  0  0  0  0  0  0  0  0  0  0
    9.3724   48.4419  129.6853 C   0  0  0  0  0  0  0  0  0  0  0  0
    8.6764   46.0838  130.2302 C   0  0  0  0  0  0  0  0  0  0  0  0
    9.9278   45.5472  129.6180 C   0  0  0  0  0  0  0  0  0  0  0  0
   10.4182   44.2826  130.2718 C   0  0  0  0  0  0  0  0  0  0  0  0
    9.5422   43.2533  130.0079 O   0  0  0  0  0  0  0  0  0  0  0  0
   10.5453   44.5065  131.7746 C   0  0  0  0  0  0  0  0  0  0  0  0
   11.4585   45.6455  132.0300 C   0  0  0  0  0  0  0  0  0  0  0  0
    6.2050   44.8058  132.1945 H   0  0  0  0  0  0  0  0  0  0  0  0
    9.1268   43.3244  129.1026 H   0  0  0  0  0  0  0  0  0  0  0  0
   12.9263   43.7698  133.5370 C   0  0  0  0  0  0  0  0  0  0  0  0
   12.1885   42.7388  132.6314 C   0  0  0  0  0  0  0  0  0  0  0  0
   12.9937   42.7272  131.3743 C   0  0  0  0  0  0  0  0  0  0  0  0
   13.4798   44.1531  131.0805 C   0  0  0  0  0  0  0  0  0  0  0  0
   13.8262   44.3588  129.6726 C   0  0  0  0  0  0  0  0  0  0  0  0
   15.1278   43.9972  129.2895 O   0  0  0  0  0  0  0  0  0  0  0  0
   13.0191   44.8269  128.8569 O   0  0  0  0  0  0  0  0  0  0  0  0
   15.5401   43.1470  129.6828 H   0  0  0  0  0  0  0  0  0  0  0  0
    5.6309   50.9417  130.5438 C   0  0  0  0  0  0  0  0  0  0  0  0
    6.8941   51.4389  130.0831 N   0  0  0  0  0  0  0  0  0  0  0  0
    8.1272   51.0369  130.7398 C   0  0  0  0  0  0  0  0  0  0  0  0
    7.0147   52.3772  128.9885 C   0  0  0  0  0  0  0  0  0  0  0  0
    6.9639   53.7263  129.2028 C   0  0  0  0  0  0  0  0  0  0  0  0
    7.0673   54.6564  128.1623 C   0  0  0  0  0  0  0  0  0  0  0  0
    7.2263   54.2624  126.8605 C   0  0  0  0  0  0  0  0  0  0  0  0
    7.2769   52.8714  126.6609 C   0  0  0  0  0  0  0  0  0  0  0  0
    7.1749   51.9661  127.6878 C   0  0  0  0  0  0  0  0  0  0  0  0
    7.3138   55.1793  125.6959 C   0  0  0  0  0  0  0  0  0  0  0  0
    8.0119   54.5218  124.5287 C   0  0  0  0  0  0  0  0  0  0  0  0
    7.2911   54.3596  123.2698 C   0  0  0  0  0  0  0  0  0  0  0  0
    6.6154   53.0103  123.1083 C   0  0  0  0  0  0  0  0  0  0  0  0
    6.2895   55.5062  123.0745 C   0  0  0  0  0  0  0  0  0  0  0  0
    5.7878   55.2592  121.7126 C   0  0  0  0  0  0  0  0  0  0  0  0
    7.0093   54.7822  120.9599 C   0  0  0  0  0  0  0  0  0  0  0  0
    8.1066   54.5579  122.0123 C   0  0  0  0  0  0  0  0  0  0  0  0
    8.7887   53.4069  121.6464 O   0  0  0  0  0  0  0  0  0  0  0  0
    5.2936   55.2947  124.1997 C   0  0  0  0  0  0  0  0  0  0  0  0
    3.9352   55.7882  123.9646 C   0  0  0  0  0  0  0  0  0  0  0  0
    3.6372   57.1667  124.4340 C   0  0  0  0  0  0  0  0  0  0  0  0
    4.2165   57.3321  125.7981 C   0  0  0  0  0  0  0  0  0  0  0  0
    3.5099   58.0229  126.7016 C   0  0  0  0  0  0  0  0  0  0  0  0
    4.1430   58.1532  128.0159 C   0  0  0  0  0  0  0  0  0  0  0  0
    3.4663   58.0838  129.0409 O   0  0  0  0  0  0  0  0  0  0  0  0
    5.6279   58.3707  127.9941 C   0  0  0  0  0  0  0  0  0  0  0  0
    6.2109   57.1548  127.3352 C   0  0  0  0  0  0  0  0  0  0  0  0
    5.5052   56.7426  126.1451 C   0  0  0  0  0  0  0  0  0  0  0  0
    6.0319   55.7806  125.3881 C   0  0  0  0  0  0  0  0  0  0  0  0
    9.3669   53.6020  120.8860 H   0  0  0  0  0  0  0  0  0  0  0  0
    9.0105   55.6733  122.0794 C   0  0  0  0  0  0  0  0  0  0  0  0
    9.7456   56.6049  122.1197 C   0  0  0  0  0  0  0  0  0  0  0  0
 26 27  1  0  0  0
 27 28  1  0  0  0
 28 29  1  0  0  0
 29 30  1  0  0  0
 30 31  1  0  0  0
 30 32  2  0  0  0
 27  3  1  0  0  0
  3  4  1  0  0  0
  4  5  1  0  0  0
  5  6  1  0  0  0
  6  7  1  0  0  0
  7  8  1  0  0  0
  8  9  1  0  0  0
  8 10  1  0  0  0
 10 11  1  0  0  0
 11 12  1  0  0  0
 12 13  1  0  0  0
 13 14  1  0  0  0
 14 15  1  0  0  0
 15 16  1  0  0  0
 16 17  1  0  0  0
 16 18  1  0  0  0
 18 19  1  0  0  0
 19 20  1  0  0  0
 20 21  1  0  0  0
 20 22  1  0  0  0
 22 23  1  0  0  0
 13  2  1  0  0  0
  2  1  1  0  0  0
  1 34  1  0  0  0
 34 35  1  0  0  0
 35 36  1  0  0  0
 35 37  1  0  0  0
 37 38  2  0  0  0
 38 39  1  0  0  0
 39 40  2  0  0  0
 40 41  1  0  0  0
 41 42  2  0  0  0
 40 43  1  0  0  0
 43 44  1  0  0  0
 44 45  1  0  0  0
 45 46  1  0  0  0
 45 47  1  0  0  0
 47 48  1  0  0  0
 48 49  1  0  0  0
 49 50  1  0  0  0
 50 51  1  0  0  0
 50 64  1  0  0  0
 64 65  3  0  0  0
 47 52  1  0  0  0
 52 53  1  0  0  0
 53 54  1  0  0  0
 54 55  1  0  0  0
 55 56  2  0  0  0
 56 57  1  0  0  0
 57 58  2  0  0  0
 57 59  1  0  0  0
 59 60  1  0  0  0
 60 61  1  0  0  0
 61 62  2  0  0  0
 22  3  1  0  0  0
 42 37  1  0  0  0
 62 43  1  0  0  0
 22  6  1  0  0  0
 50 45  1  0  0  0
 62 52  1  0  0  0
 18  7  1  0  0  0
 61 55  1  0  0  0
 16 11  1  0  0  0
 31 33  1  0  0  0
  9 24  1  0  0  0
 21 25  1  0  0  0
 51 63  1  0  0  0
M  END
> <minimizedAffinity>
16.04461

> <CNNscore>
0.3443206549

> <CNNaffinity>
7.9888687134

> <CNN_VS>
2.7507324219

> <CNNaffinity_variance>
0.1681980789

$$$$
[H]C#C[C@]1(O[H])C([H])([H])C([H])([H])[C@@]2([H])[C@@]3([H])C(=C4C(=C([H])C(=O)C([H])([H])C4([H])[H])C([H])([H])C3([H])[H])[C@@]([H])(c3c([H])c([H])c(N(C([H])([H])[H])C([H])([H])C([H])([H])OC4([H])C([H])([H])C([H])([H])[C@]5(C([H])([H])[H])[C@@]6([H])C([H])([H])[C@]([H])(O[H])[C@@]7(C([H])([H])[H])[C@@]([H])(C([H])([H])C([H])([H])[C@]7([H])[C@]([H])(C([H])([H])[H])C([H])([H])C([H])([H])C(=O)O[H])[C@]6([H])[C@]([H])(O[H])C([H])([H])[C@]5([H])C4([H])[H])c([H])c3[H])C([H])([H])[C@]12C([H])([H])[H]


 65 73  0  0  0  0  0  0  0  0999 V2000
    5.3002   50.0376  129.8760 C   0  0  0  0  0  0  0  0  0  0  0  0
    5.2982   49.7153  128.5800 O   0  0  0  0  0  0  0  0  0  0  0  0
   10.3706   42.7145  131.7721 C   0  0  0  0  0  0  0  0  0  0  0  0
    9.7252   42.8286  133.1120 C   0  0  0  0  0  0  0  0  0  0  0  0
    9.0513   44.1956  133.1482 C   0  0  0  0  0  0  0  0  0  0  0  0
    8.8511   44.4554  131.6947 C   0  0  0  0  0  0  0  0  0  0  0  0
    8.5910   45.8567  131.2948 C   0  0  0  0  0  0  0  0  0  0  0  0
    7.2155   46.2601  131.8693 C   0  0  0  0  0  0  0  0  0  0  0  0
    6.2307   45.5015  131.2799 O   0  0  0  0  0  0  0  0  0  0  0  0
    7.0759   47.7323  131.5345 C   0  0  0  0  0  0  0  0  0  0  0  0
    7.0338   47.9515  130.0430 C   0  0  0  0  0  0  0  0  0  0  0  0
    5.7021   47.5471  129.4785 C   0  0  0  0  0  0  0  0  0  0  0  0
    5.5116   48.4219  128.1924 C   0  0  0  0  0  0  0  0  0  0  0  0
    6.8085   48.2803  127.4685 C   0  0  0  0  0  0  0  0  0  0  0  0
    7.6328   47.0945  127.8547 C   0  0  0  0  0  0  0  0  0  0  0  0
    8.1390   47.2511  129.2967 C   0  0  0  0  0  0  0  0  0  0  0  0
    9.3367   48.1712  129.3084 C   0  0  0  0  0  0  0  0  0  0  0  0
    8.4176   45.8785  129.7990 C   0  0  0  0  0  0  0  0  0  0  0  0
    9.5483   45.2409  129.0616 C   0  0  0  0  0  0  0  0  0  0  0  0
    9.9385   43.8955  129.6134 C   0  0  0  0  0  0  0  0  0  0  0  0
    8.9322   42.9860  129.3753 O   0  0  0  0  0  0  0  0  0  0  0  0
   10.2054   44.0204  131.1094 C   0  0  0  0  0  0  0  0  0  0  0  0
   11.2606   45.0350  131.3411 C   0  0  0  0  0  0  0  0  0  0  0  0
    5.9735   44.7762  131.8992 H   0  0  0  0  0  0  0  0  0  0  0  0
    8.4596   43.1528  128.5117 H   0  0  0  0  0  0  0  0  0  0  0  0
   11.3617   40.5152  131.7939 C   0  0  0  0  0  0  0  0  0  0  0  0
   11.6950   42.0364  131.7450 C   0  0  0  0  0  0  0  0  0  0  0  0
   12.5706   42.2484  132.9354 C   0  0  0  0  0  0  0  0  0  0  0  0
   12.9293   43.7377  133.0316 C   0  0  0  0  0  0  0  0  0  0  0  0
   12.3809   44.3803  134.2277 C   0  0  0  0  0  0  0  0  0  0  0  0
   11.9671   43.5263  135.2626 O   0  0  0  0  0  0  0  0  0  0  0  0
   12.2838   45.6118  134.3283 O   0  0  0  0  0  0  0  0  0  0  0  0
   12.5312   42.6994  135.4758 H   0  0  0  0  0  0  0  0  0  0  0  0
    6.2532   50.9504  130.5202 C   0  0  0  0  0  0  0  0  0  0  0  0
    7.3921   51.4024  129.7759 N   0  0  0  0  0  0  0  0  0  0  0  0
    8.7287   50.9553  130.1319 C   0  0  0  0  0  0  0  0  0  0  0  0
    7.2888   52.3372  128.6766 C   0  0  0  0  0  0  0  0  0  0  0  0
    7.2552   53.6863  128.8944 C   0  0  0  0  0  0  0  0  0  0  0  0
    7.1453   54.6129  127.8515 C   0  0  0  0  0  0  0  0  0  0  0  0
    7.0646   54.2153  126.5436 C   0  0  0  0  0  0  0  0  0  0  0  0
    7.1016   52.8243  126.3403 C   0  0  0  0  0  0  0  0  0  0  0  0
    7.2098   51.9225  127.3696 C   0  0  0  0  0  0  0  0  0  0  0  0
    6.9161   55.1278  125.3817 C   0  0  0  0  0  0  0  0  0  0  0  0
    8.2364   55.3467  124.6812 C   0  0  0  0  0  0  0  0  0  0  0  0
    8.3699   54.9591  123.2801 C   0  0  0  0  0  0  0  0  0  0  0  0
    8.9459   53.5709  123.0701 C   0  0  0  0  0  0  0  0  0  0  0  0
    7.0287   55.1172  122.5506 C   0  0  0  0  0  0  0  0  0  0  0  0
    7.3947   54.8381  121.1523 C   0  0  0  0  0  0  0  0  0  0  0  0
    8.7601   55.4704  121.0043 C   0  0  0  0  0  0  0  0  0  0  0  0
    9.2039   55.8791  122.4177 C   0  0  0  0  0  0  0  0  0  0  0  0
   10.5586   55.5975  122.5136 O   0  0  0  0  0  0  0  0  0  0  0  0
    6.1413   54.0876  123.2252 C   0  0  0  0  0  0  0  0  0  0  0  0
    5.0463   53.5466  122.4174 C   0  0  0  0  0  0  0  0  0  0  0  0
    3.7333   54.2341  122.5303 C   0  0  0  0  0  0  0  0  0  0  0  0
    3.4710   54.5084  123.9724 C   0  0  0  0  0  0  0  0  0  0  0  0
    2.2202   54.3535  124.4244 C   0  0  0  0  0  0  0  0  0  0  0  0
    2.0341   54.6486  125.8469 C   0  0  0  0  0  0  0  0  0  0  0  0
    1.2830   53.9557  126.5319 O   0  0  0  0  0  0  0  0  0  0  0  0
    2.8104   55.8239  126.3653 C   0  0  0  0  0  0  0  0  0  0  0  0
    4.2575   55.4799  126.1654 C   0  0  0  0  0  0  0  0  0  0  0  0
    4.5478   54.9140  124.8694 C   0  0  0  0  0  0  0  0  0  0  0  0
    5.8208   54.7282  124.5214 C   0  0  0  0  0  0  0  0  0  0  0  0
   11.0635   56.2653  122.0138 H   0  0  0  0  0  0  0  0  0  0  0  0
    8.9660   57.2751  122.6634 C   0  0  0  0  0  0  0  0  0  0  0  0
    8.7524   58.4276  122.8531 C   0  0  0  0  0  0  0  0  0  0  0  0
 26 27  1  0  0  0
 27 28  1  0  0  0
 28 29  1  0  0  0
 29 30  1  0  0  0
 30 31  1  0  0  0
 30 32  2  0  0  0
 27  3  1  0  0  0
  3  4  1  0  0  0
  4  5  1  0  0  0
  5  6  1  0  0  0
  6  7  1  0  0  0
  7  8  1  0  0  0
  8  9  1  0  0  0
  8 10  1  0  0  0
 10 11  1  0  0  0
 11 12  1  0  0  0
 12 13  1  0  0  0
 13 14  1  0  0  0
 14 15  1  0  0  0
 15 16  1  0  0  0
 16 17  1  0  0  0
 16 18  1  0  0  0
 18 19  1  0  0  0
 19 20  1  0  0  0
 20 21  1  0  0  0
 20 22  1  0  0  0
 22 23  1  0  0  0
 13  2  1  0  0  0
  2  1  1  0  0  0
  1 34  1  0  0  0
 34 35  1  0  0  0
 35 36  1  0  0  0
 35 37  1  0  0  0
 37 38  2  0  0  0
 38 39  1  0  0  0
 39 40  2  0  0  0
 40 41  1  0  0  0
 41 42  2  0  0  0
 40 43  1  0  0  0
 43 44  1  0  0  0
 44 45  1  0  0  0
 45 46  1  0  0  0
 45 47  1  0  0  0
 47 48  1  0  0  0
 48 49  1  0  0  0
 49 50  1  0  0  0
 50 51  1  0  0  0
 50 64  1  0  0  0
 64 65  3  0  0  0
 47 52  1  0  0  0
 52 53  1  0  0  0
 53 54  1  0  0  0
 54 55  1  0  0  0
 55 56  2  0  0  0
 56 57  1  0  0  0
 57 58  2  0  0  0
 57 59  1  0  0  0
 59 60  1  0  0  0
 60 61  1  0  0  0
 61 62  2  0  0  0
 22  3  1  0  0  0
 42 37  1  0  0  0
 62 43  1  0  0  0
 22  6  1  0  0  0
 50 45  1  0  0  0
 62 52  1  0  0  0
 18  7  1  0  0  0
 61 55  1  0  0  0
 16 11  1  0  0  0
 31 33  1  0  0  0
  9 24  1  0  0  0
 21 25  1  0  0  0
 51 63  1  0  0  0
M  END
> <minimizedAffinity>
16.16366

> <CNNscore>
0.2860940695

> <CNNaffinity>
7.8963594437

> <CNN_VS>
2.2591016293

> <CNNaffinity_variance>
0.1164398938

$$$$
[H]C#C[C@]1(O[H])C([H])([H])C([H])([H])[C@@]2([H])[C@@]3([H])C(=C4C(=C([H])C(=O)C([H])([H])C4([H])[H])C([H])([H])C3([H])[H])[C@@]([H])(c3c([H])c([H])c(N(C([H])([H])[H])C([H])([H])C([H])([H])OC4([H])C([H])([H])C([H])([H])[C@]5(C([H])([H])[H])[C@@]6([H])C([H])([H])[C@]([H])(O[H])[C@@]7(C([H])([H])[H])[C@@]([H])(C([H])([H])C([H])([H])[C@]7([H])[C@]([H])(C([H])([H])[H])C([H])([H])C([H])([H])C(=O)O[H])[C@]6([H])[C@]([H])(O[H])C([H])([H])[C@]5([H])C4([H])[H])c([H])c3[H])C([H])([H])[C@]12C([H])([H])[H]


 65 73  0  0  0  0  0  0  0  0999 V2000
   15.7163   46.4087  137.3677 C   0  0  0  0  0  0  0  0  0  0  0  0
   15.8714   45.2073  137.9297 O   0  0  0  0  0  0  0  0  0  0  0  0
   20.9205   38.2320  141.2130 C   0  0  0  0  0  0  0  0  0  0  0  0
   21.5826   38.0581  139.8878 C   0  0  0  0  0  0  0  0  0  0  0  0
   20.7180   38.8013  138.8757 C   0  0  0  0  0  0  0  0  0  0  0  0
   20.0356   39.7925  139.7545 C   0  0  0  0  0  0  0  0  0  0  0  0
   18.8147   40.4345  139.2173 C   0  0  0  0  0  0  0  0  0  0  0  0
   19.2375   41.3223  138.0267 C   0  0  0  0  0  0  0  0  0  0  0  0
   20.0435   42.3422  138.4771 O   0  0  0  0  0  0  0  0  0  0  0  0
   17.9338   41.8400  137.4512 C   0  0  0  0  0  0  0  0  0  0  0  0
   17.2085   42.7149  138.4427 C   0  0  0  0  0  0  0  0  0  0  0  0
   17.8646   44.0615  138.5507 C   0  0  0  0  0  0  0  0  0  0  0  0
   16.7256   45.0463  138.9847 C   0  0  0  0  0  0  0  0  0  0  0  0
   16.0586   44.3437  140.1194 C   0  0  0  0  0  0  0  0  0  0  0  0
   16.8699   43.2747  140.7779 C   0  0  0  0  0  0  0  0  0  0  0  0
   17.0775   42.0990  139.8111 C   0  0  0  0  0  0  0  0  0  0  0  0
   15.8355   41.2398  139.7956 C   0  0  0  0  0  0  0  0  0  0  0  0
   18.3054   41.3906  140.2634 C   0  0  0  0  0  0  0  0  0  0  0  0
   18.1150   40.7584  141.6024 C   0  0  0  0  0  0  0  0  0  0  0  0
   19.2942   39.9349  142.0475 C   0  0  0  0  0  0  0  0  0  0  0  0
   20.3667   40.7599  142.3040 O   0  0  0  0  0  0  0  0  0  0  0  0
   19.6436   38.9234  140.9615 C   0  0  0  0  0  0  0  0  0  0  0  0
   18.4613   38.0772  140.6741 C   0  0  0  0  0  0  0  0  0  0  0  0
   20.9852   42.1110  138.2889 H   0  0  0  0  0  0  0  0  0  0  0  0
   20.0912   41.6434  142.6791 H   0  0  0  0  0  0  0  0  0  0  0  0
   21.8213   37.5000  143.3278 C   0  0  0  0  0  0  0  0  0  0  0  0
   20.9531   37.0490  142.1152 C   0  0  0  0  0  0  0  0  0  0  0  0
   21.6629   35.8420  141.5973 C   0  0  0  0  0  0  0  0  0  0  0  0
   20.8417   34.5931  141.9458 C   0  0  0  0  0  0  0  0  0  0  0  0
   19.8031   34.2989  140.9562 C   0  0  0  0  0  0  0  0  0  0  0  0
   18.4757   34.3370  141.4125 O   0  0  0  0  0  0  0  0  0  0  0  0
   20.0736   34.0296  139.7771 O   0  0  0  0  0  0  0  0  0  0  0  0
   18.2019   35.0678  142.0746 H   0  0  0  0  0  0  0  0  0  0  0  0
   15.1302   46.6553  136.0440 C   0  0  0  0  0  0  0  0  0  0  0  0
   14.0410   47.5803  135.9292 N   0  0  0  0  0  0  0  0  0  0  0  0
   13.9745   48.7495  136.7906 C   0  0  0  0  0  0  0  0  0  0  0  0
   12.9486   47.3929  134.9995 C   0  0  0  0  0  0  0  0  0  0  0  0
   11.8895   48.2566  134.9671 C   0  0  0  0  0  0  0  0  0  0  0  0
   10.8146   48.0940  134.0859 C   0  0  0  0  0  0  0  0  0  0  0  0
   10.7643   47.0512  133.1998 C   0  0  0  0  0  0  0  0  0  0  0  0
   11.8628   46.1747  133.2480 C   0  0  0  0  0  0  0  0  0  0  0  0
   12.9132   46.3421  134.1157 C   0  0  0  0  0  0  0  0  0  0  0  0
    9.6504   46.7880  132.2538 C   0  0  0  0  0  0  0  0  0  0  0  0
    9.0520   48.0746  131.7360 C   0  0  0  0  0  0  0  0  0  0  0  0
    9.0802   48.3442  130.3016 C   0  0  0  0  0  0  0  0  0  0  0  0
   10.2624   49.1809  129.8483 C   0  0  0  0  0  0  0  0  0  0  0  0
    8.9944   47.0330  129.5084 C   0  0  0  0  0  0  0  0  0  0  0  0
    8.8791   47.5101  128.1205 C   0  0  0  0  0  0  0  0  0  0  0  0
    8.0030   48.7373  128.2332 C   0  0  0  0  0  0  0  0  0  0  0  0
    7.8574   49.0293  129.7349 C   0  0  0  0  0  0  0  0  0  0  0  0
    7.9144   50.4069  129.8865 O   0  0  0  0  0  0  0  0  0  0  0  0
   10.2886   46.3250  129.8640 C   0  0  0  0  0  0  0  0  0  0  0  0
   10.8121   45.3907  128.8654 C   0  0  0  0  0  0  0  0  0  0  0  0
   10.4067   43.9678  129.0081 C   0  0  0  0  0  0  0  0  0  0  0  0
   10.5187   43.5912  130.4467 C   0  0  0  0  0  0  0  0  0  0  0  0
   10.9870   42.3723  130.7428 C   0  0  0  0  0  0  0  0  0  0  0  0
   11.0613   42.0674  132.1734 C   0  0  0  0  0  0  0  0  0  0  0  0
   12.0117   41.4292  132.6239 O   0  0  0  0  0  0  0  0  0  0  0  0
    9.9193   42.5831  132.9996 C   0  0  0  0  0  0  0  0  0  0  0  0
    9.9525   44.0769  132.8581 C   0  0  0  0  0  0  0  0  0  0  0  0
   10.1484   44.5290  131.5012 C   0  0  0  0  0  0  0  0  0  0  0  0
   10.0265   45.8291  131.2346 C   0  0  0  0  0  0  0  0  0  0  0  0
    7.0731   50.7996  129.5890 H   0  0  0  0  0  0  0  0  0  0  0  0
    6.6173   48.5213  130.2543 C   0  0  0  0  0  0  0  0  0  0  0  0
    5.5829   48.1077  130.6653 C   0  0  0  0  0  0  0  0  0  0  0  0
 26 27  1  0  0  0
 27 28  1  0  0  0
 28 29  1  0  0  0
 29 30  1  0  0  0
 30 31  1  0  0  0
 30 32  2  0  0  0
 27  3  1  0  0  0
  3  4  1  0  0  0
  4  5  1  0  0  0
  5  6  1  0  0  0
  6  7  1  0  0  0
  7  8  1  0  0  0
  8  9  1  0  0  0
  8 10  1  0  0  0
 10 11  1  0  0  0
 11 12  1  0  0  0
 12 13  1  0  0  0
 13 14  1  0  0  0
 14 15  1  0  0  0
 15 16  1  0  0  0
 16 17  1  0  0  0
 16 18  1  0  0  0
 18 19  1  0  0  0
 19 20  1  0  0  0
 20 21  1  0  0  0
 20 22  1  0  0  0
 22 23  1  0  0  0
 13  2  1  0  0  0
  2  1  1  0  0  0
  1 34  1  0  0  0
 34 35  1  0  0  0
 35 36  1  0  0  0
 35 37  1  0  0  0
 37 38  2  0  0  0
 38 39  1  0  0  0
 39 40  2  0  0  0
 40 41  1  0  0  0
 41 42  2  0  0  0
 40 43  1  0  0  0
 43 44  1  0  0  0
 44 45  1  0  0  0
 45 46  1  0  0  0
 45 47  1  0  0  0
 47 48  1  0  0  0
 48 49  1  0  0  0
 49 50  1  0  0  0
 50 51  1  0  0  0
 50 64  1  0  0  0
 64 65  3  0  0  0
 47 52  1  0  0  0
 52 53  1  0  0  0
 53 54  1  0  0  0
 54 55  1  0  0  0
 55 56  2  0  0  0
 56 57  1  0  0  0
 57 58  2  0  0  0
 57 59  1  0  0  0
 59 60  1  0  0  0
 60 61  1  0  0  0
 61 62  2  0  0  0
 22  3  1  0  0  0
 42 37  1  0  0  0
 62 43  1  0  0  0
 22  6  1  0  0  0
 50 45  1  0  0  0
 62 52  1  0  0  0
 18  7  1  0  0  0
 61 55  1  0  0  0
 16 11  1  0  0  0
 31 33  1  0  0  0
  9 24  1  0  0  0
 21 25  1  0  0  0
 51 63  1  0  0  0
M  END
> <minimizedAffinity>
12.70413

> <CNNscore>
0.2633763552

> <CNNaffinity>
7.8990349770

> <CNN_VS>
2.0804190636

> <CNNaffinity_variance>
0.4337133467

$$$$
[H]C#C[C@]1(O[H])C([H])([H])C([H])([H])[C@@]2([H])[C@@]3([H])C(=C4C(=C([H])C(=O)C([H])([H])C4([H])[H])C([H])([H])C3([H])[H])[C@@]([H])(c3c([H])c([H])c(N(C([H])([H])[H])C([H])([H])C([H])([H])OC4([H])C([H])([H])C([H])([H])[C@]5(C([H])([H])[H])[C@@]6([H])C([H])([H])[C@]([H])(O[H])[C@@]7(C([H])([H])[H])[C@@]([H])(C([H])([H])C([H])([H])[C@]7([H])[C@]([H])(C([H])([H])[H])C([H])([H])C([H])([H])C(=O)O[H])[C@]6([H])[C@]([H])(O[H])C([H])([H])[C@]5([H])C4([H])[H])c([H])c3[H])C([H])([H])[C@]12C([H])([H])[H]


 65 73  0  0  0  0  0  0  0  0999 V2000
   11.9703   42.7559  136.3006 C   0  0  0  0  0  0  0  0  0  0  0  0
   12.1993   43.5587  135.2582 O   0  0  0  0  0  0  0  0  0  0  0  0
    6.8299   48.5776  129.6987 C   0  0  0  0  0  0  0  0  0  0  0  0
    5.7431   47.5604  129.7931 C   0  0  0  0  0  0  0  0  0  0  0  0
    6.3891   46.2923  130.3399 C   0  0  0  0  0  0  0  0  0  0  0  0
    7.5690   46.8565  131.0540 C   0  0  0  0  0  0  0  0  0  0  0  0
    8.6671   45.9180  131.3778 C   0  0  0  0  0  0  0  0  0  0  0  0
    8.1316   44.9123  132.4201 C   0  0  0  0  0  0  0  0  0  0  0  0
    7.8337   45.5754  133.5881 O   0  0  0  0  0  0  0  0  0  0  0  0
    9.2576   43.9138  132.6046 C   0  0  0  0  0  0  0  0  0  0  0  0
   10.4819   44.5732  133.1883 C   0  0  0  0  0  0  0  0  0  0  0  0
   10.2945   44.8531  134.6519 C   0  0  0  0  0  0  0  0  0  0  0  0
   11.7363   44.8449  135.2657 C   0  0  0  0  0  0  0  0  0  0  0  0
   12.5241   45.7095  134.3395 C   0  0  0  0  0  0  0  0  0  0  0  0
   11.7192   46.6375  133.4876 C   0  0  0  0  0  0  0  0  0  0  0  0
   10.8879   45.8360  132.4744 C   0  0  0  0  0  0  0  0  0  0  0  0
   11.7681   45.4295  131.3164 C   0  0  0  0  0  0  0  0  0  0  0  0
    9.7370   46.6991  132.0940 C   0  0  0  0  0  0  0  0  0  0  0  0
   10.1822   47.9147  131.3503 C   0  0  0  0  0  0  0  0  0  0  0  0
    9.0413   48.7583  130.8467 C   0  0  0  0  0  0  0  0  0  0  0  0
    8.3850   49.3353  131.9111 O   0  0  0  0  0  0  0  0  0  0  0  0
    8.0872   47.8874  130.0368 C   0  0  0  0  0  0  0  0  0  0  0  0
    8.8266   47.2449  128.9247 C   0  0  0  0  0  0  0  0  0  0  0  0
    6.8581   45.7240  133.6303 H   0  0  0  0  0  0  0  0  0  0  0  0
    9.0004   49.5666  132.6627 H   0  0  0  0  0  0  0  0  0  0  0  0
    7.6109   48.7389  127.4220 C   0  0  0  0  0  0  0  0  0  0  0  0
    6.7775   49.4754  128.5131 C   0  0  0  0  0  0  0  0  0  0  0  0
    7.4602   50.7957  128.6530 C   0  0  0  0  0  0  0  0  0  0  0  0
    6.4922   51.9057  128.2209 C   0  0  0  0  0  0  0  0  0  0  0  0
    7.1728   53.0520  127.6150 C   0  0  0  0  0  0  0  0  0  0  0  0
    7.3098   54.1947  128.4194 O   0  0  0  0  0  0  0  0  0  0  0  0
    7.6071   53.0227  126.4546 O   0  0  0  0  0  0  0  0  0  0  0  0
    7.5314   54.0766  129.4116 H   0  0  0  0  0  0  0  0  0  0  0  0
   12.8907   42.5449  137.4253 C   0  0  0  0  0  0  0  0  0  0  0  0
   14.2998   42.4887  137.1671 N   0  0  0  0  0  0  0  0  0  0  0  0
   14.8551   43.1098  135.9758 C   0  0  0  0  0  0  0  0  0  0  0  0
   15.2280   41.7956  138.0337 C   0  0  0  0  0  0  0  0  0  0  0  0
   14.9076   40.5922  138.5975 C   0  0  0  0  0  0  0  0  0  0  0  0
   15.7813   39.9047  139.4474 C   0  0  0  0  0  0  0  0  0  0  0  0
   17.0163   40.4044  139.7638 C   0  0  0  0  0  0  0  0  0  0  0  0
   17.3274   41.6422  139.1736 C   0  0  0  0  0  0  0  0  0  0  0  0
   16.4642   42.3096  138.3407 C   0  0  0  0  0  0  0  0  0  0  0  0
   17.9904   39.7567  140.6784 C   0  0  0  0  0  0  0  0  0  0  0  0
   18.1796   38.2973  140.3374 C   0  0  0  0  0  0  0  0  0  0  0  0
   19.5072   37.8228  139.9590 C   0  0  0  0  0  0  0  0  0  0  0  0
   19.7539   37.7908  138.4619 C   0  0  0  0  0  0  0  0  0  0  0  0
   20.5919   38.6342  140.6808 C   0  0  0  0  0  0  0  0  0  0  0  0
   21.8235   37.9217  140.3031 C   0  0  0  0  0  0  0  0  0  0  0  0
   21.4132   36.4664  140.3068 C   0  0  0  0  0  0  0  0  0  0  0  0
   19.8843   36.4477  140.4617 C   0  0  0  0  0  0  0  0  0  0  0  0
   19.4064   35.4414  139.6354 O   0  0  0  0  0  0  0  0  0  0  0  0
   20.4256   40.0283  140.1050 C   0  0  0  0  0  0  0  0  0  0  0  0
   21.6230   40.8710  140.0907 C   0  0  0  0  0  0  0  0  0  0  0  0
   21.8239   41.7620  141.2633 C   0  0  0  0  0  0  0  0  0  0  0  0
   20.5189   42.4043  141.5922 C   0  0  0  0  0  0  0  0  0  0  0  0
   20.5278   43.6896  141.9673 C   0  0  0  0  0  0  0  0  0  0  0  0
   19.2130   44.2522  142.2835 C   0  0  0  0  0  0  0  0  0  0  0  0
   18.9355   45.4050  141.9557 O   0  0  0  0  0  0  0  0  0  0  0  0
   18.2795   43.3309  143.0131 C   0  0  0  0  0  0  0  0  0  0  0  0
   18.0578   42.1624  142.0977 C   0  0  0  0  0  0  0  0  0  0  0  0
   19.2674   41.6616  141.4894 C   0  0  0  0  0  0  0  0  0  0  0  0
   19.2127   40.5262  140.7937 C   0  0  0  0  0  0  0  0  0  0  0  0
   19.5950   34.5745  140.0399 H   0  0  0  0  0  0  0  0  0  0  0  0
   19.4941   36.2028  141.8231 C   0  0  0  0  0  0  0  0  0  0  0  0
   19.1913   35.9924  142.9518 C   0  0  0  0  0  0  0  0  0  0  0  0
 26 27  1  0  0  0
 27 28  1  0  0  0
 28 29  1  0  0  0
 29 30  1  0  0  0
 30 31  1  0  0  0
 30 32  2  0  0  0
 27  3  1  0  0  0
  3  4  1  0  0  0
  4  5  1  0  0  0
  5  6  1  0  0  0
  6  7  1  0  0  0
  7  8  1  0  0  0
  8  9  1  0  0  0
  8 10  1  0  0  0
 10 11  1  0  0  0
 11 12  1  0  0  0
 12 13  1  0  0  0
 13 14  1  0  0  0
 14 15  1  0  0  0
 15 16  1  0  0  0
 16 17  1  0  0  0
 16 18  1  0  0  0
 18 19  1  0  0  0
 19 20  1  0  0  0
 20 21  1  0  0  0
 20 22  1  0  0  0
 22 23  1  0  0  0
 13  2  1  0  0  0
  2  1  1  0  0  0
  1 34  1  0  0  0
 34 35  1  0  0  0
 35 36  1  0  0  0
 35 37  1  0  0  0
 37 38  2  0  0  0
 38 39  1  0  0  0
 39 40  2  0  0  0
 40 41  1  0  0  0
 41 42  2  0  0  0
 40 43  1  0  0  0
 43 44  1  0  0  0
 44 45  1  0  0  0
 45 46  1  0  0  0
 45 47  1  0  0  0
 47 48  1  0  0  0
 48 49  1  0  0  0
 49 50  1  0  0  0
 50 51  1  0  0  0
 50 64  1  0  0  0
 64 65  3  0  0  0
 47 52  1  0  0  0
 52 53  1  0  0  0
 53 54  1  0  0  0
 54 55  1  0  0  0
 55 56  2  0  0  0
 56 57  1  0  0  0
 57 58  2  0  0  0
 57 59  1  0  0  0
 59 60  1  0  0  0
 60 61  1  0  0  0
 61 62  2  0  0  0
 22  3  1  0  0  0
 42 37  1  0  0  0
 62 43  1  0  0  0
 22  6  1  0  0  0
 50 45  1  0  0  0
 62 52  1  0  0  0
 18  7  1  0  0  0
 61 55  1  0  0  0
 16 11  1  0  0  0
 31 33  1  0  0  0
  9 24  1  0  0  0
 21 25  1  0  0  0
 51 63  1  0  0  0
M  END
> <minimizedAffinity>
13.74079

> <CNNscore>
0.2280354500

> <CNNaffinity>
7.7068877220

> <CNN_VS>
1.7574436665

> <CNNaffinity_variance>
0.8382827640

$$$$
[H]C#C[C@]1(O[H])C([H])([H])C([H])([H])[C@@]2([H])[C@@]3([H])C(=C4C(=C([H])C(=O)C([H])([H])C4([H])[H])C([H])([H])C3([H])[H])[C@@]([H])(c3c([H])c([H])c(N(C([H])([H])[H])C([H])([H])C([H])([H])OC4([H])C([H])([H])C([H])([H])[C@]5(C([H])([H])[H])[C@@]6([H])C([H])([H])[C@]([H])(O[H])[C@@]7(C([H])([H])[H])[C@@]([H])(C([H])([H])C([H])([H])[C@]7([H])[C@]([H])(C([H])([H])[H])C([H])([H])C([H])([H])C(=O)O[H])[C@]6([H])[C@]([H])(O[H])C([H])([H])[C@]5([H])C4([H])[H])c([H])c3[H])C([H])([H])[C@]12C([H])([H])[H]


 65 73  0  0  0  0  0  0  0  0999 V2000
   12.9452   42.9600  137.2955 C   0  0  0  0  0  0  0  0  0  0  0  0
   12.5172   42.9043  136.0318 O   0  0  0  0  0  0  0  0  0  0  0  0
    8.1168   48.4025  130.0875 C   0  0  0  0  0  0  0  0  0  0  0  0
    8.8731   47.8110  128.9460 C   0  0  0  0  0  0  0  0  0  0  0  0
   10.0659   47.0816  129.5540 C   0  0  0  0  0  0  0  0  0  0  0  0
    9.5639   46.8084  130.9302 C   0  0  0  0  0  0  0  0  0  0  0  0
   10.5755   46.4719  131.9571 C   0  0  0  0  0  0  0  0  0  0  0  0
   11.1901   45.1064  131.5795 C   0  0  0  0  0  0  0  0  0  0  0  0
   10.2235   44.1304  131.6557 O   0  0  0  0  0  0  0  0  0  0  0  0
   12.2974   44.8900  132.5923 C   0  0  0  0  0  0  0  0  0  0  0  0
   11.7438   44.7746  133.9904 C   0  0  0  0  0  0  0  0  0  0  0  0
   11.0914   43.4383  134.2006 C   0  0  0  0  0  0  0  0  0  0  0  0
   11.2061   43.1557  135.7377 C   0  0  0  0  0  0  0  0  0  0  0  0
   10.7429   44.4252  136.3701 C   0  0  0  0  0  0  0  0  0  0  0  0
    9.9201   45.3149  135.4949 C   0  0  0  0  0  0  0  0  0  0  0  0
   10.7821   45.8755  134.3536 C   0  0  0  0  0  0  0  0  0  0  0  0
   11.6041   47.0323  134.8703 C   0  0  0  0  0  0  0  0  0  0  0  0
    9.8466   46.2336  133.2532 C   0  0  0  0  0  0  0  0  0  0  0  0
    8.9441   47.3577  133.6413 C   0  0  0  0  0  0  0  0  0  0  0  0
    8.0586   47.8282  132.5181 C   0  0  0  0  0  0  0  0  0  0  0  0
    7.1359   46.8523  132.2138 O   0  0  0  0  0  0  0  0  0  0  0  0
    8.9163   48.1535  131.3002 C   0  0  0  0  0  0  0  0  0  0  0  0
    9.9277   49.1735  131.6650 C   0  0  0  0  0  0  0  0  0  0  0  0
    9.8992   43.9312  130.7442 H   0  0  0  0  0  0  0  0  0  0  0  0
    6.8429   46.3363  133.0170 H   0  0  0  0  0  0  0  0  0  0  0  0
    5.9951   49.5414  129.9437 C   0  0  0  0  0  0  0  0  0  0  0  0
    7.5361   49.7522  129.8516 C   0  0  0  0  0  0  0  0  0  0  0  0
    7.7366   50.3293  128.4894 C   0  0  0  0  0  0  0  0  0  0  0  0
    6.5903   51.3041  128.1873 C   0  0  0  0  0  0  0  0  0  0  0  0
    7.0534   52.6723  127.9471 C   0  0  0  0  0  0  0  0  0  0  0  0
    7.7157   52.9040  126.7308 O   0  0  0  0  0  0  0  0  0  0  0  0
    6.8743   53.5825  128.7690 O   0  0  0  0  0  0  0  0  0  0  0  0
    7.3691   52.4447  125.8844 H   0  0  0  0  0  0  0  0  0  0  0  0
   14.3510   43.0499  137.7104 C   0  0  0  0  0  0  0  0  0  0  0  0
   14.7126   42.6268  139.0316 N   0  0  0  0  0  0  0  0  0  0  0  0
   14.2279   43.3515  140.1949 C   0  0  0  0  0  0  0  0  0  0  0  0
   15.5904   41.5045  139.2821 C   0  0  0  0  0  0  0  0  0  0  0  0
   16.2389   41.3650  140.4774 C   0  0  0  0  0  0  0  0  0  0  0  0
   17.1015   40.2956  140.7434 C   0  0  0  0  0  0  0  0  0  0  0  0
   17.3455   39.3215  139.8125 C   0  0  0  0  0  0  0  0  0  0  0  0
   16.6688   39.4823  138.5903 C   0  0  0  0  0  0  0  0  0  0  0  0
   15.8241   40.5345  138.3381 C   0  0  0  0  0  0  0  0  0  0  0  0
   18.2668   38.1724  140.0009 C   0  0  0  0  0  0  0  0  0  0  0  0
   17.5208   36.9349  140.4412 C   0  0  0  0  0  0  0  0  0  0  0  0
   17.5661   35.7418  139.6013 C   0  0  0  0  0  0  0  0  0  0  0  0
   16.4005   35.6137  138.6380 C   0  0  0  0  0  0  0  0  0  0  0  0
   18.9076   35.6594  138.8600 C   0  0  0  0  0  0  0  0  0  0  0  0
   18.8271   34.3426  138.2064 C   0  0  0  0  0  0  0  0  0  0  0  0
   18.1288   33.4751  139.2291 C   0  0  0  0  0  0  0  0  0  0  0  0
   17.6336   34.4212  140.3343 C   0  0  0  0  0  0  0  0  0  0  0  0
   16.3782   33.9732  140.7178 O   0  0  0  0  0  0  0  0  0  0  0  0
   18.8711   36.8640  137.9379 C   0  0  0  0  0  0  0  0  0  0  0  0
   19.6533   36.7602  136.7044 C   0  0  0  0  0  0  0  0  0  0  0  0
   21.0443   37.2820  136.7524 C   0  0  0  0  0  0  0  0  0  0  0  0
   21.0284   38.5924  137.4639 C   0  0  0  0  0  0  0  0  0  0  0  0
   21.8190   39.5688  137.0008 C   0  0  0  0  0  0  0  0  0  0  0  0
   21.7591   40.8241  137.7530 C   0  0  0  0  0  0  0  0  0  0  0  0
   21.7967   41.9035  137.1640 O   0  0  0  0  0  0  0  0  0  0  0  0
   21.6537   40.6751  139.2427 C   0  0  0  0  0  0  0  0  0  0  0  0
   20.3676   39.9427  139.4917 C   0  0  0  0  0  0  0  0  0  0  0  0
   20.1631   38.8118  138.6179 C   0  0  0  0  0  0  0  0  0  0  0  0
   19.1407   37.9917  138.8592 C   0  0  0  0  0  0  0  0  0  0  0  0
   16.4742   33.1686  141.2601 H   0  0  0  0  0  0  0  0  0  0  0  0
   18.5257   34.4304  141.4611 C   0  0  0  0  0  0  0  0  0  0  0  0
   19.2460   34.4421  142.4050 C   0  0  0  0  0  0  0  0  0  0  0  0
 26 27  1  0  0  0
 27 28  1  0  0  0
 28 29  1  0  0  0
 29 30  1  0  0  0
 30 31  1  0  0  0
 30 32  2  0  0  0
 27  3  1  0  0  0
  3  4  1  0  0  0
  4  5  1  0  0  0
  5  6  1  0  0  0
  6  7  1  0  0  0
  7  8  1  0  0  0
  8  9  1  0  0  0
  8 10  1  0  0  0
 10 11  1  0  0  0
 11 12  1  0  0  0
 12 13  1  0  0  0
 13 14  1  0  0  0
 14 15  1  0  0  0
 15 16  1  0  0  0
 16 17  1  0  0  0
 16 18  1  0  0  0
 18 19  1  0  0  0
 19 20  1  0  0  0
 20 21  1  0  0  0
 20 22  1  0  0  0
 22 23  1  0  0  0
 13  2  1  0  0  0
  2  1  1  0  0  0
  1 34  1  0  0  0
 34 35  1  0  0  0
 35 36  1  0  0  0
 35 37  1  0  0  0
 37 38  2  0  0  0
 38 39  1  0  0  0
 39 40  2  0  0  0
 40 41  1  0  0  0
 41 42  2  0  0  0
 40 43  1  0  0  0
 43 44  1  0  0  0
 44 45  1  0  0  0
 45 46  1  0  0  0
 45 47  1  0  0  0
 47 48  1  0  0  0
 48 49  1  0  0  0
 49 50  1  0  0  0
 50 51  1  0  0  0
 50 64  1  0  0  0
 64 65  3  0  0  0
 47 52  1  0  0  0
 52 53  1  0  0  0
 53 54  1  0  0  0
 54 55  1  0  0  0
 55 56  2  0  0  0
 56 57  1  0  0  0
 57 58  2  0  0  0
 57 59  1  0  0  0
 59 60  1  0  0  0
 60 61  1  0  0  0
 61 62  2  0  0  0
 22  3  1  0  0  0
 42 37  1  0  0  0
 62 43  1  0  0  0
 22  6  1  0  0  0
 50 45  1  0  0  0
 62 52  1  0  0  0
 18  7  1  0  0  0
 61 55  1  0  0  0
 16 11  1  0  0  0
 31 33  1  0  0  0
  9 24  1  0  0  0
 21 25  1  0  0  0
 51 63  1  0  0  0
M  END
> <minimizedAffinity>
14.05951

> <CNNscore>
0.2237856835

> <CNNaffinity>
7.8884687424

> <CNN_VS>
1.7653263807

> <CNNaffinity_variance>
1.2139335871

$$$$
[H]C#C[C@]1(O[H])C([H])([H])C([H])([H])[C@@]2([H])[C@@]3([H])C(=C4C(=C([H])C(=O)C([H])([H])C4([H])[H])C([H])([H])C3([H])[H])[C@@]([H])(c3c([H])c([H])c(N(C([H])([H])[H])C([H])([H])C([H])([H])OC4([H])C([H])([H])C([H])([H])[C@]5(C([H])([H])[H])[C@@]6([H])C([H])([H])[C@]([H])(O[H])[C@@]7(C([H])([H])[H])[C@@]([H])(C([H])([H])C([H])([H])[C@]7([H])[C@]([H])(C([H])([H])[H])C([H])([H])C([H])([H])C(=O)O[H])[C@]6([H])[C@]([H])(O[H])C([H])([H])[C@]5([H])C4([H])[H])c([H])c3[H])C([H])([H])[C@]12C([H])([H])[H]


 65 73  0  0  0  0  0  0  0  0999 V2000
   12.6147   43.1869  136.4822 C   0  0  0  0  0  0  0  0  0  0  0  0
   12.1679   42.6481  135.3450 O   0  0  0  0  0  0  0  0  0  0  0  0
    8.3028   49.3933  130.3961 C   0  0  0  0  0  0  0  0  0  0  0  0
    8.3975   50.3280  131.5547 C   0  0  0  0  0  0  0  0  0  0  0  0
    8.6405   49.4618  132.7855 C   0  0  0  0  0  0  0  0  0  0  0  0
    9.2518   48.2512  132.1683 C   0  0  0  0  0  0  0  0  0  0  0  0
    9.2615   47.0162  132.9842 C   0  0  0  0  0  0  0  0  0  0  0  0
   10.2029   47.2552  134.1847 C   0  0  0  0  0  0  0  0  0  0  0  0
   11.4904   47.4286  133.7319 O   0  0  0  0  0  0  0  0  0  0  0  0
   10.0631   46.0091  135.0370 C   0  0  0  0  0  0  0  0  0  0  0  0
   10.5552   44.7872  134.3026 C   0  0  0  0  0  0  0  0  0  0  0  0
   12.0559   44.7603  134.2508 C   0  0  0  0  0  0  0  0  0  0  0  0
   12.4422   43.2452  134.1463 C   0  0  0  0  0  0  0  0  0  0  0  0
   11.5553   42.7239  133.0658 C   0  0  0  0  0  0  0  0  0  0  0  0
   10.9850   43.7579  132.1491 C   0  0  0  0  0  0  0  0  0  0  0  0
    9.9935   44.6497  132.9117 C   0  0  0  0  0  0  0  0  0  0  0  0
    8.6698   43.9329  133.0350 C   0  0  0  0  0  0  0  0  0  0  0  0
    9.9247   45.9373  132.1692 C   0  0  0  0  0  0  0  0  0  0  0  0
    9.3207   45.7610  130.8153 C   0  0  0  0  0  0  0  0  0  0  0  0
    9.1270   47.0571  130.0740 C   0  0  0  0  0  0  0  0  0  0  0  0
   10.3526   47.5891  129.7403 O   0  0  0  0  0  0  0  0  0  0  0  0
    8.3414   48.0277  130.9488 C   0  0  0  0  0  0  0  0  0  0  0  0
    7.0467   47.4149  131.3290 C   0  0  0  0  0  0  0  0  0  0  0  0
   11.6982   48.3943  133.7240 H   0  0  0  0  0  0  0  0  0  0  0  0
   11.0322   46.8879  129.5313 H   0  0  0  0  0  0  0  0  0  0  0  0
    7.5871   51.2289  129.0041 C   0  0  0  0  0  0  0  0  0  0  0  0
    7.2911   49.7417  129.3619 C   0  0  0  0  0  0  0  0  0  0  0  0
    5.8670   49.7588  129.8097 C   0  0  0  0  0  0  0  0  0  0  0  0
    5.0798   48.7133  129.0079 C   0  0  0  0  0  0  0  0  0  0  0  0
    5.9436   47.8167  128.2371 C   0  0  0  0  0  0  0  0  0  0  0  0
    6.0006   46.4810  128.6665 O   0  0  0  0  0  0  0  0  0  0  0  0
    6.5931   48.2086  127.2570 O   0  0  0  0  0  0  0  0  0  0  0  0
    5.1410   46.0288  128.9890 H   0  0  0  0  0  0  0  0  0  0  0  0
   13.2514   42.4452  137.5781 C   0  0  0  0  0  0  0  0  0  0  0  0
   14.6757   42.2818  137.5692 N   0  0  0  0  0  0  0  0  0  0  0  0
   15.4978   43.0406  136.6409 C   0  0  0  0  0  0  0  0  0  0  0  0
   15.3626   41.3480  138.4348 C   0  0  0  0  0  0  0  0  0  0  0  0
   16.1705   41.7834  139.4478 C   0  0  0  0  0  0  0  0  0  0  0  0
   16.8551   40.9033  140.2935 C   0  0  0  0  0  0  0  0  0  0  0  0
   16.7522   39.5452  140.1511 C   0  0  0  0  0  0  0  0  0  0  0  0
   15.9163   39.1174  139.1044 C   0  0  0  0  0  0  0  0  0  0  0  0
   15.2483   39.9880  138.2797 C   0  0  0  0  0  0  0  0  0  0  0  0
   17.4656   38.5434  140.9830 C   0  0  0  0  0  0  0  0  0  0  0  0
   16.8792   37.1626  140.8060 C   0  0  0  0  0  0  0  0  0  0  0  0
   17.7282   36.0907  140.2949 C   0  0  0  0  0  0  0  0  0  0  0  0
   17.6360   35.8850  138.7941 C   0  0  0  0  0  0  0  0  0  0  0  0
   19.1830   36.3035  140.7353 C   0  0  0  0  0  0  0  0  0  0  0  0
   19.8379   35.0700  140.2697 C   0  0  0  0  0  0  0  0  0  0  0  0
   18.8033   33.9963  140.5205 C   0  0  0  0  0  0  0  0  0  0  0  0
   17.5066   34.7256  140.9057 C   0  0  0  0  0  0  0  0  0  0  0  0
   16.4632   34.0448  140.2960 O   0  0  0  0  0  0  0  0  0  0  0  0
   19.5811   37.5804  140.0185 C   0  0  0  0  0  0  0  0  0  0  0  0
   21.0053   37.7373  139.7164 C   0  0  0  0  0  0  0  0  0  0  0  0
   21.8229   38.4649  140.7221 C   0  0  0  0  0  0  0  0  0  0  0  0
   21.0624   39.6706  141.1598 C   0  0  0  0  0  0  0  0  0  0  0  0
   21.7447   40.8047  141.3627 C   0  0  0  0  0  0  0  0  0  0  0  0
   20.9359   41.9450  141.7996 C   0  0  0  0  0  0  0  0  0  0  0  0
   21.1733   43.0744  141.3735 O   0  0  0  0  0  0  0  0  0  0  0  0
   19.8410   41.6195  142.7731 C   0  0  0  0  0  0  0  0  0  0  0  0
   18.9253   40.6695  142.0579 C   0  0  0  0  0  0  0  0  0  0  0  0
   19.6157   39.6227  141.3427 C   0  0  0  0  0  0  0  0  0  0  0  0
   18.9021   38.6293  140.8135 C   0  0  0  0  0  0  0  0  0  0  0  0
   16.2981   33.2113  140.7744 H   0  0  0  0  0  0  0  0  0  0  0  0
   17.3191   34.7533  142.3304 C   0  0  0  0  0  0  0  0  0  0  0  0
   17.1748   34.7950  143.5083 C   0  0  0  0  0  0  0  0  0  0  0  0
 26 27  1  0  0  0
 27 28  1  0  0  0
 28 29  1  0  0  0
 29 30  1  0  0  0
 30 31  1  0  0  0
 30 32  2  0  0  0
 27  3  1  0  0  0
  3  4  1  0  0  0
  4  5  1  0  0  0
  5  6  1  0  0  0
  6  7  1  0  0  0
  7  8  1  0  0  0
  8  9  1  0  0  0
  8 10  1  0  0  0
 10 11  1  0  0  0
 11 12  1  0  0  0
 12 13  1  0  0  0
 13 14  1  0  0  0
 14 15  1  0  0  0
 15 16  1  0  0  0
 16 17  1  0  0  0
 16 18  1  0  0  0
 18 19  1  0  0  0
 19 20  1  0  0  0
 20 21  1  0  0  0
 20 22  1  0  0  0
 22 23  1  0  0  0
 13  2  1  0  0  0
  2  1  1  0  0  0
  1 34  1  0  0  0
 34 35  1  0  0  0
 35 36  1  0  0  0
 35 37  1  0  0  0
 37 38  2  0  0  0
 38 39  1  0  0  0
 39 40  2  0  0  0
 40 41  1  0  0  0
 41 42  2  0  0  0
 40 43  1  0  0  0
 43 44  1  0  0  0
 44 45  1  0  0  0
 45 46  1  0  0  0
 45 47  1  0  0  0
 47 48  1  0  0  0
 48 49  1  0  0  0
 49 50  1  0  0  0
 50 51  1  0  0  0
 50 64  1  0  0  0
 64 65  3  0  0  0
 47 52  1  0  0  0
 52 53  1  0  0  0
 53 54  1  0  0  0
 54 55  1  0  0  0
 55 56  2  0  0  0
 56 57  1  0  0  0
 57 58  2  0  0  0
 57 59  1  0  0  0
 59 60  1  0  0  0
 60 61  1  0  0  0
 61 62  2  0  0  0
 22  3  1  0  0  0
 42 37  1  0  0  0
 62 43  1  0  0  0
 22  6  1  0  0  0
 50 45  1  0  0  0
 62 52  1  0  0  0
 18  7  1  0  0  0
 61 55  1  0  0  0
 16 11  1  0  0  0
 31 33  1  0  0  0
  9 24  1  0  0  0
 21 25  1  0  0  0
 51 63  1  0  0  0
M  END
> <minimizedAffinity>
10.87462

> <CNNscore>
0.1605540365

> <CNNaffinity>
7.6599721909

> <CNN_VS>
1.2298394442

> <CNNaffinity_variance>
0.8695241213

$$$$
[H]C#C[C@]1(O[H])C([H])([H])C([H])([H])[C@@]2([H])[C@@]3([H])C(=C4C(=C([H])C(=O)C([H])([H])C4([H])[H])C([H])([H])C3([H])[H])[C@@]([H])(c3c([H])c([H])c(N(C([H])([H])[H])C([H])([H])C([H])([H])OC4([H])C([H])([H])C([H])([H])[C@]5(C([H])([H])[H])[C@@]6([H])C([H])([H])[C@]([H])(O[H])[C@@]7(C([H])([H])[H])[C@@]([H])(C([H])([H])C([H])([H])[C@]7([H])[C@]([H])(C([H])([H])[H])C([H])([H])C([H])([H])C(=O)O[H])[C@]6([H])[C@]([H])(O[H])C([H])([H])[C@]5([H])C4([H])[H])c([H])c3[H])C([H])([H])[C@]12C([H])([H])[H]


 65 73  0  0  0  0  0  0  0  0999 V2000
   13.9402   43.4388  135.9363 C   0  0  0  0  0  0  0  0  0  0  0  0
   13.0516   43.1192  134.9922 O   0  0  0  0  0  0  0  0  0  0  0  0
    8.3714   49.4565  130.2106 C   0  0  0  0  0  0  0  0  0  0  0  0
    8.5726   50.4576  131.2978 C   0  0  0  0  0  0  0  0  0  0  0  0
    8.9947   49.6702  132.5331 C   0  0  0  0  0  0  0  0  0  0  0  0
    9.5698   48.4450  131.9096 C   0  0  0  0  0  0  0  0  0  0  0  0
    9.7233   47.2590  132.7820 C   0  0  0  0  0  0  0  0  0  0  0  0
   10.7946   47.5934  133.8427 C   0  0  0  0  0  0  0  0  0  0  0  0
   12.0103   47.7786  133.2259 O   0  0  0  0  0  0  0  0  0  0  0  0
   10.8048   46.3939  134.7701 C   0  0  0  0  0  0  0  0  0  0  0  0
   11.2477   45.1474  134.0459 C   0  0  0  0  0  0  0  0  0  0  0  0
   12.7309   45.1618  133.8107 C   0  0  0  0  0  0  0  0  0  0  0  0
   13.1562   43.6553  133.7391 C   0  0  0  0  0  0  0  0  0  0  0  0
   12.1637   43.0476  132.8054 C   0  0  0  0  0  0  0  0  0  0  0  0
   11.4491   44.0108  131.9130 C   0  0  0  0  0  0  0  0  0  0  0  0
   10.5262   44.9148  132.7442 C   0  0  0  0  0  0  0  0  0  0  0  0
    9.2541   44.1676  133.0676 C   0  0  0  0  0  0  0  0  0  0  0  0
   10.3209   46.1557  131.9492 C   0  0  0  0  0  0  0  0  0  0  0  0
    9.5634   45.8853  130.6915 C   0  0  0  0  0  0  0  0  0  0  0  0
    9.2342   47.1310  129.9125 C   0  0  0  0  0  0  0  0  0  0  0  0
   10.3901   47.6791  129.4025 O   0  0  0  0  0  0  0  0  0  0  0  0
    8.5264   48.1261  130.8254 C   0  0  0  0  0  0  0  0  0  0  0  0
    7.3106   47.4980  131.3944 C   0  0  0  0  0  0  0  0  0  0  0  0
   12.1805   48.7480  133.1415 H   0  0  0  0  0  0  0  0  0  0  0  0
   11.0640   46.9875  129.1483 H   0  0  0  0  0  0  0  0  0  0  0  0
    7.3726   51.2159  128.8967 C   0  0  0  0  0  0  0  0  0  0  0  0
    7.2294   49.7158  129.2924 C   0  0  0  0  0  0  0  0  0  0  0  0
    5.8656   49.6340  129.8942 C   0  0  0  0  0  0  0  0  0  0  0  0
    4.9519   48.8383  128.9521 C   0  0  0  0  0  0  0  0  0  0  0  0
    5.2711   47.4095  128.9200 C   0  0  0  0  0  0  0  0  0  0  0  0
    4.4397   46.5657  129.6739 O   0  0  0  0  0  0  0  0  0  0  0  0
    6.2231   46.9615  128.2649 O   0  0  0  0  0  0  0  0  0  0  0  0
    3.4331   46.7504  129.6904 H   0  0  0  0  0  0  0  0  0  0  0  0
   15.2904   42.8736  136.0547 C   0  0  0  0  0  0  0  0  0  0  0  0
   15.9244   42.8556  137.3405 N   0  0  0  0  0  0  0  0  0  0  0  0
   16.1331   44.0922  138.0756 C   0  0  0  0  0  0  0  0  0  0  0  0
   16.4175   41.6416  137.9539 C   0  0  0  0  0  0  0  0  0  0  0  0
   17.5553   41.0319  137.5040 C   0  0  0  0  0  0  0  0  0  0  0  0
   18.0495   39.8519  138.0712 C   0  0  0  0  0  0  0  0  0  0  0  0
   17.4146   39.2377  139.1175 C   0  0  0  0  0  0  0  0  0  0  0  0
   16.2471   39.8804  139.5662 C   0  0  0  0  0  0  0  0  0  0  0  0
   15.7696   41.0380  139.0038 C   0  0  0  0  0  0  0  0  0  0  0  0
   17.8527   37.9713  139.7569 C   0  0  0  0  0  0  0  0  0  0  0  0
   17.6538   36.7914  138.8350 C   0  0  0  0  0  0  0  0  0  0  0  0
   18.8130   35.9997  138.4345 C   0  0  0  0  0  0  0  0  0  0  0  0
   19.4263   36.4187  137.1111 C   0  0  0  0  0  0  0  0  0  0  0  0
   19.8652   35.9874  139.5521 C   0  0  0  0  0  0  0  0  0  0  0  0
   20.8615   35.0335  139.0377 C   0  0  0  0  0  0  0  0  0  0  0  0
   20.0263   33.9709  138.3597 C   0  0  0  0  0  0  0  0  0  0  0  0
   18.5872   34.5090  138.3230 C   0  0  0  0  0  0  0  0  0  0  0  0
   18.0536   34.1531  137.0932 O   0  0  0  0  0  0  0  0  0  0  0  0
   20.3084   37.4366  139.6295 C   0  0  0  0  0  0  0  0  0  0  0  0
   21.6692   37.6732  140.1160 C   0  0  0  0  0  0  0  0  0  0  0  0
   21.8218   37.9167  141.5743 C   0  0  0  0  0  0  0  0  0  0  0  0
   20.7495   38.8586  142.0064 C   0  0  0  0  0  0  0  0  0  0  0  0
   21.0645   39.8005  142.9044 C   0  0  0  0  0  0  0  0  0  0  0  0
   19.9613   40.6838  143.2892 C   0  0  0  0  0  0  0  0  0  0  0  0
   20.1610   41.8841  143.4705 O   0  0  0  0  0  0  0  0  0  0  0  0
   18.6255   40.0155  143.4357 C   0  0  0  0  0  0  0  0  0  0  0  0
   18.2976   39.4533  142.0833 C   0  0  0  0  0  0  0  0  0  0  0  0
   19.4023   38.7702  141.4533 C   0  0  0  0  0  0  0  0  0  0  0  0
   19.1784   38.0893  140.3298 C   0  0  0  0  0  0  0  0  0  0  0  0
   17.8432   33.2011  137.0957 H   0  0  0  0  0  0  0  0  0  0  0  0
   17.7917   33.9635  139.3886 C   0  0  0  0  0  0  0  0  0  0  0  0
   17.1517   33.5014  140.2755 C   0  0  0  0  0  0  0  0  0  0  0  0
 26 27  1  0  0  0
 27 28  1  0  0  0
 28 29  1  0  0  0
 29 30  1  0  0  0
 30 31  1  0  0  0
 30 32  2  0  0  0
 27  3  1  0  0  0
  3  4  1  0  0  0
  4  5  1  0  0  0
  5  6  1  0  0  0
  6  7  1  0  0  0
  7  8  1  0  0  0
  8  9  1  0  0  0
  8 10  1  0  0  0
 10 11  1  0  0  0
 11 12  1  0  0  0
 12 13  1  0  0  0
 13 14  1  0  0  0
 14 15  1  0  0  0
 15 16  1  0  0  0
 16 17  1  0  0  0
 16 18  1  0  0  0
 18 19  1  0  0  0
 19 20  1  0  0  0
 20 21  1  0  0  0
 20 22  1  0  0  0
 22 23  1  0  0  0
 13  2  1  0  0  0
  2  1  1  0  0  0
  1 34  1  0  0  0
 34 35  1  0  0  0
 35 36  1  0  0  0
 35 37  1  0  0  0
 37 38  2  0  0  0
 38 39  1  0  0  0
 39 40  2  0  0  0
 40 41  1  0  0  0
 41 42  2  0  0  0
 40 43  1  0  0  0
 43 44  1  0  0  0
 44 45  1  0  0  0
 45 46  1  0  0  0
 45 47  1  0  0  0
 47 48  1  0  0  0
 48 49  1  0  0  0
 49 50  1  0  0  0
 50 51  1  0  0  0
 50 64  1  0  0  0
 64 65  3  0  0  0
 47 52  1  0  0  0
 52 53  1  0  0  0
 53 54  1  0  0  0
 54 55  1  0  0  0
 55 56  2  0  0  0
 56 57  1  0  0  0
 57 58  2  0  0  0
 57 59  1  0  0  0
 59 60  1  0  0  0
 60 61  1  0  0  0
 61 62  2  0  0  0
 22  3  1  0  0  0
 42 37  1  0  0  0
 62 43  1  0  0  0
 22  6  1  0  0  0
 50 45  1  0  0  0
 62 52  1  0  0  0
 18  7  1  0  0  0
 61 55  1  0  0  0
 16 11  1  0  0  0
 31 33  1  0  0  0
  9 24  1  0  0  0
 21 25  1  0  0  0
 51 63  1  0  0  0
M  END
> <minimizedAffinity>
9.24782

> <CNNscore>
0.1496465206

> <CNNaffinity>
7.4777708054

> <CNN_VS>
1.1190223694

> <CNNaffinity_variance>
0.8977610469

$$$$
[H]C#C[C@]1(O[H])C([H])([H])C([H])([H])[C@@]2([H])[C@@]3([H])C(=C4C(=C([H])C(=O)C([H])([H])C4([H])[H])C([H])([H])C3([H])[H])[C@@]([H])(c3c([H])c([H])c(N(C([H])([H])[H])C([H])([H])C([H])([H])OC4([H])C([H])([H])C([H])([H])[C@]5(C([H])([H])[H])[C@@]6([H])C([H])([H])[C@]([H])(O[H])[C@@]7(C([H])([H])[H])[C@@]([H])(C([H])([H])C([H])([H])[C@]7([H])[C@]([H])(C([H])([H])[H])C([H])([H])C([H])([H])C(=O)O[H])[C@]6([H])[C@]([H])(O[H])C([H])([H])[C@]5([H])C4([H])[H])c([H])c3[H])C([H])([H])[C@]12C([H])([H])[H]


 65 73  0  0  0  0  0  0  0  0999 V2000
   14.8159   42.8573  136.4898 C   0  0  0  0  0  0  0  0  0  0  0  0
   14.1573   43.2400  135.3929 O   0  0  0  0  0  0  0  0  0  0  0  0
    7.7134   46.2239  129.5192 C   0  0  0  0  0  0  0  0  0  0  0  0
    7.4047   44.8228  129.1112 C   0  0  0  0  0  0  0  0  0  0  0  0
    8.5773   43.9705  129.5835 C   0  0  0  0  0  0  0  0  0  0  0  0
    9.1089   44.8058  130.6971 C   0  0  0  0  0  0  0  0  0  0  0  0
   10.4887   44.5186  131.1494 C   0  0  0  0  0  0  0  0  0  0  0  0
   10.4878   43.1153  131.7940 C   0  0  0  0  0  0  0  0  0  0  0  0
    9.7058   43.1298  132.9258 O   0  0  0  0  0  0  0  0  0  0  0  0
   11.9439   42.8377  132.1127 C   0  0  0  0  0  0  0  0  0  0  0  0
   12.4750   43.8126  133.1335 C   0  0  0  0  0  0  0  0  0  0  0  0
   11.9608   43.4854  134.5062 C   0  0  0  0  0  0  0  0  0  0  0  0
   13.0457   44.0286  135.4979 C   0  0  0  0  0  0  0  0  0  0  0  0
   13.3153   45.4125  135.0099 C   0  0  0  0  0  0  0  0  0  0  0  0
   12.2513   46.0060  134.1437 C   0  0  0  0  0  0  0  0  0  0  0  0
   12.1786   45.2528  132.8067 C   0  0  0  0  0  0  0  0  0  0  0  0
   13.2828   45.7396  131.8985 C   0  0  0  0  0  0  0  0  0  0  0  0
   10.8070   45.4703  132.2723 C   0  0  0  0  0  0  0  0  0  0  0  0
   10.5736   46.9022  131.9202 C   0  0  0  0  0  0  0  0  0  0  0  0
    9.2382   47.1475  131.2693 C   0  0  0  0  0  0  0  0  0  0  0  0
    8.2302   46.9412  132.1848 O   0  0  0  0  0  0  0  0  0  0  0  0
    9.0779   46.2125  130.0757 C   0  0  0  0  0  0  0  0  0  0  0  0
   10.1971   46.4239  129.1274 C   0  0  0  0  0  0  0  0  0  0  0  0
    8.8265   42.7345  132.7108 H   0  0  0  0  0  0  0  0  0  0  0  0
    8.4911   47.2087  133.1108 H   0  0  0  0  0  0  0  0  0  0  0  0
    8.5685   48.2117  128.4530 C   0  0  0  0  0  0  0  0  0  0  0  0
    7.3211   47.2834  128.5508 C   0  0  0  0  0  0  0  0  0  0  0  0
    6.2260   48.2014  128.9830 C   0  0  0  0  0  0  0  0  0  0  0  0
    6.6838   49.6526  128.7829 C   0  0  0  0  0  0  0  0  0  0  0  0
    6.8319   50.3829  130.0435 C   0  0  0  0  0  0  0  0  0  0  0  0
    8.1392   50.7437  130.4074 O   0  0  0  0  0  0  0  0  0  0  0  0
    5.8599   50.6706  130.7566 O   0  0  0  0  0  0  0  0  0  0  0  0
    8.7831   51.0663  129.6802 H   0  0  0  0  0  0  0  0  0  0  0  0
   16.2127   42.4052  136.5245 C   0  0  0  0  0  0  0  0  0  0  0  0
   16.8759   42.2990  137.7911 N   0  0  0  0  0  0  0  0  0  0  0  0
   17.0820   43.4787  138.6152 C   0  0  0  0  0  0  0  0  0  0  0  0
   17.4018   41.0501  138.2978 C   0  0  0  0  0  0  0  0  0  0  0  0
   18.7438   40.7902  138.2876 C   0  0  0  0  0  0  0  0  0  0  0  0
   19.2793   39.5872  138.7615 C   0  0  0  0  0  0  0  0  0  0  0  0
   18.4810   38.5955  139.2658 C   0  0  0  0  0  0  0  0  0  0  0  0
   17.1043   38.8822  139.2683 C   0  0  0  0  0  0  0  0  0  0  0  0
   16.5877   40.0652  138.8016 C   0  0  0  0  0  0  0  0  0  0  0  0
   18.9624   37.2807  139.7600 C   0  0  0  0  0  0  0  0  0  0  0  0
   18.3411   36.9319  141.0919 C   0  0  0  0  0  0  0  0  0  0  0  0
   17.5308   35.7227  141.2027 C   0  0  0  0  0  0  0  0  0  0  0  0
   16.0416   35.9521  141.0214 C   0  0  0  0  0  0  0  0  0  0  0  0
   18.0450   34.6433  140.2401 C   0  0  0  0  0  0  0  0  0  0  0  0
   17.2222   33.4779  140.6035 C   0  0  0  0  0  0  0  0  0  0  0  0
   17.0955   33.5810  142.1066 C   0  0  0  0  0  0  0  0  0  0  0  0
   17.6680   34.9529  142.4966 C   0  0  0  0  0  0  0  0  0  0  0  0
   16.8518   35.4626  143.4955 O   0  0  0  0  0  0  0  0  0  0  0  0
   17.7827   35.2432  138.8712 C   0  0  0  0  0  0  0  0  0  0  0  0
   17.5751   34.2935  137.7761 C   0  0  0  0  0  0  0  0  0  0  0  0
   18.7769   33.9122  136.9890 C   0  0  0  0  0  0  0  0  0  0  0  0
   19.5623   35.1477  136.7056 C   0  0  0  0  0  0  0  0  0  0  0  0
   20.1309   35.2682  135.4994 C   0  0  0  0  0  0  0  0  0  0  0  0
   20.8937   36.5016  135.2941 C   0  0  0  0  0  0  0  0  0  0  0  0
   20.8563   37.0819  134.2100 O   0  0  0  0  0  0  0  0  0  0  0  0
   21.6898   36.9682  136.4778 C   0  0  0  0  0  0  0  0  0  0  0  0
   20.6901   37.2361  137.5646 C   0  0  0  0  0  0  0  0  0  0  0  0
   19.6913   36.2032  137.7045 C   0  0  0  0  0  0  0  0  0  0  0  0
   18.8579   36.2536  138.7432 C   0  0  0  0  0  0  0  0  0  0  0  0
   17.0348   34.9958  144.3317 H   0  0  0  0  0  0  0  0  0  0  0  0
   19.0226   34.8464  142.9651 C   0  0  0  0  0  0  0  0  0  0  0  0
   20.1468   34.7760  143.3406 C   0  0  0  0  0  0  0  0  0  0  0  0
 26 27  1  0  0  0
 27 28  1  0  0  0
 28 29  1  0  0  0
 29 30  1  0  0  0
 30 31  1  0  0  0
 30 32  2  0  0  0
 27  3  1  0  0  0
  3  4  1  0  0  0
  4  5  1  0  0  0
  5  6  1  0  0  0
  6  7  1  0  0  0
  7  8  1  0  0  0
  8  9  1  0  0  0
  8 10  1  0  0  0
 10 11  1  0  0  0
 11 12  1  0  0  0
 12 13  1  0  0  0
 13 14  1  0  0  0
 14 15  1  0  0  0
 15 16  1  0  0  0
 16 17  1  0  0  0
 16 18  1  0  0  0
 18 19  1  0  0  0
 19 20  1  0  0  0
 20 21  1  0  0  0
 20 22  1  0  0  0
 22 23  1  0  0  0
 13  2  1  0  0  0
  2  1  1  0  0  0
  1 34  1  0  0  0
 34 35  1  0  0  0
 35 36  1  0  0  0
 35 37  1  0  0  0
 37 38  2  0  0  0
 38 39  1  0  0  0
 39 40  2  0  0  0
 40 41  1  0  0  0
 41 42  2  0  0  0
 40 43  1  0  0  0
 43 44  1  0  0  0
 44 45  1  0  0  0
 45 46  1  0  0  0
 45 47  1  0  0  0
 47 48  1  0  0  0
 48 49  1  0  0  0
 49 50  1  0  0  0
 50 51  1  0  0  0
 50 64  1  0  0  0
 64 65  3  0  0  0
 47 52  1  0  0  0
 52 53  1  0  0  0
 53 54  1  0  0  0
 54 55  1  0  0  0
 55 56  2  0  0  0
 56 57  1  0  0  0
 57 58  2  0  0  0
 57 59  1  0  0  0
 59 60  1  0  0  0
 60 61  1  0  0  0
 61 62  2  0  0  0
 22  3  1  0  0  0
 42 37  1  0  0  0
 62 43  1  0  0  0
 22  6  1  0  0  0
 50 45  1  0  0  0
 62 52  1  0  0  0
 18  7  1  0  0  0
 61 55  1  0  0  0
 16 11  1  0  0  0
 31 33  1  0  0  0
  9 24  1  0  0  0
 21 25  1  0  0  0
 51 63  1  0  0  0
M  END
> <minimizedAffinity>
7.94059

> <CNNscore>
0.1415953189

> <CNNaffinity>
7.6216115952

> <CNN_VS>
1.0791845322

> <CNNaffinity_variance>
1.2108235359

$$$$
[H]Oc1c([H])c([H])c2c(c1[H])C([H])([H])C([H])([H])C([H])([H])C(c1c([H])nc(OC([H])([H])[H])c([H])c1[H])=C2c1c([H])c([H])c(O[C@]2([H])C([H])([H])N(C([H])([H])C([H])([H])C([H])([H])F)C([H])([H])C2([H])[H])c([H])c1[H]


 37 41  0  0  0  0  0  0  0  0999 V2000
    9.5934   49.3293  132.9338 C   0  0  0  0  0  0  0  0  0  0  0  0
    9.1870   48.3684  132.1181 C   0  0  0  0  0  0  0  0  0  0  0  0
    8.1039   48.4299  131.0934 C   0  0  0  0  0  0  0  0  0  0  0  0
    7.5112   47.2121  130.8120 C   0  0  0  0  0  0  0  0  0  0  0  0
    6.5069   47.1133  129.8744 C   0  0  0  0  0  0  0  0  0  0  0  0
    6.0852   48.2294  129.2102 C   0  0  0  0  0  0  0  0  0  0  0  0
    5.0762   48.1176  128.2686 O   0  0  0  0  0  0  0  0  0  0  0  0
    6.6885   49.4606  129.5015 C   0  0  0  0  0  0  0  0  0  0  0  0
    7.7020   49.5751  130.4443 C   0  0  0  0  0  0  0  0  0  0  0  0
    8.1066   50.9978  130.5348 C   0  0  0  0  0  0  0  0  0  0  0  0
    9.2289   51.2537  131.4957 C   0  0  0  0  0  0  0  0  0  0  0  0
    8.9938   50.7320  132.8864 C   0  0  0  0  0  0  0  0  0  0  0  0
    4.1109   48.2278  128.5863 H   0  0  0  0  0  0  0  0  0  0  0  0
   12.6578   48.9228  135.8185 C   0  0  0  0  0  0  0  0  0  0  0  0
   11.8550   47.8528  135.5530 C   0  0  0  0  0  0  0  0  0  0  0  0
   10.8698   47.9468  134.6051 C   0  0  0  0  0  0  0  0  0  0  0  0
   10.6376   49.1083  133.8784 C   0  0  0  0  0  0  0  0  0  0  0  0
   11.4847   50.1443  134.2005 C   0  0  0  0  0  0  0  0  0  0  0  0
   12.4654   50.0568  135.1404 N   0  0  0  0  0  0  0  0  0  0  0  0
   14.7810   47.9618  136.4607 C   0  0  0  0  0  0  0  0  0  0  0  0
   13.6616   48.7948  136.7984 O   0  0  0  0  0  0  0  0  0  0  0  0
    9.7928   47.0588  132.1681 C   0  0  0  0  0  0  0  0  0  0  0  0
    9.2899   46.0879  132.9872 C   0  0  0  0  0  0  0  0  0  0  0  0
    9.8983   44.8654  133.0813 C   0  0  0  0  0  0  0  0  0  0  0  0
   11.0457   44.5849  132.3422 C   0  0  0  0  0  0  0  0  0  0  0  0
   11.5592   45.5646  131.5115 C   0  0  0  0  0  0  0  0  0  0  0  0
   10.9161   46.7695  131.4514 C   0  0  0  0  0  0  0  0  0  0  0  0
   11.6974   43.3669  132.4026 O   0  0  0  0  0  0  0  0  0  0  0  0
   11.5313   42.2736  131.5647 C   0  0  0  0  0  0  0  0  0  0  0  0
   10.3467   41.4018  132.0045 C   0  0  0  0  0  0  0  0  0  0  0  0
    9.4955   41.2155  130.7529 C   0  0  0  0  0  0  0  0  0  0  0  0
   10.4337   41.5055  129.6962 N   0  0  0  0  0  0  0  0  0  0  0  0
   11.0669   42.7051  130.1835 C   0  0  0  0  0  0  0  0  0  0  0  0
    9.8440   41.6327  128.3990 C   0  0  0  0  0  0  0  0  0  0  0  0
    9.9813   43.0879  127.9718 C   0  0  0  0  0  0  0  0  0  0  0  0
    8.8144   43.8239  128.6230 C   0  0  0  0  0  0  0  0  0  0  0  0
    9.2151   45.0947  129.0125 F   0  0  0  0  0  0  0  0  0  0  0  0
 20 21  1  0  0  0
 21 14  1  0  0  0
 14 15  2  0  0  0
 15 16  1  0  0  0
 16 17  2  0  0  0
 17 18  1  0  0  0
 18 19  2  0  0  0
 17  1  1  0  0  0
  1  2  2  0  0  0
  2 22  1  0  0  0
 22 23  2  0  0  0
 23 24  1  0  0  0
 24 25  2  0  0  0
 25 28  1  0  0  0
 28 29  1  0  0  0
 29 30  1  0  0  0
 30 31  1  0  0  0
 31 32  1  0  0  0
 32 34  1  0  0  0
 34 35  1  0  0  0
 35 36  1  0  0  0
 36 37  1  0  0  0
 32 33  1  0  0  0
 25 26  1  0  0  0
 26 27  2  0  0  0
  2  3  1  0  0  0
  3  4  2  0  0  0
  4  5  1  0  0  0
  5  6  2  0  0  0
  6  7  1  0  0  0
  6  8  1  0  0  0
  8  9  2  0  0  0
  9 10  1  0  0  0
 10 11  1  0  0  0
 11 12  1  0  0  0
 19 14  1  0  0  0
 12  1  1  0  0  0
 27 22  1  0  0  0
  9  3  1  0  0  0
 33 29  1  0  0  0
  7 13  1  0  0  0
M  END
> <minimizedAffinity>
17.65126

> <CNNscore>
0.4494073093

> <CNNaffinity>
7.7771940231

> <CNN_VS>
3.4951279163

> <CNNaffinity_variance>
0.6866170764

$$$$
[H]Oc1c([H])c([H])c2c(c1[H])C([H])([H])C([H])([H])C([H])([H])C(c1c([H])nc(OC([H])([H])[H])c([H])c1[H])=C2c1c([H])c([H])c(O[C@]2([H])C([H])([H])N(C([H])([H])C([H])([H])C([H])([H])F)C([H])([H])C2([H])[H])c([H])c1[H]


 37 41  0  0  0  0  0  0  0  0999 V2000
   10.8451   46.0126  132.6530 C   0  0  0  0  0  0  0  0  0  0  0  0
   10.1920   45.2119  131.8247 C   0  0  0  0  0  0  0  0  0  0  0  0
   10.3887   43.7473  131.6164 C   0  0  0  0  0  0  0  0  0  0  0  0
   10.0256   43.2929  130.3613 C   0  0  0  0  0  0  0  0  0  0  0  0
   10.1371   41.9602  130.0312 C   0  0  0  0  0  0  0  0  0  0  0  0
   10.6127   41.0699  130.9509 C   0  0  0  0  0  0  0  0  0  0  0  0
   10.7188   39.7325  130.6082 O   0  0  0  0  0  0  0  0  0  0  0  0
   10.9809   41.5372  132.2200 C   0  0  0  0  0  0  0  0  0  0  0  0
   10.8739   42.8778  132.5667 C   0  0  0  0  0  0  0  0  0  0  0  0
   11.3609   43.0485  133.9557 C   0  0  0  0  0  0  0  0  0  0  0  0
   11.2612   44.4536  134.4698 C   0  0  0  0  0  0  0  0  0  0  0  0
   11.9212   45.4872  133.5991 C   0  0  0  0  0  0  0  0  0  0  0  0
   11.5962   39.4132  130.1922 H   0  0  0  0  0  0  0  0  0  0  0  0
    9.8745   50.1278  132.6194 C   0  0  0  0  0  0  0  0  0  0  0  0
    9.7540   49.4306  133.7853 C   0  0  0  0  0  0  0  0  0  0  0  0
   10.0853   48.1018  133.8330 C   0  0  0  0  0  0  0  0  0  0  0  0
   10.5512   47.4055  132.7242 C   0  0  0  0  0  0  0  0  0  0  0  0
   10.6460   48.1728  131.5854 C   0  0  0  0  0  0  0  0  0  0  0  0
   10.3190   49.4931  131.5321 N   0  0  0  0  0  0  0  0  0  0  0  0
    9.6734   52.2043  133.8406 C   0  0  0  0  0  0  0  0  0  0  0  0
    9.5259   51.4925  132.6026 O   0  0  0  0  0  0  0  0  0  0  0  0
    9.1597   45.7340  130.9609 C   0  0  0  0  0  0  0  0  0  0  0  0
    9.4763   46.3043  129.7605 C   0  0  0  0  0  0  0  0  0  0  0  0
    8.5055   46.8539  128.9674 C   0  0  0  0  0  0  0  0  0  0  0  0
    7.1711   46.8434  129.3686 C   0  0  0  0  0  0  0  0  0  0  0  0
    6.8452   46.2674  130.5833 C   0  0  0  0  0  0  0  0  0  0  0  0
    7.8499   45.7315  131.3399 C   0  0  0  0  0  0  0  0  0  0  0  0
    6.1542   47.3857  128.6047 O   0  0  0  0  0  0  0  0  0  0  0  0
    5.7302   48.7064  128.5714 C   0  0  0  0  0  0  0  0  0  0  0  0
    5.3885   49.2237  129.9758 C   0  0  0  0  0  0  0  0  0  0  0  0
    6.1603   50.5306  130.1238 C   0  0  0  0  0  0  0  0  0  0  0  0
    6.4206   50.8920  128.7517 N   0  0  0  0  0  0  0  0  0  0  0  0
    6.8691   49.6400  128.1958 C   0  0  0  0  0  0  0  0  0  0  0  0
    7.3409   51.9752  128.5888 C   0  0  0  0  0  0  0  0  0  0  0  0
    6.6996   52.9862  127.6479 C   0  0  0  0  0  0  0  0  0  0  0  0
    7.8187   53.9370  127.2345 C   0  0  0  0  0  0  0  0  0  0  0  0
    7.9405   53.9512  125.8517 F   0  0  0  0  0  0  0  0  0  0  0  0
 20 21  1  0  0  0
 21 14  1  0  0  0
 14 15  2  0  0  0
 15 16  1  0  0  0
 16 17  2  0  0  0
 17 18  1  0  0  0
 18 19  2  0  0  0
 17  1  1  0  0  0
  1  2  2  0  0  0
  2 22  1  0  0  0
 22 23  2  0  0  0
 23 24  1  0  0  0
 24 25  2  0  0  0
 25 28  1  0  0  0
 28 29  1  0  0  0
 29 30  1  0  0  0
 30 31  1  0  0  0
 31 32  1  0  0  0
 32 34  1  0  0  0
 34 35  1  0  0  0
 35 36  1  0  0  0
 36 37  1  0  0  0
 32 33  1  0  0  0
 25 26  1  0  0  0
 26 27  2  0  0  0
  2  3  1  0  0  0
  3  4  2  0  0  0
  4  5  1  0  0  0
  5  6  2  0  0  0
  6  7  1  0  0  0
  6  8  1  0  0  0
  8  9  2  0  0  0
  9 10  1  0  0  0
 10 11  1  0  0  0
 11 12  1  0  0  0
 19 14  1  0  0  0
 12  1  1  0  0  0
 27 22  1  0  0  0
  9  3  1  0  0  0
 33 29  1  0  0  0
  7 13  1  0  0  0
M  END
> <minimizedAffinity>
6.42938

> <CNNscore>
0.4290519357

> <CNNaffinity>
7.9555039406

> <CNN_VS>
3.4133243561

> <CNNaffinity_variance>
0.8777368665

$$$$
[H]Oc1c([H])c([H])c2c(c1[H])C([H])([H])C([H])([H])C([H])([H])C(c1c([H])nc(OC([H])([H])[H])c([H])c1[H])=C2c1c([H])c([H])c(O[C@]2([H])C([H])([H])N(C([H])([H])C([H])([H])C([H])([H])F)C([H])([H])C2([H])[H])c([H])c1[H]


 37 41  0  0  0  0  0  0  0  0999 V2000
   11.3691   45.3553  132.9581 C   0  0  0  0  0  0  0  0  0  0  0  0
   11.4431   46.6432  133.2576 C   0  0  0  0  0  0  0  0  0  0  0  0
   12.1866   47.2839  134.3817 C   0  0  0  0  0  0  0  0  0  0  0  0
   11.6573   48.4896  134.8056 C   0  0  0  0  0  0  0  0  0  0  0  0
   12.2484   49.2030  135.8251 C   0  0  0  0  0  0  0  0  0  0  0  0
   13.3723   48.7185  136.4306 C   0  0  0  0  0  0  0  0  0  0  0  0
   13.9586   49.4452  137.4531 O   0  0  0  0  0  0  0  0  0  0  0  0
   13.9022   47.4952  135.9978 C   0  0  0  0  0  0  0  0  0  0  0  0
   13.3170   46.7652  134.9713 C   0  0  0  0  0  0  0  0  0  0  0  0
   14.0958   45.5206  134.7711 C   0  0  0  0  0  0  0  0  0  0  0  0
   13.5887   44.6553  133.6564 C   0  0  0  0  0  0  0  0  0  0  0  0
   12.1308   44.2991  133.7539 C   0  0  0  0  0  0  0  0  0  0  0  0
   13.6480   49.2618  138.4095 H   0  0  0  0  0  0  0  0  0  0  0  0
    8.8918   44.1649  129.7450 C   0  0  0  0  0  0  0  0  0  0  0  0
   10.2448   44.1558  129.5740 C   0  0  0  0  0  0  0  0  0  0  0  0
   11.0739   44.5120  130.6052 C   0  0  0  0  0  0  0  0  0  0  0  0
   10.5961   44.8939  131.8531 C   0  0  0  0  0  0  0  0  0  0  0  0
    9.2232   44.8797  131.9509 C   0  0  0  0  0  0  0  0  0  0  0  0
    8.3946   44.5262  130.9303 N   0  0  0  0  0  0  0  0  0  0  0  0
    8.7033   43.6800  127.3843 C   0  0  0  0  0  0  0  0  0  0  0  0
    8.0663   43.7935  128.6658 O   0  0  0  0  0  0  0  0  0  0  0  0
   10.7326   47.6218  132.4689 C   0  0  0  0  0  0  0  0  0  0  0  0
    9.6238   48.2468  132.9655 C   0  0  0  0  0  0  0  0  0  0  0  0
    8.9138   49.1300  132.1978 C   0  0  0  0  0  0  0  0  0  0  0  0
    9.3077   49.4108  130.8910 C   0  0  0  0  0  0  0  0  0  0  0  0
   10.4296   48.7804  130.3833 C   0  0  0  0  0  0  0  0  0  0  0  0
   11.1055   47.9066  131.1886 C   0  0  0  0  0  0  0  0  0  0  0  0
    8.6246   50.2938  130.0753 O   0  0  0  0  0  0  0  0  0  0  0  0
    7.6255   50.0016  129.1580 C   0  0  0  0  0  0  0  0  0  0  0  0
    7.9427   48.7245  128.3674 C   0  0  0  0  0  0  0  0  0  0  0  0
    6.6943   47.8564  128.4841 C   0  0  0  0  0  0  0  0  0  0  0  0
    5.6797   48.8209  128.8323 N   0  0  0  0  0  0  0  0  0  0  0  0
    6.3407   49.5891  129.8573 C   0  0  0  0  0  0  0  0  0  0  0  0
    4.4315   48.2488  129.2341 C   0  0  0  0  0  0  0  0  0  0  0  0
    4.6174   46.7389  129.2999 C   0  0  0  0  0  0  0  0  0  0  0  0
    5.1771   46.4493  130.6892 C   0  0  0  0  0  0  0  0  0  0  0  0
    6.4979   46.0336  130.5896 F   0  0  0  0  0  0  0  0  0  0  0  0
 20 21  1  0  0  0
 21 14  1  0  0  0
 14 15  2  0  0  0
 15 16  1  0  0  0
 16 17  2  0  0  0
 17 18  1  0  0  0
 18 19  2  0  0  0
 17  1  1  0  0  0
  1  2  2  0  0  0
  2 22  1  0  0  0
 22 23  2  0  0  0
 23 24  1  0  0  0
 24 25  2  0  0  0
 25 28  1  0  0  0
 28 29  1  0  0  0
 29 30  1  0  0  0
 30 31  1  0  0  0
 31 32  1  0  0  0
 32 34  1  0  0  0
 34 35  1  0  0  0
 35 36  1  0  0  0
 36 37  1  0  0  0
 32 33  1  0  0  0
 25 26  1  0  0  0
 26 27  2  0  0  0
  2  3  1  0  0  0
  3  4  2  0  0  0
  4  5  1  0  0  0
  5  6  2  0  0  0
  6  7  1  0  0  0
  6  8  1  0  0  0
  8  9  2  0  0  0
  9 10  1  0  0  0
 10 11  1  0  0  0
 11 12  1  0  0  0
 19 14  1  0  0  0
 12  1  1  0  0  0
 27 22  1  0  0  0
  9  3  1  0  0  0
 33 29  1  0  0  0
  7 13  1  0  0  0
M  END
> <minimizedAffinity>
16.20449

> <CNNscore>
0.4267663360

> <CNNaffinity>
7.7492456436

> <CNN_VS>
3.3071172237

> <CNNaffinity_variance>
0.5491625667

$$$$
[H]Oc1c([H])c([H])c2c(c1[H])C([H])([H])C([H])([H])C([H])([H])C(c1c([H])nc(OC([H])([H])[H])c([H])c1[H])=C2c1c([H])c([H])c(O[C@]2([H])C([H])([H])N(C([H])([H])C([H])([H])C([H])([H])F)C([H])([H])C2([H])[H])c([H])c1[H]


 37 41  0  0  0  0  0  0  0  0999 V2000
   11.2197   45.6540  133.0292 C   0  0  0  0  0  0  0  0  0  0  0  0
   11.1357   45.4108  131.7301 C   0  0  0  0  0  0  0  0  0  0  0  0
   12.1750   44.8202  130.8368 C   0  0  0  0  0  0  0  0  0  0  0  0
   12.0721   45.1975  129.5100 C   0  0  0  0  0  0  0  0  0  0  0  0
   12.9540   44.7174  128.5669 C   0  0  0  0  0  0  0  0  0  0  0  0
   13.9465   43.8572  128.9405 C   0  0  0  0  0  0  0  0  0  0  0  0
   14.8260   43.3799  127.9834 O   0  0  0  0  0  0  0  0  0  0  0  0
   14.0465   43.4805  130.2868 C   0  0  0  0  0  0  0  0  0  0  0  0
   13.1646   43.9565  131.2484 C   0  0  0  0  0  0  0  0  0  0  0  0
   13.5497   43.3947  132.5644 C   0  0  0  0  0  0  0  0  0  0  0  0
   12.6468   43.8017  133.6902 C   0  0  0  0  0  0  0  0  0  0  0  0
   12.4607   45.2868  133.8380 C   0  0  0  0  0  0  0  0  0  0  0  0
   15.6783   43.9159  127.8070 H   0  0  0  0  0  0  0  0  0  0  0  0
    7.9900   47.5838  134.9587 C   0  0  0  0  0  0  0  0  0  0  0  0
    8.0954   46.2269  135.0457 C   0  0  0  0  0  0  0  0  0  0  0  0
    9.1452   45.5761  134.4521 C   0  0  0  0  0  0  0  0  0  0  0  0
   10.1376   46.2442  133.7450 C   0  0  0  0  0  0  0  0  0  0  0  0
    9.9648   47.6090  133.6992 C   0  0  0  0  0  0  0  0  0  0  0  0
    8.9246   48.2610  134.2874 N   0  0  0  0  0  0  0  0  0  0  0  0
    7.1970   49.0020  136.7485 C   0  0  0  0  0  0  0  0  0  0  0  0
    6.8994   48.2235  135.5795 O   0  0  0  0  0  0  0  0  0  0  0  0
    9.9374   45.7446  130.9973 C   0  0  0  0  0  0  0  0  0  0  0  0
    8.8202   44.9641  131.0935 C   0  0  0  0  0  0  0  0  0  0  0  0
    7.7032   45.2443  130.3536 C   0  0  0  0  0  0  0  0  0  0  0  0
    7.6820   46.3337  129.4850 C   0  0  0  0  0  0  0  0  0  0  0  0
    8.8108   47.1270  129.3838 C   0  0  0  0  0  0  0  0  0  0  0  0
    9.9016   46.8068  130.1431 C   0  0  0  0  0  0  0  0  0  0  0  0
    6.5797   46.6582  128.7160 O   0  0  0  0  0  0  0  0  0  0  0  0
    6.0546   47.9199  128.4762 C   0  0  0  0  0  0  0  0  0  0  0  0
    4.8083   48.1833  129.3330 C   0  0  0  0  0  0  0  0  0  0  0  0
    5.0627   49.5236  130.0147 C   0  0  0  0  0  0  0  0  0  0  0  0
    6.0745   50.1114  129.1712 N   0  0  0  0  0  0  0  0  0  0  0  0
    6.9840   49.0084  128.9872 C   0  0  0  0  0  0  0  0  0  0  0  0
    6.6782   51.2932  129.7057 C   0  0  0  0  0  0  0  0  0  0  0  0
    8.1513   50.9900  129.9441 C   0  0  0  0  0  0  0  0  0  0  0  0
    8.2097   50.2225  131.2612 C   0  0  0  0  0  0  0  0  0  0  0  0
    9.4768   50.3333  131.8173 F   0  0  0  0  0  0  0  0  0  0  0  0
 20 21  1  0  0  0
 21 14  1  0  0  0
 14 15  2  0  0  0
 15 16  1  0  0  0
 16 17  2  0  0  0
 17 18  1  0  0  0
 18 19  2  0  0  0
 17  1  1  0  0  0
  1  2  2  0  0  0
  2 22  1  0  0  0
 22 23  2  0  0  0
 23 24  1  0  0  0
 24 25  2  0  0  0
 25 28  1  0  0  0
 28 29  1  0  0  0
 29 30  1  0  0  0
 30 31  1  0  0  0
 31 32  1  0  0  0
 32 34  1  0  0  0
 34 35  1  0  0  0
 35 36  1  0  0  0
 36 37  1  0  0  0
 32 33  1  0  0  0
 25 26  1  0  0  0
 26 27  2  0  0  0
  2  3  1  0  0  0
  3  4  2  0  0  0
  4  5  1  0  0  0
  5  6  2  0  0  0
  6  7  1  0  0  0
  6  8  1  0  0  0
  8  9  2  0  0  0
  9 10  1  0  0  0
 10 11  1  0  0  0
 11 12  1  0  0  0
 19 14  1  0  0  0
 12  1  1  0  0  0
 27 22  1  0  0  0
  9  3  1  0  0  0
 33 29  1  0  0  0
  7 13  1  0  0  0
M  END
> <minimizedAffinity>
9.15183

> <CNNscore>
0.4156995714

> <CNNaffinity>
7.8936934471

> <CNN_VS>
3.2814049721

> <CNNaffinity_variance>
0.6379578710

$$$$
[H]Oc1c([H])c([H])c2c(c1[H])C([H])([H])C([H])([H])C([H])([H])C(c1c([H])nc(OC([H])([H])[H])c([H])c1[H])=C2c1c([H])c([H])c(O[C@]2([H])C([H])([H])N(C([H])([H])C([H])([H])C([H])([H])F)C([H])([H])C2([H])[H])c([H])c1[H]


 37 41  0  0  0  0  0  0  0  0999 V2000
   10.3008   43.7656  132.1506 C   0  0  0  0  0  0  0  0  0  0  0  0
   10.0729   44.9763  132.6365 C   0  0  0  0  0  0  0  0  0  0  0  0
   10.0414   45.4015  134.0666 C   0  0  0  0  0  0  0  0  0  0  0  0
    9.2476   46.5059  134.3189 C   0  0  0  0  0  0  0  0  0  0  0  0
    9.1352   47.0213  135.5914 C   0  0  0  0  0  0  0  0  0  0  0  0
    9.8136   46.4380  136.6230 C   0  0  0  0  0  0  0  0  0  0  0  0
    9.6943   46.9658  137.8976 O   0  0  0  0  0  0  0  0  0  0  0  0
   10.6146   45.3180  136.3609 C   0  0  0  0  0  0  0  0  0  0  0  0
   10.7373   44.7877  135.0831 C   0  0  0  0  0  0  0  0  0  0  0  0
   11.6276   43.6048  135.1444 C   0  0  0  0  0  0  0  0  0  0  0  0
   11.8766   42.9581  133.8146 C   0  0  0  0  0  0  0  0  0  0  0  0
   10.6321   42.5838  133.0576 C   0  0  0  0  0  0  0  0  0  0  0  0
    8.9469   46.6076  138.4958 H   0  0  0  0  0  0  0  0  0  0  0  0
    9.9860   43.1028  127.9865 C   0  0  0  0  0  0  0  0  0  0  0  0
   11.1756   43.5298  128.4989 C   0  0  0  0  0  0  0  0  0  0  0  0
   11.3151   43.7288  129.8475 C   0  0  0  0  0  0  0  0  0  0  0  0
   10.2789   43.5129  130.7480 C   0  0  0  0  0  0  0  0  0  0  0  0
    9.1109   43.0843  130.1591 C   0  0  0  0  0  0  0  0  0  0  0  0
    8.9664   42.8842  128.8204 N   0  0  0  0  0  0  0  0  0  0  0  0
    8.5808   43.1453  126.0200 C   0  0  0  0  0  0  0  0  0  0  0  0
    9.8741   42.9074  126.5960 O   0  0  0  0  0  0  0  0  0  0  0  0
    9.7889   46.0807  131.7509 C   0  0  0  0  0  0  0  0  0  0  0  0
   10.7991   46.8563  131.2563 C   0  0  0  0  0  0  0  0  0  0  0  0
   10.5281   47.9400  130.4653 C   0  0  0  0  0  0  0  0  0  0  0  0
    9.2136   48.2756  130.1473 C   0  0  0  0  0  0  0  0  0  0  0  0
    8.1871   47.4937  130.6457 C   0  0  0  0  0  0  0  0  0  0  0  0
    8.5081   46.4217  131.4312 C   0  0  0  0  0  0  0  0  0  0  0  0
    8.8876   49.3599  129.3536 O   0  0  0  0  0  0  0  0  0  0  0  0
    7.7206   49.5616  128.6309 C   0  0  0  0  0  0  0  0  0  0  0  0
    7.2826   48.2843  127.9005 C   0  0  0  0  0  0  0  0  0  0  0  0
    5.8190   48.0839  128.2793 C   0  0  0  0  0  0  0  0  0  0  0  0
    5.4281   49.4046  128.7083 N   0  0  0  0  0  0  0  0  0  0  0  0
    6.5332   49.7804  129.5539 C   0  0  0  0  0  0  0  0  0  0  0  0
    4.1484   49.4660  129.3450 C   0  0  0  0  0  0  0  0  0  0  0  0
    4.0856   50.7711  130.1270 C   0  0  0  0  0  0  0  0  0  0  0  0
    5.3415   50.7975  130.9927 C   0  0  0  0  0  0  0  0  0  0  0  0
    6.2336   51.7417  130.5030 F   0  0  0  0  0  0  0  0  0  0  0  0
 20 21  1  0  0  0
 21 14  1  0  0  0
 14 15  2  0  0  0
 15 16  1  0  0  0
 16 17  2  0  0  0
 17 18  1  0  0  0
 18 19  2  0  0  0
 17  1  1  0  0  0
  1  2  2  0  0  0
  2 22  1  0  0  0
 22 23  2  0  0  0
 23 24  1  0  0  0
 24 25  2  0  0  0
 25 28  1  0  0  0
 28 29  1  0  0  0
 29 30  1  0  0  0
 30 31  1  0  0  0
 31 32  1  0  0  0
 32 34  1  0  0  0
 34 35  1  0  0  0
 35 36  1  0  0  0
 36 37  1  0  0  0
 32 33  1  0  0  0
 25 26  1  0  0  0
 26 27  2  0  0  0
  2  3  1  0  0  0
  3  4  2  0  0  0
  4  5  1  0  0  0
  5  6  2  0  0  0
  6  7  1  0  0  0
  6  8  1  0  0  0
  8  9  2  0  0  0
  9 10  1  0  0  0
 10 11  1  0  0  0
 11 12  1  0  0  0
 19 14  1  0  0  0
 12  1  1  0  0  0
 27 22  1  0  0  0
  9  3  1  0  0  0
 33 29  1  0  0  0
  7 13  1  0  0  0
M  END
> <minimizedAffinity>
13.15232

> <CNNscore>
0.4053005278

> <CNNaffinity>
8.1236772537

> <CNN_VS>
3.2925307751

> <CNNaffinity_variance>
1.2474105358

$$$$
[H]Oc1c([H])c([H])c2c(c1[H])C([H])([H])C([H])([H])C([H])([H])C(c1c([H])nc(OC([H])([H])[H])c([H])c1[H])=C2c1c([H])c([H])c(O[C@]2([H])C([H])([H])N(C([H])([H])C([H])([H])C([H])([H])F)C([H])([H])C2([H])[H])c([H])c1[H]


 37 41  0  0  0  0  0  0  0  0999 V2000
   10.3243   43.8059  132.7824 C   0  0  0  0  0  0  0  0  0  0  0  0
   10.0946   45.0851  132.5281 C   0  0  0  0  0  0  0  0  0  0  0  0
   10.6189   46.2758  133.2590 C   0  0  0  0  0  0  0  0  0  0  0  0
    9.8139   47.3979  133.1792 C   0  0  0  0  0  0  0  0  0  0  0  0
   10.1789   48.5763  133.7919 C   0  0  0  0  0  0  0  0  0  0  0  0
   11.3503   48.6445  134.4903 C   0  0  0  0  0  0  0  0  0  0  0  0
   11.7077   49.8349  135.1006 O   0  0  0  0  0  0  0  0  0  0  0  0
   12.1605   47.5034  134.5691 C   0  0  0  0  0  0  0  0  0  0  0  0
   11.8051   46.3087  133.9564 C   0  0  0  0  0  0  0  0  0  0  0  0
   12.8505   45.2988  134.2448 C   0  0  0  0  0  0  0  0  0  0  0  0
   12.6058   43.9659  133.6032 C   0  0  0  0  0  0  0  0  0  0  0  0
   11.2607   43.3639  133.9036 C   0  0  0  0  0  0  0  0  0  0  0  0
   11.3977   49.9917  136.0620 H   0  0  0  0  0  0  0  0  0  0  0  0
    8.3508   40.9043  130.4237 C   0  0  0  0  0  0  0  0  0  0  0  0
    9.7034   41.0377  130.3112 C   0  0  0  0  0  0  0  0  0  0  0  0
   10.3737   41.9519  131.0811 C   0  0  0  0  0  0  0  0  0  0  0  0
    9.7303   42.7752  131.9974 C   0  0  0  0  0  0  0  0  0  0  0  0
    8.3683   42.5848  132.0553 C   0  0  0  0  0  0  0  0  0  0  0  0
    7.6971   41.6779  131.2937 N   0  0  0  0  0  0  0  0  0  0  0  0
    8.3341   38.6801  129.4768 C   0  0  0  0  0  0  0  0  0  0  0  0
    7.6906   39.9557  129.6185 O   0  0  0  0  0  0  0  0  0  0  0  0
    9.2249   45.4726  131.4427 C   0  0  0  0  0  0  0  0  0  0  0  0
    9.7327   45.7393  130.2027 C   0  0  0  0  0  0  0  0  0  0  0  0
    8.9183   46.1649  129.1882 C   0  0  0  0  0  0  0  0  0  0  0  0
    7.5516   46.3356  129.3993 C   0  0  0  0  0  0  0  0  0  0  0  0
    7.0325   46.0672  130.6531 C   0  0  0  0  0  0  0  0  0  0  0  0
    7.8859   45.6445  131.6340 C   0  0  0  0  0  0  0  0  0  0  0  0
    6.6876   46.7638  128.4084 O   0  0  0  0  0  0  0  0  0  0  0  0
    6.2154   48.0505  128.1926 C   0  0  0  0  0  0  0  0  0  0  0  0
    5.0762   48.4020  129.1598 C   0  0  0  0  0  0  0  0  0  0  0  0
    5.4731   49.7356  129.7839 C   0  0  0  0  0  0  0  0  0  0  0  0
    6.4300   50.2480  128.8337 N   0  0  0  0  0  0  0  0  0  0  0  0
    7.2517   49.0898  128.5872 C   0  0  0  0  0  0  0  0  0  0  0  0
    7.1503   51.4002  129.2811 C   0  0  0  0  0  0  0  0  0  0  0  0
    7.5924   51.1385  130.7146 C   0  0  0  0  0  0  0  0  0  0  0  0
    8.7597   50.1611  130.6176 C   0  0  0  0  0  0  0  0  0  0  0  0
    8.4476   48.9841  131.2841 F   0  0  0  0  0  0  0  0  0  0  0  0
 20 21  1  0  0  0
 21 14  1  0  0  0
 14 15  2  0  0  0
 15 16  1  0  0  0
 16 17  2  0  0  0
 17 18  1  0  0  0
 18 19  2  0  0  0
 17  1  1  0  0  0
  1  2  2  0  0  0
  2 22  1  0  0  0
 22 23  2  0  0  0
 23 24  1  0  0  0
 24 25  2  0  0  0
 25 28  1  0  0  0
 28 29  1  0  0  0
 29 30  1  0  0  0
 30 31  1  0  0  0
 31 32  1  0  0  0
 32 34  1  0  0  0
 34 35  1  0  0  0
 35 36  1  0  0  0
 36 37  1  0  0  0
 32 33  1  0  0  0
 25 26  1  0  0  0
 26 27  2  0  0  0
  2  3  1  0  0  0
  3  4  2  0  0  0
  4  5  1  0  0  0
  5  6  2  0  0  0
  6  7  1  0  0  0
  6  8  1  0  0  0
  8  9  2  0  0  0
  9 10  1  0  0  0
 10 11  1  0  0  0
 11 12  1  0  0  0
 19 14  1  0  0  0
 12  1  1  0  0  0
 27 22  1  0  0  0
  9  3  1  0  0  0
 33 29  1  0  0  0
  7 13  1  0  0  0
M  END
> <minimizedAffinity>
13.04384

> <CNNscore>
0.3762691915

> <CNNaffinity>
7.9262580872

> <CNN_VS>
2.9824066162

> <CNNaffinity_variance>
0.4839007258

$$$$
[H]Oc1c([H])c([H])c2c(c1[H])C([H])([H])C([H])([H])C([H])([H])C(c1c([H])nc(OC([H])([H])[H])c([H])c1[H])=C2c1c([H])c([H])c(O[C@]2([H])C([H])([H])N(C([H])([H])C([H])([H])C([H])([H])F)C([H])([H])C2([H])[H])c([H])c1[H]


 37 41  0  0  0  0  0  0  0  0999 V2000
   10.9223   46.1227  132.8093 C   0  0  0  0  0  0  0  0  0  0  0  0
   10.2890   45.2266  132.0678 C   0  0  0  0  0  0  0  0  0  0  0  0
   10.5592   43.7625  131.9652 C   0  0  0  0  0  0  0  0  0  0  0  0
   10.1832   43.1931  130.7619 C   0  0  0  0  0  0  0  0  0  0  0  0
   10.3574   41.8463  130.5308 C   0  0  0  0  0  0  0  0  0  0  0  0
   10.9092   41.0567  131.4986 C   0  0  0  0  0  0  0  0  0  0  0  0
   11.0778   39.7040  131.2556 O   0  0  0  0  0  0  0  0  0  0  0  0
   11.2899   41.6403  132.7148 C   0  0  0  0  0  0  0  0  0  0  0  0
   11.1202   42.9965  132.9616 C   0  0  0  0  0  0  0  0  0  0  0  0
   11.6396   43.3004  134.3158 C   0  0  0  0  0  0  0  0  0  0  0  0
   11.4788   44.7342  134.7242 C   0  0  0  0  0  0  0  0  0  0  0  0
   12.0541   45.7297  133.7547 C   0  0  0  0  0  0  0  0  0  0  0  0
   11.9583   39.3996  130.8348 H   0  0  0  0  0  0  0  0  0  0  0  0
    9.8672   50.2128  132.9968 C   0  0  0  0  0  0  0  0  0  0  0  0
   10.5615   49.7591  131.9142 C   0  0  0  0  0  0  0  0  0  0  0  0
   10.8953   48.4339  131.8134 C   0  0  0  0  0  0  0  0  0  0  0  0
   10.5547   47.4996  132.7841 C   0  0  0  0  0  0  0  0  0  0  0  0
    9.8569   48.0297  133.8455 C   0  0  0  0  0  0  0  0  0  0  0  0
    9.5218   49.3449  133.9508 N   0  0  0  0  0  0  0  0  0  0  0  0
   10.0238   52.2919  134.2202 C   0  0  0  0  0  0  0  0  0  0  0  0
    9.5390   51.5806  133.0712 O   0  0  0  0  0  0  0  0  0  0  0  0
    9.2035   45.6250  131.2032 C   0  0  0  0  0  0  0  0  0  0  0  0
    7.9133   45.6143  131.6525 C   0  0  0  0  0  0  0  0  0  0  0  0
    6.8771   45.9336  130.8171 C   0  0  0  0  0  0  0  0  0  0  0  0
    7.1169   46.2769  129.4881 C   0  0  0  0  0  0  0  0  0  0  0  0
    8.4214   46.2890  129.0281 C   0  0  0  0  0  0  0  0  0  0  0  0
    9.4222   45.9627  129.9004 C   0  0  0  0  0  0  0  0  0  0  0  0
    6.1056   46.6064  128.6046 O   0  0  0  0  0  0  0  0  0  0  0  0
    5.6085   47.8695  128.3173 C   0  0  0  0  0  0  0  0  0  0  0  0
    4.5945   48.3295  129.3741 C   0  0  0  0  0  0  0  0  0  0  0  0
    5.0619   49.7153  129.8063 C   0  0  0  0  0  0  0  0  0  0  0  0
    5.8955   50.1183  128.7001 N   0  0  0  0  0  0  0  0  0  0  0  0
    6.6832   48.9323  128.4756 C   0  0  0  0  0  0  0  0  0  0  0  0
    6.6628   51.3022  128.9372 C   0  0  0  0  0  0  0  0  0  0  0  0
    7.2945   51.1725  130.3167 C   0  0  0  0  0  0  0  0  0  0  0  0
    8.1342   49.8997  130.2712 C   0  0  0  0  0  0  0  0  0  0  0  0
    7.7105   49.0182  131.2563 F   0  0  0  0  0  0  0  0  0  0  0  0
 20 21  1  0  0  0
 21 14  1  0  0  0
 14 15  2  0  0  0
 15 16  1  0  0  0
 16 17  2  0  0  0
 17 18  1  0  0  0
 18 19  2  0  0  0
 17  1  1  0  0  0
  1  2  2  0  0  0
  2 22  1  0  0  0
 22 23  2  0  0  0
 23 24  1  0  0  0
 24 25  2  0  0  0
 25 28  1  0  0  0
 28 29  1  0  0  0
 29 30  1  0  0  0
 30 31  1  0  0  0
 31 32  1  0  0  0
 32 34  1  0  0  0
 34 35  1  0  0  0
 35 36  1  0  0  0
 36 37  1  0  0  0
 32 33  1  0  0  0
 25 26  1  0  0  0
 26 27  2  0  0  0
  2  3  1  0  0  0
  3  4  2  0  0  0
  4  5  1  0  0  0
  5  6  2  0  0  0
  6  7  1  0  0  0
  6  8  1  0  0  0
  8  9  2  0  0  0
  9 10  1  0  0  0
 10 11  1  0  0  0
 11 12  1  0  0  0
 19 14  1  0  0  0
 12  1  1  0  0  0
 27 22  1  0  0  0
  9  3  1  0  0  0
 33 29  1  0  0  0
  7 13  1  0  0  0
M  END
> <minimizedAffinity>
7.15737

> <CNNscore>
0.3461090028

> <CNNaffinity>
7.7859129906

> <CNN_VS>
2.6947746277

> <CNNaffinity_variance>
0.5501300097

$$$$
[H]Oc1c([H])c([H])c2c(c1[H])C([H])([H])C([H])([H])C([H])([H])C(c1c([H])nc(OC([H])([H])[H])c([H])c1[H])=C2c1c([H])c([H])c(O[C@]2([H])C([H])([H])N(C([H])([H])C([H])([H])C([H])([H])F)C([H])([H])C2([H])[H])c([H])c1[H]


 37 41  0  0  0  0  0  0  0  0999 V2000
   11.8158   45.0602  132.8359 C   0  0  0  0  0  0  0  0  0  0  0  0
   11.2654   45.3981  131.6797 C   0  0  0  0  0  0  0  0  0  0  0  0
   10.9775   44.5202  130.5078 C   0  0  0  0  0  0  0  0  0  0  0  0
   10.9568   45.1773  129.2906 C   0  0  0  0  0  0  0  0  0  0  0  0
   10.6880   44.4972  128.1233 C   0  0  0  0  0  0  0  0  0  0  0  0
   10.4383   43.1552  128.1609 C   0  0  0  0  0  0  0  0  0  0  0  0
   10.1677   42.4824  126.9813 O   0  0  0  0  0  0  0  0  0  0  0  0
   10.4628   42.4950  129.3971 C   0  0  0  0  0  0  0  0  0  0  0  0
   10.7324   43.1679  130.5819 C   0  0  0  0  0  0  0  0  0  0  0  0
   10.7076   42.1924  131.6971 C   0  0  0  0  0  0  0  0  0  0  0  0
   10.9460   42.8012  133.0466 C   0  0  0  0  0  0  0  0  0  0  0  0
   12.2041   43.6184  133.1514 C   0  0  0  0  0  0  0  0  0  0  0  0
   10.9555   42.0838  126.4662 H   0  0  0  0  0  0  0  0  0  0  0  0
   12.6863   48.0255  135.7215 C   0  0  0  0  0  0  0  0  0  0  0  0
   11.3902   47.6426  135.5388 C   0  0  0  0  0  0  0  0  0  0  0  0
   11.0802   46.6660  134.6289 C   0  0  0  0  0  0  0  0  0  0  0  0
   12.0440   46.0259  133.8591 C   0  0  0  0  0  0  0  0  0  0  0  0
   13.3269   46.4642  134.0972 C   0  0  0  0  0  0  0  0  0  0  0  0
   13.6410   47.4333  135.0001 N   0  0  0  0  0  0  0  0  0  0  0  0
   13.4416   50.2835  136.1396 C   0  0  0  0  0  0  0  0  0  0  0  0
   12.9727   49.0321  136.6643 O   0  0  0  0  0  0  0  0  0  0  0  0
   10.8834   46.7662  131.4210 C   0  0  0  0  0  0  0  0  0  0  0  0
   11.8169   47.7638  131.4228 C   0  0  0  0  0  0  0  0  0  0  0  0
   11.4487   49.0690  131.2376 C   0  0  0  0  0  0  0  0  0  0  0  0
   10.1113   49.4084  131.0430 C   0  0  0  0  0  0  0  0  0  0  0  0
    9.1621   48.4021  131.0406 C   0  0  0  0  0  0  0  0  0  0  0  0
    9.5789   47.1139  131.2296 C   0  0  0  0  0  0  0  0  0  0  0  0
    9.6884   50.7110  130.8525 O   0  0  0  0  0  0  0  0  0  0  0  0
    8.3839   51.1818  130.8122 C   0  0  0  0  0  0  0  0  0  0  0  0
    8.0431   51.7799  129.4400 C   0  0  0  0  0  0  0  0  0  0  0  0
    6.7436   51.1038  129.0160 C   0  0  0  0  0  0  0  0  0  0  0  0
    6.2178   50.6307  130.2733 N   0  0  0  0  0  0  0  0  0  0  0  0
    7.3845   50.0387  130.8782 C   0  0  0  0  0  0  0  0  0  0  0  0
    5.1004   49.7456  130.1526 C   0  0  0  0  0  0  0  0  0  0  0  0
    4.6798   49.7323  128.6891 C   0  0  0  0  0  0  0  0  0  0  0  0
    5.4713   48.6014  128.0396 C   0  0  0  0  0  0  0  0  0  0  0  0
    6.7832   49.0030  127.8281 F   0  0  0  0  0  0  0  0  0  0  0  0
 20 21  1  0  0  0
 21 14  1  0  0  0
 14 15  2  0  0  0
 15 16  1  0  0  0
 16 17  2  0  0  0
 17 18  1  0  0  0
 18 19  2  0  0  0
 17  1  1  0  0  0
  1  2  2  0  0  0
  2 22  1  0  0  0
 22 23  2  0  0  0
 23 24  1  0  0  0
 24 25  2  0  0  0
 25 28  1  0  0  0
 28 29  1  0  0  0
 29 30  1  0  0  0
 30 31  1  0  0  0
 31 32  1  0  0  0
 32 34  1  0  0  0
 34 35  1  0  0  0
 35 36  1  0  0  0
 36 37  1  0  0  0
 32 33  1  0  0  0
 25 26  1  0  0  0
 26 27  2  0  0  0
  2  3  1  0  0  0
  3  4  2  0  0  0
  4  5  1  0  0  0
  5  6  2  0  0  0
  6  7  1  0  0  0
  6  8  1  0  0  0
  8  9  2  0  0  0
  9 10  1  0  0  0
 10 11  1  0  0  0
 11 12  1  0  0  0
 19 14  1  0  0  0
 12  1  1  0  0  0
 27 22  1  0  0  0
  9  3  1  0  0  0
 33 29  1  0  0  0
  7 13  1  0  0  0
M  END
> <minimizedAffinity>
19.35615

> <CNNscore>
0.3380939662

> <CNNaffinity>
7.7729768753

> <CNN_VS>
2.6279966831

> <CNNaffinity_variance>
1.5894019604

$$$$
[H]Oc1c([H])c([H])c2c(c1[H])C([H])([H])C([H])([H])C([H])([H])C(c1c([H])nc(OC([H])([H])[H])c([H])c1[H])=C2c1c([H])c([H])c(O[C@]2([H])C([H])([H])N(C([H])([H])C([H])([H])C([H])([H])F)C([H])([H])C2([H])[H])c([H])c1[H]


 37 41  0  0  0  0  0  0  0  0999 V2000
   10.3332   45.2011  132.9365 C   0  0  0  0  0  0  0  0  0  0  0  0
   10.9196   46.3470  133.2479 C   0  0  0  0  0  0  0  0  0  0  0  0
   12.1049   46.5632  134.1284 C   0  0  0  0  0  0  0  0  0  0  0  0
   12.1515   47.8070  134.7319 C   0  0  0  0  0  0  0  0  0  0  0  0
   13.1967   48.1537  135.5595 C   0  0  0  0  0  0  0  0  0  0  0  0
   14.2037   47.2615  135.7924 C   0  0  0  0  0  0  0  0  0  0  0  0
   15.2500   47.6217  136.6248 O   0  0  0  0  0  0  0  0  0  0  0  0
   14.1494   46.0021  135.1795 C   0  0  0  0  0  0  0  0  0  0  0  0
   13.1019   45.6389  134.3428 C   0  0  0  0  0  0  0  0  0  0  0  0
   13.3258   44.2495  133.8788 C   0  0  0  0  0  0  0  0  0  0  0  0
   12.2794   43.7462  132.9301 C   0  0  0  0  0  0  0  0  0  0  0  0
   10.8678   43.8619  133.4361 C   0  0  0  0  0  0  0  0  0  0  0  0
   15.1583   47.4212  137.6229 H   0  0  0  0  0  0  0  0  0  0  0  0
    6.8702   45.3197  130.5134 C   0  0  0  0  0  0  0  0  0  0  0  0
    7.9923   44.7122  130.0320 C   0  0  0  0  0  0  0  0  0  0  0  0
    9.1218   44.6359  130.8040 C   0  0  0  0  0  0  0  0  0  0  0  0
    9.1877   45.1601  132.0894 C   0  0  0  0  0  0  0  0  0  0  0  0
    8.0199   45.7574  132.5067 C   0  0  0  0  0  0  0  0  0  0  0  0
    6.8947   45.8357  131.7447 N   0  0  0  0  0  0  0  0  0  0  0  0
    5.2230   46.6940  129.3991 C   0  0  0  0  0  0  0  0  0  0  0  0
    5.7251   45.3821  129.6956 O   0  0  0  0  0  0  0  0  0  0  0  0
   10.4064   47.5962  132.7372 C   0  0  0  0  0  0  0  0  0  0  0  0
    9.6937   48.4392  133.5421 C   0  0  0  0  0  0  0  0  0  0  0  0
    9.1550   49.5951  133.0448 C   0  0  0  0  0  0  0  0  0  0  0  0
    9.3225   49.9369  131.7044 C   0  0  0  0  0  0  0  0  0  0  0  0
   10.0431   49.0866  130.8851 C   0  0  0  0  0  0  0  0  0  0  0  0
   10.5616   47.9441  131.4280 C   0  0  0  0  0  0  0  0  0  0  0  0
    8.7980   51.0917  131.1539 O   0  0  0  0  0  0  0  0  0  0  0  0
    7.8540   51.1964  130.1425 C   0  0  0  0  0  0  0  0  0  0  0  0
    8.3387   50.5279  128.8483 C   0  0  0  0  0  0  0  0  0  0  0  0
    7.2087   49.5939  128.4282 C   0  0  0  0  0  0  0  0  0  0  0  0
    6.0766   50.1430  129.1338 N   0  0  0  0  0  0  0  0  0  0  0  0
    6.6240   50.3583  130.4497 C   0  0  0  0  0  0  0  0  0  0  0  0
    4.9063   49.3206  129.1071 C   0  0  0  0  0  0  0  0  0  0  0  0
    3.7103   50.2122  129.4125 C   0  0  0  0  0  0  0  0  0  0  0  0
    3.5802   51.1557  128.2207 C   0  0  0  0  0  0  0  0  0  0  0  0
    2.5274   50.7522  127.4109 F   0  0  0  0  0  0  0  0  0  0  0  0
 20 21  1  0  0  0
 21 14  1  0  0  0
 14 15  2  0  0  0
 15 16  1  0  0  0
 16 17  2  0  0  0
 17 18  1  0  0  0
 18 19  2  0  0  0
 17  1  1  0  0  0
  1  2  2  0  0  0
  2 22  1  0  0  0
 22 23  2  0  0  0
 23 24  1  0  0  0
 24 25  2  0  0  0
 25 28  1  0  0  0
 28 29  1  0  0  0
 29 30  1  0  0  0
 30 31  1  0  0  0
 31 32  1  0  0  0
 32 34  1  0  0  0
 34 35  1  0  0  0
 35 36  1  0  0  0
 36 37  1  0  0  0
 32 33  1  0  0  0
 25 26  1  0  0  0
 26 27  2  0  0  0
  2  3  1  0  0  0
  3  4  2  0  0  0
  4  5  1  0  0  0
  5  6  2  0  0  0
  6  7  1  0  0  0
  6  8  1  0  0  0
  8  9  2  0  0  0
  9 10  1  0  0  0
 10 11  1  0  0  0
 11 12  1  0  0  0
 19 14  1  0  0  0
 12  1  1  0  0  0
 27 22  1  0  0  0
  9  3  1  0  0  0
 33 29  1  0  0  0
  7 13  1  0  0  0
M  END
> <minimizedAffinity>
21.09729

> <CNNscore>
0.3223364055

> <CNNaffinity>
7.4196577072

> <CNN_VS>
2.3916258812

> <CNNaffinity_variance>
0.4330956340

$$$$
[H]Oc1c([H])c([H])c2c(c1[H])C([H])([H])C([H])([H])C([H])([H])C(c1c([H])c(F)c(OC([H])([H])C([H])([H])[H])c(F)c1[H])=C2c1c([H])c([H])c(O[C@]2([H])C([H])([H])N(C([H])([H])C([H])([H])C([H])([H])F)C([H])([H])C2([H])[H])c([H])c1[H]


 40 44  0  0  0  0  0  0  0  0999 V2000
    9.3224   47.9081  129.5379 C   0  0  0  0  0  0  0  0  0  0  0  0
    8.1569   47.4645  129.8730 C   0  0  0  0  0  0  0  0  0  0  0  0
    6.9096   48.2620  129.7091 C   0  0  0  0  0  0  0  0  0  0  0  0
    5.8173   47.4480  129.5800 C   0  0  0  0  0  0  0  0  0  0  0  0
    4.5550   48.0308  129.4207 C   0  0  0  0  0  0  0  0  0  0  0  0
    4.4319   49.4132  129.3955 C   0  0  0  0  0  0  0  0  0  0  0  0
    3.1671   49.9824  129.2366 O   0  0  0  0  0  0  0  0  0  0  0  0
    5.5094   50.2162  129.5213 C   0  0  0  0  0  0  0  0  0  0  0  0
    6.7732   49.6327  129.6810 C   0  0  0  0  0  0  0  0  0  0  0  0
    7.7598   50.7089  129.7691 C   0  0  0  0  0  0  0  0  0  0  0  0
    9.1519   50.2650  130.0944 C   0  0  0  0  0  0  0  0  0  0  0  0
    9.6360   49.3305  128.9977 C   0  0  0  0  0  0  0  0  0  0  0  0
    3.0446   50.9704  129.2150 H   0  0  0  0  0  0  0  0  0  0  0  0
   12.7498   45.3695  130.0980 C   0  0  0  0  0  0  0  0  0  0  0  0
   12.2445   46.1889  131.1150 C   0  0  0  0  0  0  0  0  0  0  0  0
   12.8534   46.1489  132.3271 F   0  0  0  0  0  0  0  0  0  0  0  0
   11.1681   47.0028  130.9156 C   0  0  0  0  0  0  0  0  0  0  0  0
   10.4862   47.0868  129.6938 C   0  0  0  0  0  0  0  0  0  0  0  0
   10.9859   46.2735  128.6888 C   0  0  0  0  0  0  0  0  0  0  0  0
   12.0700   45.4533  128.8879 C   0  0  0  0  0  0  0  0  0  0  0  0
   12.5686   44.6494  127.9044 F   0  0  0  0  0  0  0  0  0  0  0  0
   13.8106   44.5847  130.3093 O   0  0  0  0  0  0  0  0  0  0  0  0
   15.3915   43.7405  128.6434 C   0  0  0  0  0  0  0  0  0  0  0  0
   14.5234   43.5608  129.8859 C   0  0  0  0  0  0  0  0  0  0  0  0
    7.9770   46.1556  130.4039 C   0  0  0  0  0  0  0  0  0  0  0  0
    8.0065   45.0063  129.6313 C   0  0  0  0  0  0  0  0  0  0  0  0
    7.8727   43.7901  130.2347 C   0  0  0  0  0  0  0  0  0  0  0  0
    7.7061   43.6423  131.6011 C   0  0  0  0  0  0  0  0  0  0  0  0
    7.6742   44.7613  132.3886 C   0  0  0  0  0  0  0  0  0  0  0  0
    7.8106   45.9958  131.7778 C   0  0  0  0  0  0  0  0  0  0  0  0
    7.5764   42.4066  132.1300 O   0  0  0  0  0  0  0  0  0  0  0  0
    8.4182   41.6421  132.9104 C   0  0  0  0  0  0  0  0  0  0  0  0
    9.6212   41.1116  132.1732 C   0  0  0  0  0  0  0  0  0  0  0  0
   10.8024   41.6943  132.8687 C   0  0  0  0  0  0  0  0  0  0  0  0
   10.3298   42.6254  133.8686 N   0  0  0  0  0  0  0  0  0  0  0  0
    8.9656   42.2987  134.1432 C   0  0  0  0  0  0  0  0  0  0  0  0
   11.1870   42.5499  135.0286 C   0  0  0  0  0  0  0  0  0  0  0  0
   11.4428   43.8614  135.6854 C   0  0  0  0  0  0  0  0  0  0  0  0
   11.3195   44.9375  134.6038 C   0  0  0  0  0  0  0  0  0  0  0  0
   10.1469   45.6312  134.8391 F   0  0  0  0  0  0  0  0  0  0  0  0
 23 24  1  0  0  0
 24 22  1  0  0  0
 22 14  1  0  0  0
 14 15  2  0  0  0
 15 16  1  0  0  0
 15 17  1  0  0  0
 17 18  2  0  0  0
 18 19  1  0  0  0
 19 20  2  0  0  0
 20 21  1  0  0  0
 18  1  1  0  0  0
  1  2  2  0  0  0
  2 25  1  0  0  0
 25 26  2  0  0  0
 26 27  1  0  0  0
 27 28  2  0  0  0
 28 31  1  0  0  0
 31 32  1  0  0  0
 32 33  1  0  0  0
 33 34  1  0  0  0
 34 35  1  0  0  0
 35 37  1  0  0  0
 37 38  1  0  0  0
 38 39  1  0  0  0
 39 40  1  0  0  0
 35 36  1  0  0  0
 28 29  1  0  0  0
 29 30  2  0  0  0
  2  3  1  0  0  0
  3  4  2  0  0  0
  4  5  1  0  0  0
  5  6  2  0  0  0
  6  7  1  0  0  0
  6  8  1  0  0  0
  8  9  2  0  0  0
  9 10  1  0  0  0
 10 11  1  0  0  0
 11 12  1  0  0  0
 20 14  1  0  0  0
 12  1  1  0  0  0
 30 25  1  0  0  0
  9  3  1  0  0  0
 36 32  1  0  0  0
  7 13  1  0  0  0
M  END
> <minimizedAffinity>
16.53611

> <CNNscore>
0.4848890603

> <CNNaffinity>
8.0978679657

> <CNN_VS>
3.9265675545

> <CNNaffinity_variance>
1.2360728979

$$$$
[H]Oc1c([H])c([H])c2c(c1[H])C([H])([H])C([H])([H])C([H])([H])C(c1c([H])c(F)c(OC([H])([H])C([H])([H])[H])c(F)c1[H])=C2c1c([H])c([H])c(O[C@]2([H])C([H])([H])N(C([H])([H])C([H])([H])C([H])([H])F)C([H])([H])C2([H])[H])c([H])c1[H]


 40 44  0  0  0  0  0  0  0  0999 V2000
   10.6118   45.5848  132.8314 C   0  0  0  0  0  0  0  0  0  0  0  0
   10.0412   44.8716  131.9187 C   0  0  0  0  0  0  0  0  0  0  0  0
   10.3372   43.4256  131.7186 C   0  0  0  0  0  0  0  0  0  0  0  0
    9.2769   42.7802  131.1427 C   0  0  0  0  0  0  0  0  0  0  0  0
    9.3826   41.4103  130.8770 C   0  0  0  0  0  0  0  0  0  0  0  0
   10.5506   40.7334  131.1995 C   0  0  0  0  0  0  0  0  0  0  0  0
   10.6439   39.3670  130.9289 O   0  0  0  0  0  0  0  0  0  0  0  0
   11.5961   41.3694  131.7689 C   0  0  0  0  0  0  0  0  0  0  0  0
   11.4904   42.7410  132.0348 C   0  0  0  0  0  0  0  0  0  0  0  0
   12.7356   43.1759  132.6669 C   0  0  0  0  0  0  0  0  0  0  0  0
   12.8530   44.6526  132.8821 C   0  0  0  0  0  0  0  0  0  0  0  0
   11.7280   45.1041  133.7993 C   0  0  0  0  0  0  0  0  0  0  0  0
   11.4679   38.8524  131.1474 H   0  0  0  0  0  0  0  0  0  0  0  0
    9.5090   49.7252  133.2124 C   0  0  0  0  0  0  0  0  0  0  0  0
   10.2719   49.2440  132.1413 C   0  0  0  0  0  0  0  0  0  0  0  0
   10.6471   50.1249  131.1796 F   0  0  0  0  0  0  0  0  0  0  0  0
   10.6297   47.9311  132.0449 C   0  0  0  0  0  0  0  0  0  0  0  0
   10.2692   46.9663  132.9958 C   0  0  0  0  0  0  0  0  0  0  0  0
    9.5120   47.4435  134.0541 C   0  0  0  0  0  0  0  0  0  0  0  0
    9.1509   48.7656  134.1527 C   0  0  0  0  0  0  0  0  0  0  0  0
    8.4057   49.2441  135.1909 F   0  0  0  0  0  0  0  0  0  0  0  0
    9.1749   51.0166  133.2943 O   0  0  0  0  0  0  0  0  0  0  0  0
    9.0762   52.9074  134.8441 C   0  0  0  0  0  0  0  0  0  0  0  0
    9.5765   52.2418  133.5649 C   0  0  0  0  0  0  0  0  0  0  0  0
    9.0571   45.4176  131.0465 C   0  0  0  0  0  0  0  0  0  0  0  0
    7.7357   45.6147  131.4125 C   0  0  0  0  0  0  0  0  0  0  0  0
    6.8737   46.1896  130.5252 C   0  0  0  0  0  0  0  0  0  0  0  0
    7.2567   46.5929  129.2574 C   0  0  0  0  0  0  0  0  0  0  0  0
    8.5568   46.4110  128.8699 C   0  0  0  0  0  0  0  0  0  0  0  0
    9.4326   45.8284  129.7694 C   0  0  0  0  0  0  0  0  0  0  0  0
    6.3482   47.1525  128.4297 O   0  0  0  0  0  0  0  0  0  0  0  0
    5.8633   48.4391  128.3237 C   0  0  0  0  0  0  0  0  0  0  0  0
    5.0658   48.8922  129.5200 C   0  0  0  0  0  0  0  0  0  0  0  0
    5.8035   50.0638  130.0689 C   0  0  0  0  0  0  0  0  0  0  0  0
    7.0379   50.2125  129.3311 N   0  0  0  0  0  0  0  0  0  0  0  0
    6.8788   49.5185  128.0916 C   0  0  0  0  0  0  0  0  0  0  0  0
    7.3289   51.6184  129.1734 C   0  0  0  0  0  0  0  0  0  0  0  0
    7.0105   52.1602  127.8236 C   0  0  0  0  0  0  0  0  0  0  0  0
    7.2431   53.6721  127.8797 C   0  0  0  0  0  0  0  0  0  0  0  0
    7.9369   54.0287  126.7382 F   0  0  0  0  0  0  0  0  0  0  0  0
 23 24  1  0  0  0
 24 22  1  0  0  0
 22 14  1  0  0  0
 14 15  2  0  0  0
 15 16  1  0  0  0
 15 17  1  0  0  0
 17 18  2  0  0  0
 18 19  1  0  0  0
 19 20  2  0  0  0
 20 21  1  0  0  0
 18  1  1  0  0  0
  1  2  2  0  0  0
  2 25  1  0  0  0
 25 26  2  0  0  0
 26 27  1  0  0  0
 27 28  2  0  0  0
 28 31  1  0  0  0
 31 32  1  0  0  0
 32 33  1  0  0  0
 33 34  1  0  0  0
 34 35  1  0  0  0
 35 37  1  0  0  0
 37 38  1  0  0  0
 38 39  1  0  0  0
 39 40  1  0  0  0
 35 36  1  0  0  0
 28 29  1  0  0  0
 29 30  2  0  0  0
  2  3  1  0  0  0
  3  4  2  0  0  0
  4  5  1  0  0  0
  5  6  2  0  0  0
  6  7  1  0  0  0
  6  8  1  0  0  0
  8  9  2  0  0  0
  9 10  1  0  0  0
 10 11  1  0  0  0
 11 12  1  0  0  0
 20 14  1  0  0  0
 12  1  1  0  0  0
 30 25  1  0  0  0
  9  3  1  0  0  0
 36 32  1  0  0  0
  7 13  1  0  0  0
M  END
> <minimizedAffinity>
12.34363

> <CNNscore>
0.4100996554

> <CNNaffinity>
8.1107244492

> <CNN_VS>
3.3262052536

> <CNNaffinity_variance>
0.7483512163

$$$$
[H]Oc1c([H])c([H])c2c(c1[H])C([H])([H])C([H])([H])C([H])([H])C(c1c([H])c(F)c(OC([H])([H])C([H])([H])[H])c(F)c1[H])=C2c1c([H])c([H])c(O[C@]2([H])C([H])([H])N(C([H])([H])C([H])([H])C([H])([H])F)C([H])([H])C2([H])[H])c([H])c1[H]


 40 44  0  0  0  0  0  0  0  0999 V2000
   11.5752   44.7191  131.9177 C   0  0  0  0  0  0  0  0  0  0  0  0
   10.5117   45.3623  132.2676 C   0  0  0  0  0  0  0  0  0  0  0  0
   10.2326   45.7594  133.6759 C   0  0  0  0  0  0  0  0  0  0  0  0
    9.4173   46.8571  133.7263 C   0  0  0  0  0  0  0  0  0  0  0  0
    9.0469   47.3672  134.9758 C   0  0  0  0  0  0  0  0  0  0  0  0
    9.5088   46.7575  136.1340 C   0  0  0  0  0  0  0  0  0  0  0  0
    9.1317   47.2755  137.3744 O   0  0  0  0  0  0  0  0  0  0  0  0
   10.3142   45.6756  136.0844 C   0  0  0  0  0  0  0  0  0  0  0  0
   10.6849   45.1647  134.8335 C   0  0  0  0  0  0  0  0  0  0  0  0
   11.5687   44.0209  135.0565 C   0  0  0  0  0  0  0  0  0  0  0  0
   11.9397   43.2589  133.8227 C   0  0  0  0  0  0  0  0  0  0  0  0
   12.6782   44.1909  132.8759 C   0  0  0  0  0  0  0  0  0  0  0  0
    9.4453   46.8612  138.2239 H   0  0  0  0  0  0  0  0  0  0  0  0
   12.3512   43.6214  127.8314 C   0  0  0  0  0  0  0  0  0  0  0  0
   13.3385   44.1552  128.6689 C   0  0  0  0  0  0  0  0  0  0  0  0
   14.5906   44.3001  128.1661 F   0  0  0  0  0  0  0  0  0  0  0  0
   13.0715   44.5163  129.9570 C   0  0  0  0  0  0  0  0  0  0  0  0
   11.8049   44.3854  130.5432 C   0  0  0  0  0  0  0  0  0  0  0  0
   10.8294   43.8547  129.7140 C   0  0  0  0  0  0  0  0  0  0  0  0
   11.0966   43.4907  128.4163 C   0  0  0  0  0  0  0  0  0  0  0  0
   10.1425   42.9674  127.5928 F   0  0  0  0  0  0  0  0  0  0  0  0
   12.6293   43.2811  126.5693 O   0  0  0  0  0  0  0  0  0  0  0  0
   13.4722   41.3592  125.3113 C   0  0  0  0  0  0  0  0  0  0  0  0
   13.5339   42.8267  125.7262 C   0  0  0  0  0  0  0  0  0  0  0  0
    9.5323   45.7658  131.3161 C   0  0  0  0  0  0  0  0  0  0  0  0
    9.7802   46.6776  130.3033 C   0  0  0  0  0  0  0  0  0  0  0  0
    8.7936   46.9677  129.4070 C   0  0  0  0  0  0  0  0  0  0  0  0
    7.5369   46.3890  129.4578 C   0  0  0  0  0  0  0  0  0  0  0  0
    7.2649   45.4838  130.4476 C   0  0  0  0  0  0  0  0  0  0  0  0
    8.2653   45.1881  131.3573 C   0  0  0  0  0  0  0  0  0  0  0  0
    6.6068   46.7262  128.5386 O   0  0  0  0  0  0  0  0  0  0  0  0
    6.0158   47.9309  128.2204 C   0  0  0  0  0  0  0  0  0  0  0  0
    4.7459   48.2091  128.9835 C   0  0  0  0  0  0  0  0  0  0  0  0
    5.0130   49.4514  129.7604 C   0  0  0  0  0  0  0  0  0  0  0  0
    6.4016   49.8120  129.5814 N   0  0  0  0  0  0  0  0  0  0  0  0
    6.8619   49.1570  128.3971 C   0  0  0  0  0  0  0  0  0  0  0  0
    6.5138   51.2509  129.5269 C   0  0  0  0  0  0  0  0  0  0  0  0
    7.7090   51.7972  130.2268 C   0  0  0  0  0  0  0  0  0  0  0  0
    8.2919   50.6628  131.0733 C   0  0  0  0  0  0  0  0  0  0  0  0
    9.3922   50.1648  130.4002 F   0  0  0  0  0  0  0  0  0  0  0  0
 23 24  1  0  0  0
 24 22  1  0  0  0
 22 14  1  0  0  0
 14 15  2  0  0  0
 15 16  1  0  0  0
 15 17  1  0  0  0
 17 18  2  0  0  0
 18 19  1  0  0  0
 19 20  2  0  0  0
 20 21  1  0  0  0
 18  1  1  0  0  0
  1  2  2  0  0  0
  2 25  1  0  0  0
 25 26  2  0  0  0
 26 27  1  0  0  0
 27 28  2  0  0  0
 28 31  1  0  0  0
 31 32  1  0  0  0
 32 33  1  0  0  0
 33 34  1  0  0  0
 34 35  1  0  0  0
 35 37  1  0  0  0
 37 38  1  0  0  0
 38 39  1  0  0  0
 39 40  1  0  0  0
 35 36  1  0  0  0
 28 29  1  0  0  0
 29 30  2  0  0  0
  2  3  1  0  0  0
  3  4  2  0  0  0
  4  5  1  0  0  0
  5  6  2  0  0  0
  6  7  1  0  0  0
  6  8  1  0  0  0
  8  9  2  0  0  0
  9 10  1  0  0  0
 10 11  1  0  0  0
 11 12  1  0  0  0
 20 14  1  0  0  0
 12  1  1  0  0  0
 30 25  1  0  0  0
  9  3  1  0  0  0
 36 32  1  0  0  0
  7 13  1  0  0  0
M  END
> <minimizedAffinity>
11.82342

> <CNNscore>
0.3889984190

> <CNNaffinity>
8.2341232300

> <CNN_VS>
3.2030608654

> <CNNaffinity_variance>
0.6102493405

$$$$
[H]Oc1c([H])c([H])c2c(c1[H])C([H])([H])C([H])([H])C([H])([H])C(c1c([H])c(F)c(OC([H])([H])C([H])([H])[H])c(F)c1[H])=C2c1c([H])c([H])c(O[C@]2([H])C([H])([H])N(C([H])([H])C([H])([H])C([H])([H])F)C([H])([H])C2([H])[H])c([H])c1[H]


 40 44  0  0  0  0  0  0  0  0999 V2000
   10.4002   45.6857  133.1936 C   0  0  0  0  0  0  0  0  0  0  0  0
    9.9911   45.0234  132.1633 C   0  0  0  0  0  0  0  0  0  0  0  0
   10.3421   43.5951  131.9279 C   0  0  0  0  0  0  0  0  0  0  0  0
    9.3960   42.9753  131.1578 C   0  0  0  0  0  0  0  0  0  0  0  0
    9.5675   41.6251  130.8324 C   0  0  0  0  0  0  0  0  0  0  0  0
   10.6845   40.9414  131.2925 C   0  0  0  0  0  0  0  0  0  0  0  0
   10.8445   39.5949  130.9607 O   0  0  0  0  0  0  0  0  0  0  0  0
   11.6171   41.5522  132.0534 C   0  0  0  0  0  0  0  0  0  0  0  0
   11.4455   42.9041  132.3790 C   0  0  0  0  0  0  0  0  0  0  0  0
   12.5695   43.3122  133.2211 C   0  0  0  0  0  0  0  0  0  0  0  0
   12.6240   44.7743  133.5375 C   0  0  0  0  0  0  0  0  0  0  0  0
   11.3624   45.1584  134.2934 C   0  0  0  0  0  0  0  0  0  0  0  0
   11.6346   39.0762  131.2743 H   0  0  0  0  0  0  0  0  0  0  0  0
    9.2914   49.7847  133.8816 C   0  0  0  0  0  0  0  0  0  0  0  0
    8.8258   48.7336  134.6812 C   0  0  0  0  0  0  0  0  0  0  0  0
    8.0163   49.0386  135.7268 F   0  0  0  0  0  0  0  0  0  0  0  0
    9.1715   47.4366  134.4382 C   0  0  0  0  0  0  0  0  0  0  0  0
   10.0100   47.0514  133.3829 C   0  0  0  0  0  0  0  0  0  0  0  0
   10.4720   48.0929  132.5938 C   0  0  0  0  0  0  0  0  0  0  0  0
   10.1246   49.3998  132.8372 C   0  0  0  0  0  0  0  0  0  0  0  0
   10.5747   50.4315  132.0656 F   0  0  0  0  0  0  0  0  0  0  0  0
    8.9353   51.0486  134.1300 O   0  0  0  0  0  0  0  0  0  0  0  0
    8.6932   53.0996  135.4421 C   0  0  0  0  0  0  0  0  0  0  0  0
    9.3391   52.2878  134.3226 C   0  0  0  0  0  0  0  0  0  0  0  0
    9.1433   45.6114  131.1821 C   0  0  0  0  0  0  0  0  0  0  0  0
    9.5953   46.0657  129.9541 C   0  0  0  0  0  0  0  0  0  0  0  0
    8.7010   46.5711  129.0565 C   0  0  0  0  0  0  0  0  0  0  0  0
    7.3431   46.6552  129.3131 C   0  0  0  0  0  0  0  0  0  0  0  0
    6.8689   46.2126  130.5183 C   0  0  0  0  0  0  0  0  0  0  0  0
    7.7752   45.6990  131.4297 C   0  0  0  0  0  0  0  0  0  0  0  0
    6.5157   47.1705  128.3786 O   0  0  0  0  0  0  0  0  0  0  0  0
    5.9220   48.4088  128.2513 C   0  0  0  0  0  0  0  0  0  0  0  0
    5.0457   48.7892  129.4174 C   0  0  0  0  0  0  0  0  0  0  0  0
    5.6562   50.0221  129.9878 C   0  0  0  0  0  0  0  0  0  0  0  0
    6.8976   50.2801  129.2932 N   0  0  0  0  0  0  0  0  0  0  0  0
    6.8448   49.5744  128.0512 C   0  0  0  0  0  0  0  0  0  0  0  0
    7.0675   51.7063  129.1409 C   0  0  0  0  0  0  0  0  0  0  0  0
    7.0421   52.1770  127.7286 C   0  0  0  0  0  0  0  0  0  0  0  0
    7.2228   53.6968  127.7579 C   0  0  0  0  0  0  0  0  0  0  0  0
    7.9849   54.0461  126.6584 F   0  0  0  0  0  0  0  0  0  0  0  0
 23 24  1  0  0  0
 24 22  1  0  0  0
 22 14  1  0  0  0
 14 15  2  0  0  0
 15 16  1  0  0  0
 15 17  1  0  0  0
 17 18  2  0  0  0
 18 19  1  0  0  0
 19 20  2  0  0  0
 20 21  1  0  0  0
 18  1  1  0  0  0
  1  2  2  0  0  0
  2 25  1  0  0  0
 25 26  2  0  0  0
 26 27  1  0  0  0
 27 28  2  0  0  0
 28 31  1  0  0  0
 31 32  1  0  0  0
 32 33  1  0  0  0
 33 34  1  0  0  0
 34 35  1  0  0  0
 35 37  1  0  0  0
 37 38  1  0  0  0
 38 39  1  0  0  0
 39 40  1  0  0  0
 35 36  1  0  0  0
 28 29  1  0  0  0
 29 30  2  0  0  0
  2  3  1  0  0  0
  3  4  2  0  0  0
  4  5  1  0  0  0
  5  6  2  0  0  0
  6  7  1  0  0  0
  6  8  1  0  0  0
  8  9  2  0  0  0
  9 10  1  0  0  0
 10 11  1  0  0  0
 11 12  1  0  0  0
 20 14  1  0  0  0
 12  1  1  0  0  0
 30 25  1  0  0  0
  9  3  1  0  0  0
 36 32  1  0  0  0
  7 13  1  0  0  0
M  END
> <minimizedAffinity>
13.14616

> <CNNscore>
0.3838154674

> <CNNaffinity>
8.1462268829

> <CNN_VS>
3.1266479492

> <CNNaffinity_variance>
0.7424658537

$$$$
[H]Oc1c([H])c([H])c2c(c1[H])C([H])([H])C([H])([H])C([H])([H])C(c1c([H])c(F)c(OC([H])([H])C([H])([H])[H])c(F)c1[H])=C2c1c([H])c([H])c(O[C@]2([H])C([H])([H])N(C([H])([H])C([H])([H])C([H])([H])F)C([H])([H])C2([H])[H])c([H])c1[H]


 40 44  0  0  0  0  0  0  0  0999 V2000
   10.7704   45.2743  131.7269 C   0  0  0  0  0  0  0  0  0  0  0  0
   10.4082   45.3751  130.4916 C   0  0  0  0  0  0  0  0  0  0  0  0
   11.1420   44.7144  129.3764 C   0  0  0  0  0  0  0  0  0  0  0  0
   10.3146   44.4800  128.3122 C   0  0  0  0  0  0  0  0  0  0  0  0
   10.8403   43.8665  127.1695 C   0  0  0  0  0  0  0  0  0  0  0  0
   12.1807   43.5077  127.1341 C   0  0  0  0  0  0  0  0  0  0  0  0
   12.6932   42.8969  125.9882 O   0  0  0  0  0  0  0  0  0  0  0  0
   12.9967   43.7375  128.1844 C   0  0  0  0  0  0  0  0  0  0  0  0
   12.4705   44.3519  129.3284 C   0  0  0  0  0  0  0  0  0  0  0  0
   13.5435   44.4622  130.3161 C   0  0  0  0  0  0  0  0  0  0  0  0
   13.1913   45.2358  131.5483 C   0  0  0  0  0  0  0  0  0  0  0  0
   12.0359   44.5398  132.2490 C   0  0  0  0  0  0  0  0  0  0  0  0
   13.6503   42.6279  125.9307 H   0  0  0  0  0  0  0  0  0  0  0  0
    8.4342   47.2633  134.7419 C   0  0  0  0  0  0  0  0  0  0  0  0
    9.4093   47.9252  133.9855 C   0  0  0  0  0  0  0  0  0  0  0  0
    9.5937   49.2518  134.2043 F   0  0  0  0  0  0  0  0  0  0  0  0
   10.1553   47.2756  133.0462 C   0  0  0  0  0  0  0  0  0  0  0  0
   10.0113   45.9105  132.7623 C   0  0  0  0  0  0  0  0  0  0  0  0
    9.0441   45.2572  133.5099 C   0  0  0  0  0  0  0  0  0  0  0  0
    8.2920   45.9100  134.4565 C   0  0  0  0  0  0  0  0  0  0  0  0
    7.3378   45.2749  135.1970 F   0  0  0  0  0  0  0  0  0  0  0  0
    7.7186   47.9144  135.6638 O   0  0  0  0  0  0  0  0  0  0  0  0
    7.7632   49.3228  137.6642 C   0  0  0  0  0  0  0  0  0  0  0  0
    7.4127   49.0788  136.1988 C   0  0  0  0  0  0  0  0  0  0  0  0
    9.2519   46.1118  130.1070 C   0  0  0  0  0  0  0  0  0  0  0  0
    7.9571   45.6871  130.3553 C   0  0  0  0  0  0  0  0  0  0  0  0
    6.9101   46.4831  129.9932 C   0  0  0  0  0  0  0  0  0  0  0  0
    7.0770   47.7131  129.3802 C   0  0  0  0  0  0  0  0  0  0  0  0
    8.3457   48.1580  129.1238 C   0  0  0  0  0  0  0  0  0  0  0  0
    9.4089   47.3516  129.4914 C   0  0  0  0  0  0  0  0  0  0  0  0
    5.9938   48.4471  129.0459 O   0  0  0  0  0  0  0  0  0  0  0  0
    5.6196   49.7375  129.3573 C   0  0  0  0  0  0  0  0  0  0  0  0
    6.2381   50.2636  130.6273 C   0  0  0  0  0  0  0  0  0  0  0  0
    7.0480   51.4438  130.2157 C   0  0  0  0  0  0  0  0  0  0  0  0
    7.0272   51.5308  128.7727 N   0  0  0  0  0  0  0  0  0  0  0  0
    5.8974   50.7826  128.3177 C   0  0  0  0  0  0  0  0  0  0  0  0
    6.9950   52.9211  128.3826 C   0  0  0  0  0  0  0  0  0  0  0  0
    7.2124   53.1525  126.9280 C   0  0  0  0  0  0  0  0  0  0  0  0
    7.6578   54.6080  126.7658 C   0  0  0  0  0  0  0  0  0  0  0  0
    8.6904   54.6269  125.8466 F   0  0  0  0  0  0  0  0  0  0  0  0
 23 24  1  0  0  0
 24 22  1  0  0  0
 22 14  1  0  0  0
 14 15  2  0  0  0
 15 16  1  0  0  0
 15 17  1  0  0  0
 17 18  2  0  0  0
 18 19  1  0  0  0
 19 20  2  0  0  0
 20 21  1  0  0  0
 18  1  1  0  0  0
  1  2  2  0  0  0
  2 25  1  0  0  0
 25 26  2  0  0  0
 26 27  1  0  0  0
 27 28  2  0  0  0
 28 31  1  0  0  0
 31 32  1  0  0  0
 32 33  1  0  0  0
 33 34  1  0  0  0
 34 35  1  0  0  0
 35 37  1  0  0  0
 37 38  1  0  0  0
 38 39  1  0  0  0
 39 40  1  0  0  0
 35 36  1  0  0  0
 28 29  1  0  0  0
 29 30  2  0  0  0
  2  3  1  0  0  0
  3  4  2  0  0  0
  4  5  1  0  0  0
  5  6  2  0  0  0
  6  7  1  0  0  0
  6  8  1  0  0  0
  8  9  2  0  0  0
  9 10  1  0  0  0
 10 11  1  0  0  0
 11 12  1  0  0  0
 20 14  1  0  0  0
 12  1  1  0  0  0
 30 25  1  0  0  0
  9  3  1  0  0  0
 36 32  1  0  0  0
  7 13  1  0  0  0
M  END
> <minimizedAffinity>
12.82986

> <CNNscore>
0.3767493963

> <CNNaffinity>
7.8978681564

> <CNN_VS>
2.9755170345

> <CNNaffinity_variance>
0.7585915327

$$$$
[H]Oc1c([H])c([H])c2c(c1[H])C([H])([H])C([H])([H])C([H])([H])C(c1c([H])c(F)c(OC([H])([H])C([H])([H])[H])c(F)c1[H])=C2c1c([H])c([H])c(O[C@]2([H])C([H])([H])N(C([H])([H])C([H])([H])C([H])([H])F)C([H])([H])C2([H])[H])c([H])c1[H]


 40 44  0  0  0  0  0  0  0  0999 V2000
    8.9351   48.9493  131.0924 C   0  0  0  0  0  0  0  0  0  0  0  0
    7.9710   48.2399  130.6080 C   0  0  0  0  0  0  0  0  0  0  0  0
    6.8431   48.8285  129.8335 C   0  0  0  0  0  0  0  0  0  0  0  0
    6.2992   47.9091  128.9784 C   0  0  0  0  0  0  0  0  0  0  0  0
    5.2211   48.2908  128.1720 C   0  0  0  0  0  0  0  0  0  0  0  0
    4.7252   49.5849  128.2506 C   0  0  0  0  0  0  0  0  0  0  0  0
    3.6490   49.9533  127.4413 O   0  0  0  0  0  0  0  0  0  0  0  0
    5.2626   50.4924  129.0929 C   0  0  0  0  0  0  0  0  0  0  0  0
    6.3418   50.1102  129.9005 C   0  0  0  0  0  0  0  0  0  0  0  0
    6.7467   51.2711  130.6926 C   0  0  0  0  0  0  0  0  0  0  0  0
    7.7950   50.9971  131.7255 C   0  0  0  0  0  0  0  0  0  0  0  0
    9.0497   50.4973  131.0281 C   0  0  0  0  0  0  0  0  0  0  0  0
    3.2695   50.8733  127.4741 H   0  0  0  0  0  0  0  0  0  0  0  0
   12.0687   47.0262  133.3256 C   0  0  0  0  0  0  0  0  0  0  0  0
   11.2578   48.0276  133.8740 C   0  0  0  0  0  0  0  0  0  0  0  0
   11.4623   48.3747  135.1699 F   0  0  0  0  0  0  0  0  0  0  0  0
   10.2806   48.6413  133.1464 C   0  0  0  0  0  0  0  0  0  0  0  0
   10.0090   48.3262  131.8078 C   0  0  0  0  0  0  0  0  0  0  0  0
   10.8106   47.3332  131.2671 C   0  0  0  0  0  0  0  0  0  0  0  0
   11.7954   46.7142  131.9985 C   0  0  0  0  0  0  0  0  0  0  0  0
   12.5892   45.7358  131.4744 F   0  0  0  0  0  0  0  0  0  0  0  0
   13.0268   46.4419  134.0512 O   0  0  0  0  0  0  0  0  0  0  0  0
   14.2471   47.7744  135.7011 C   0  0  0  0  0  0  0  0  0  0  0  0
   14.1447   46.6014  134.7298 C   0  0  0  0  0  0  0  0  0  0  0  0
    7.9324   46.8245  130.7588 C   0  0  0  0  0  0  0  0  0  0  0  0
    8.1753   45.9382  129.7224 C   0  0  0  0  0  0  0  0  0  0  0  0
    8.1643   44.5970  129.9718 C   0  0  0  0  0  0  0  0  0  0  0  0
    7.9188   44.0670  131.2269 C   0  0  0  0  0  0  0  0  0  0  0  0
    7.6766   44.9201  132.2695 C   0  0  0  0  0  0  0  0  0  0  0  0
    7.6882   46.2811  132.0181 C   0  0  0  0  0  0  0  0  0  0  0  0
    7.9200   42.7278  131.4002 O   0  0  0  0  0  0  0  0  0  0  0  0
    8.9141   41.8436  131.7636 C   0  0  0  0  0  0  0  0  0  0  0  0
    9.8505   41.4811  130.6394 C   0  0  0  0  0  0  0  0  0  0  0  0
   11.1969   41.9412  131.0795 C   0  0  0  0  0  0  0  0  0  0  0  0
   11.0491   42.6594  132.3255 N   0  0  0  0  0  0  0  0  0  0  0  0
    9.8003   42.2648  132.8983 C   0  0  0  0  0  0  0  0  0  0  0  0
   12.1866   42.3804  133.1707 C   0  0  0  0  0  0  0  0  0  0  0  0
   12.6117   43.5266  134.0205 C   0  0  0  0  0  0  0  0  0  0  0  0
   11.5801   43.6608  135.1434 C   0  0  0  0  0  0  0  0  0  0  0  0
   10.7389   44.7070  134.8124 F   0  0  0  0  0  0  0  0  0  0  0  0
 23 24  1  0  0  0
 24 22  1  0  0  0
 22 14  1  0  0  0
 14 15  2  0  0  0
 15 16  1  0  0  0
 15 17  1  0  0  0
 17 18  2  0  0  0
 18 19  1  0  0  0
 19 20  2  0  0  0
 20 21  1  0  0  0
 18  1  1  0  0  0
  1  2  2  0  0  0
  2 25  1  0  0  0
 25 26  2  0  0  0
 26 27  1  0  0  0
 27 28  2  0  0  0
 28 31  1  0  0  0
 31 32  1  0  0  0
 32 33  1  0  0  0
 33 34  1  0  0  0
 34 35  1  0  0  0
 35 37  1  0  0  0
 37 38  1  0  0  0
 38 39  1  0  0  0
 39 40  1  0  0  0
 35 36  1  0  0  0
 28 29  1  0  0  0
 29 30  2  0  0  0
  2  3  1  0  0  0
  3  4  2  0  0  0
  4  5  1  0  0  0
  5  6  2  0  0  0
  6  7  1  0  0  0
  6  8  1  0  0  0
  8  9  2  0  0  0
  9 10  1  0  0  0
 10 11  1  0  0  0
 11 12  1  0  0  0
 20 14  1  0  0  0
 12  1  1  0  0  0
 30 25  1  0  0  0
  9  3  1  0  0  0
 36 32  1  0  0  0
  7 13  1  0  0  0
M  END
> <minimizedAffinity>
14.57629

> <CNNscore>
0.3730254769

> <CNNaffinity>
8.2849140167

> <CNN_VS>
3.0904839039

> <CNNaffinity_variance>
1.6186678410

$$$$
[H]Oc1c([H])c([H])c2c(c1[H])C([H])([H])C([H])([H])C([H])([H])C(c1c([H])c(F)c(OC([H])([H])C([H])([H])[H])c(F)c1[H])=C2c1c([H])c([H])c(O[C@]2([H])C([H])([H])N(C([H])([H])C([H])([H])C([H])([H])F)C([H])([H])C2([H])[H])c([H])c1[H]


 40 44  0  0  0  0  0  0  0  0999 V2000
   11.3745   45.1553  132.2520 C   0  0  0  0  0  0  0  0  0  0  0  0
   10.6773   45.5936  131.2574 C   0  0  0  0  0  0  0  0  0  0  0  0
   10.3077   44.7438  130.0913 C   0  0  0  0  0  0  0  0  0  0  0  0
    9.1634   45.1972  129.4937 C   0  0  0  0  0  0  0  0  0  0  0  0
    8.6703   44.5175  128.3742 C   0  0  0  0  0  0  0  0  0  0  0  0
    9.3434   43.4034  127.8921 C   0  0  0  0  0  0  0  0  0  0  0  0
    8.8418   42.7343  126.7742 O   0  0  0  0  0  0  0  0  0  0  0  0
   10.4715   42.9551  128.4823 C   0  0  0  0  0  0  0  0  0  0  0  0
   10.9652   43.6357  129.6031 C   0  0  0  0  0  0  0  0  0  0  0  0
   12.1683   42.9408  130.0598 C   0  0  0  0  0  0  0  0  0  0  0  0
   12.9132   43.6253  131.1632 C   0  0  0  0  0  0  0  0  0  0  0  0
   12.0000   43.7384  132.3730 C   0  0  0  0  0  0  0  0  0  0  0  0
    9.3011   41.9325  126.4033 H   0  0  0  0  0  0  0  0  0  0  0  0
   12.3532   47.8059  135.4956 C   0  0  0  0  0  0  0  0  0  0  0  0
   13.3286   47.1125  134.7684 C   0  0  0  0  0  0  0  0  0  0  0  0
   14.6304   47.3162  135.0931 F   0  0  0  0  0  0  0  0  0  0  0  0
   13.0006   46.2605  133.7547 C   0  0  0  0  0  0  0  0  0  0  0  0
   11.6788   46.0106  133.3606 C   0  0  0  0  0  0  0  0  0  0  0  0
   10.7146   46.6994  134.0795 C   0  0  0  0  0  0  0  0  0  0  0  0
   11.0433   47.5578  135.1008 C   0  0  0  0  0  0  0  0  0  0  0  0
   10.1008   48.2400  135.8139 F   0  0  0  0  0  0  0  0  0  0  0  0
   12.6930   48.6303  136.4910 O   0  0  0  0  0  0  0  0  0  0  0  0
   14.8318   48.6422  137.6794 C   0  0  0  0  0  0  0  0  0  0  0  0
   13.6439   49.3573  137.0414 C   0  0  0  0  0  0  0  0  0  0  0  0
   10.1841   46.9287  131.2181 C   0  0  0  0  0  0  0  0  0  0  0  0
   10.7834   47.9442  130.4913 C   0  0  0  0  0  0  0  0  0  0  0  0
   10.2118   49.1827  130.4741 C   0  0  0  0  0  0  0  0  0  0  0  0
    9.0450   49.4825  131.1563 C   0  0  0  0  0  0  0  0  0  0  0  0
    8.4310   48.4976  131.8817 C   0  0  0  0  0  0  0  0  0  0  0  0
    9.0096   47.2403  131.8995 C   0  0  0  0  0  0  0  0  0  0  0  0
    8.5370   50.7324  131.0972 O   0  0  0  0  0  0  0  0  0  0  0  0
    7.3471   51.2241  130.6030 C   0  0  0  0  0  0  0  0  0  0  0  0
    7.3990   51.5969  129.1433 C   0  0  0  0  0  0  0  0  0  0  0  0
    6.3977   50.7210  128.4736 C   0  0  0  0  0  0  0  0  0  0  0  0
    5.8830   49.7869  129.4496 N   0  0  0  0  0  0  0  0  0  0  0  0
    6.1473   50.3346  130.7432 C   0  0  0  0  0  0  0  0  0  0  0  0
    4.4798   49.5598  129.1937 C   0  0  0  0  0  0  0  0  0  0  0  0
    4.0804   48.1256  129.2095 C   0  0  0  0  0  0  0  0  0  0  0  0
    5.3488   47.3029  128.9702 C   0  0  0  0  0  0  0  0  0  0  0  0
    5.6238   46.6138  130.1369 F   0  0  0  0  0  0  0  0  0  0  0  0
 23 24  1  0  0  0
 24 22  1  0  0  0
 22 14  1  0  0  0
 14 15  2  0  0  0
 15 16  1  0  0  0
 15 17  1  0  0  0
 17 18  2  0  0  0
 18 19  1  0  0  0
 19 20  2  0  0  0
 20 21  1  0  0  0
 18  1  1  0  0  0
  1  2  2  0  0  0
  2 25  1  0  0  0
 25 26  2  0  0  0
 26 27  1  0  0  0
 27 28  2  0  0  0
 28 31  1  0  0  0
 31 32  1  0  0  0
 32 33  1  0  0  0
 33 34  1  0  0  0
 34 35  1  0  0  0
 35 37  1  0  0  0
 37 38  1  0  0  0
 38 39  1  0  0  0
 39 40  1  0  0  0
 35 36  1  0  0  0
 28 29  1  0  0  0
 29 30  2  0  0  0
  2  3  1  0  0  0
  3  4  2  0  0  0
  4  5  1  0  0  0
  5  6  2  0  0  0
  6  7  1  0  0  0
  6  8  1  0  0  0
  8  9  2  0  0  0
  9 10  1  0  0  0
 10 11  1  0  0  0
 11 12  1  0  0  0
 20 14  1  0  0  0
 12  1  1  0  0  0
 30 25  1  0  0  0
  9  3  1  0  0  0
 36 32  1  0  0  0
  7 13  1  0  0  0
M  END
> <minimizedAffinity>
15.63653

> <CNNscore>
0.3715198934

> <CNNaffinity>
8.0978698730

> <CNN_VS>
3.0085196495

> <CNNaffinity_variance>
1.0523484945

$$$$
[H]Oc1c([H])c([H])c2c(c1[H])C([H])([H])C([H])([H])C([H])([H])C(c1c([H])c(F)c(OC([H])([H])C([H])([H])[H])c(F)c1[H])=C2c1c([H])c([H])c(O[C@]2([H])C([H])([H])N(C([H])([H])C([H])([H])C([H])([H])F)C([H])([H])C2([H])[H])c([H])c1[H]


 40 44  0  0  0  0  0  0  0  0999 V2000
    9.4562   44.1343  132.5137 C   0  0  0  0  0  0  0  0  0  0  0  0
    9.5304   44.5851  131.3060 C   0  0  0  0  0  0  0  0  0  0  0  0
    9.7508   43.7041  130.1253 C   0  0  0  0  0  0  0  0  0  0  0  0
    9.2417   44.2681  128.9874 C   0  0  0  0  0  0  0  0  0  0  0  0
    9.3645   43.5767  127.7769 C   0  0  0  0  0  0  0  0  0  0  0  0
    9.9945   42.3401  127.7499 C   0  0  0  0  0  0  0  0  0  0  0  0
   10.1113   41.6605  126.5360 O   0  0  0  0  0  0  0  0  0  0  0  0
   10.4955   41.7830  128.8725 C   0  0  0  0  0  0  0  0  0  0  0  0
   10.3727   42.4753  130.0844 C   0  0  0  0  0  0  0  0  0  0  0  0
   10.9686   41.6530  131.1369 C   0  0  0  0  0  0  0  0  0  0  0  0
   11.0591   42.3112  132.4783 C   0  0  0  0  0  0  0  0  0  0  0  0
    9.6557   42.6564  132.9492 C   0  0  0  0  0  0  0  0  0  0  0  0
   10.5581   40.7722  126.4825 H   0  0  0  0  0  0  0  0  0  0  0  0
    8.7796   46.9123  135.7277 C   0  0  0  0  0  0  0  0  0  0  0  0
   10.0551   46.6544  135.2104 C   0  0  0  0  0  0  0  0  0  0  0  0
   11.1051   47.3355  135.7349 F   0  0  0  0  0  0  0  0  0  0  0  0
   10.2554   45.7560  134.2036 C   0  0  0  0  0  0  0  0  0  0  0  0
    9.2167   45.0254  133.6099 C   0  0  0  0  0  0  0  0  0  0  0  0
    7.9545   45.2835  134.1212 C   0  0  0  0  0  0  0  0  0  0  0  0
    7.7511   46.1880  135.1353 C   0  0  0  0  0  0  0  0  0  0  0  0
    6.5122   46.4483  135.6447 F   0  0  0  0  0  0  0  0  0  0  0  0
    8.6036   47.7899  136.7200 O   0  0  0  0  0  0  0  0  0  0  0  0
    7.1052   49.6439  136.1682 C   0  0  0  0  0  0  0  0  0  0  0  0
    8.1235   48.9631  137.0788 C   0  0  0  0  0  0  0  0  0  0  0  0
    9.3778   45.9699  131.0119 C   0  0  0  0  0  0  0  0  0  0  0  0
    8.1871   46.5342  130.5847 C   0  0  0  0  0  0  0  0  0  0  0  0
    8.1218   47.8803  130.3733 C   0  0  0  0  0  0  0  0  0  0  0  0
    9.2011   48.7256  130.5665 C   0  0  0  0  0  0  0  0  0  0  0  0
   10.3897   48.1949  130.9894 C   0  0  0  0  0  0  0  0  0  0  0  0
   10.4571   46.8293  131.2049 C   0  0  0  0  0  0  0  0  0  0  0  0
    9.0652   50.0489  130.3343 O   0  0  0  0  0  0  0  0  0  0  0  0
    7.9551   50.8449  130.1441 C   0  0  0  0  0  0  0  0  0  0  0  0
    7.7262   51.2415  128.7080 C   0  0  0  0  0  0  0  0  0  0  0  0
    6.3978   50.6738  128.3457 C   0  0  0  0  0  0  0  0  0  0  0  0
    5.9283   49.8694  129.4514 N   0  0  0  0  0  0  0  0  0  0  0  0
    6.6448   50.2871  130.6157 C   0  0  0  0  0  0  0  0  0  0  0  0
    4.4964   50.0172  129.5700 C   0  0  0  0  0  0  0  0  0  0  0  0
    3.7378   48.7430  129.4364 C   0  0  0  0  0  0  0  0  0  0  0  0
    4.7606   47.6048  129.4737 C   0  0  0  0  0  0  0  0  0  0  0  0
    5.3237   47.5103  128.2145 F   0  0  0  0  0  0  0  0  0  0  0  0
 23 24  1  0  0  0
 24 22  1  0  0  0
 22 14  1  0  0  0
 14 15  2  0  0  0
 15 16  1  0  0  0
 15 17  1  0  0  0
 17 18  2  0  0  0
 18 19  1  0  0  0
 19 20  2  0  0  0
 20 21  1  0  0  0
 18  1  1  0  0  0
  1  2  2  0  0  0
  2 25  1  0  0  0
 25 26  2  0  0  0
 26 27  1  0  0  0
 27 28  2  0  0  0
 28 31  1  0  0  0
 31 32  1  0  0  0
 32 33  1  0  0  0
 33 34  1  0  0  0
 34 35  1  0  0  0
 35 37  1  0  0  0
 37 38  1  0  0  0
 38 39  1  0  0  0
 39 40  1  0  0  0
 35 36  1  0  0  0
 28 29  1  0  0  0
 29 30  2  0  0  0
  2  3  1  0  0  0
  3  4  2  0  0  0
  4  5  1  0  0  0
  5  6  2  0  0  0
  6  7  1  0  0  0
  6  8  1  0  0  0
  8  9  2  0  0  0
  9 10  1  0  0  0
 10 11  1  0  0  0
 11 12  1  0  0  0
 20 14  1  0  0  0
 12  1  1  0  0  0
 30 25  1  0  0  0
  9  3  1  0  0  0
 36 32  1  0  0  0
  7 13  1  0  0  0
M  END
> <minimizedAffinity>
18.54632

> <CNNscore>
0.3500122726

> <CNNaffinity>
8.2877759933

> <CNN_VS>
2.9008233547

> <CNNaffinity_variance>
0.9144166112

$$$$
[H]Oc1c([H])c([H])c2c(c1[H])C([H])([H])C([H])([H])C([H])([H])C(c1c([H])c(F)c(OC([H])([H])C([H])([H])[H])c(F)c1[H])=C2c1c([H])c([H])c(O[C@]2([H])C([H])([H])N(C([H])([H])C([H])([H])C([H])([H])F)C([H])([H])C2([H])[H])c([H])c1[H]


 40 44  0  0  0  0  0  0  0  0999 V2000
   10.7236   44.3265  131.6238 C   0  0  0  0  0  0  0  0  0  0  0  0
   10.3340   45.2402  132.4490 C   0  0  0  0  0  0  0  0  0  0  0  0
   10.3179   45.0437  133.9254 C   0  0  0  0  0  0  0  0  0  0  0  0
   10.4292   46.2384  134.5831 C   0  0  0  0  0  0  0  0  0  0  0  0
   10.4271   46.2425  135.9825 C   0  0  0  0  0  0  0  0  0  0  0  0
   10.3139   45.0451  136.6754 C   0  0  0  0  0  0  0  0  0  0  0  0
   10.3124   45.0624  138.0714 O   0  0  0  0  0  0  0  0  0  0  0  0
   10.2055   43.8664  136.0268 C   0  0  0  0  0  0  0  0  0  0  0  0
   10.2075   43.8623  134.6257 C   0  0  0  0  0  0  0  0  0  0  0  0
   10.1037   42.4739  134.1779 C   0  0  0  0  0  0  0  0  0  0  0  0
    9.9392   42.2969  132.7005 C   0  0  0  0  0  0  0  0  0  0  0  0
   11.1544   42.8820  131.9996 C   0  0  0  0  0  0  0  0  0  0  0  0
   10.2323   44.2212  138.5981 H   0  0  0  0  0  0  0  0  0  0  0  0
   10.6464   45.0895  127.3910 C   0  0  0  0  0  0  0  0  0  0  0  0
   10.1246   43.9189  127.9555 C   0  0  0  0  0  0  0  0  0  0  0  0
    9.5507   43.0119  127.1251 F   0  0  0  0  0  0  0  0  0  0  0  0
   10.1741   43.6833  129.2982 C   0  0  0  0  0  0  0  0  0  0  0  0
   10.7429   44.5797  130.2136 C   0  0  0  0  0  0  0  0  0  0  0  0
   11.2567   45.7389  129.6538 C   0  0  0  0  0  0  0  0  0  0  0  0
   11.2078   45.9777  128.3016 C   0  0  0  0  0  0  0  0  0  0  0  0
   11.7110   47.1159  127.7419 F   0  0  0  0  0  0  0  0  0  0  0  0
   10.5964   45.2994  126.0722 O   0  0  0  0  0  0  0  0  0  0  0  0
   10.2856   47.1809  124.5390 C   0  0  0  0  0  0  0  0  0  0  0  0
    9.9117   45.7967  125.0625 C   0  0  0  0  0  0  0  0  0  0  0  0
    9.9131   46.5247  132.0014 C   0  0  0  0  0  0  0  0  0  0  0  0
    8.7435   46.7418  131.2918 C   0  0  0  0  0  0  0  0  0  0  0  0
    8.3965   48.0150  130.9461 C   0  0  0  0  0  0  0  0  0  0  0  0
    9.1649   49.1194  131.2727 C   0  0  0  0  0  0  0  0  0  0  0  0
   10.3252   48.9339  131.9745 C   0  0  0  0  0  0  0  0  0  0  0  0
   10.6782   47.6426  132.3264 C   0  0  0  0  0  0  0  0  0  0  0  0
    8.7614   50.3514  130.8945 O   0  0  0  0  0  0  0  0  0  0  0  0
    7.5529   50.8262  130.4297 C   0  0  0  0  0  0  0  0  0  0  0  0
    7.5317   51.0956  128.9467 C   0  0  0  0  0  0  0  0  0  0  0  0
    6.4860   50.1910  128.3932 C   0  0  0  0  0  0  0  0  0  0  0  0
    6.0127   49.3353  129.4580 N   0  0  0  0  0  0  0  0  0  0  0  0
    6.3517   49.9674  130.6944 C   0  0  0  0  0  0  0  0  0  0  0  0
    4.5952   49.1129  129.2921 C   0  0  0  0  0  0  0  0  0  0  0  0
    4.1789   47.6909  129.4379 C   0  0  0  0  0  0  0  0  0  0  0  0
    5.4116   46.8298  129.1512 C   0  0  0  0  0  0  0  0  0  0  0  0
    5.8113   46.2644  130.3479 F   0  0  0  0  0  0  0  0  0  0  0  0
 23 24  1  0  0  0
 24 22  1  0  0  0
 22 14  1  0  0  0
 14 15  2  0  0  0
 15 16  1  0  0  0
 15 17  1  0  0  0
 17 18  2  0  0  0
 18 19  1  0  0  0
 19 20  2  0  0  0
 20 21  1  0  0  0
 18  1  1  0  0  0
  1  2  2  0  0  0
  2 25  1  0  0  0
 25 26  2  0  0  0
 26 27  1  0  0  0
 27 28  2  0  0  0
 28 31  1  0  0  0
 31 32  1  0  0  0
 32 33  1  0  0  0
 33 34  1  0  0  0
 34 35  1  0  0  0
 35 37  1  0  0  0
 37 38  1  0  0  0
 38 39  1  0  0  0
 39 40  1  0  0  0
 35 36  1  0  0  0
 28 29  1  0  0  0
 29 30  2  0  0  0
  2  3  1  0  0  0
  3  4  2  0  0  0
  4  5  1  0  0  0
  5  6  2  0  0  0
  6  7  1  0  0  0
  6  8  1  0  0  0
  8  9  2  0  0  0
  9 10  1  0  0  0
 10 11  1  0  0  0
 11 12  1  0  0  0
 20 14  1  0  0  0
 12  1  1  0  0  0
 30 25  1  0  0  0
  9  3  1  0  0  0
 36 32  1  0  0  0
  7 13  1  0  0  0
M  END
> <minimizedAffinity>
13.18786

> <CNNscore>
0.3335579336

> <CNNaffinity>
8.2488908768

> <CNN_VS>
2.7514829636

> <CNNaffinity_variance>
0.7748022676

$$$$
[H]OC(=O)/C([H])=C(\[H])c1c([H])c([H])c(Oc2c(-c3c(C([H])([H])[H])noc3C([H])([H])[H])sc3c([H])c(O[H])c([H])c([H])c23)c([H])c1[H]


 31 34  0  0  0  0  0  0  0  0999 V2000
    9.8258   46.4767  131.9573 C   0  0  0  0  0  0  0  0  0  0  0  0
   10.1472   48.1964  131.8401 S   0  0  0  0  0  0  0  0  0  0  0  0
    8.8571   48.6481  130.8471 C   0  0  0  0  0  0  0  0  0  0  0  0
    8.4588   49.8793  130.3256 C   0  0  0  0  0  0  0  0  0  0  0  0
    7.3406   49.9704  129.5245 C   0  0  0  0  0  0  0  0  0  0  0  0
    6.9054   51.1600  128.9853 O   0  0  0  0  0  0  0  0  0  0  0  0
    6.6813   48.7906  129.2955 C   0  0  0  0  0  0  0  0  0  0  0  0
    7.0599   47.5853  129.7980 C   0  0  0  0  0  0  0  0  0  0  0  0
    8.2040   47.4763  130.6207 C   0  0  0  0  0  0  0  0  0  0  0  0
    8.7187   46.3557  131.2016 C   0  0  0  0  0  0  0  0  0  0  0  0
    6.0844   51.1633  128.4097 H   0  0  0  0  0  0  0  0  0  0  0  0
   12.3331   44.5826  130.9363 C   0  0  0  0  0  0  0  0  0  0  0  0
   11.7710   44.8063  132.3093 C   0  0  0  0  0  0  0  0  0  0  0  0
   12.2517   44.1978  133.4364 N   0  0  0  0  0  0  0  0  0  0  0  0
   11.5239   44.5393  134.4327 O   0  0  0  0  0  0  0  0  0  0  0  0
   10.5692   45.3439  134.0847 C   0  0  0  0  0  0  0  0  0  0  0  0
    9.5150   45.9692  134.9192 C   0  0  0  0  0  0  0  0  0  0  0  0
   10.7007   45.5434  132.6983 C   0  0  0  0  0  0  0  0  0  0  0  0
    8.1029   45.0748  131.0040 O   0  0  0  0  0  0  0  0  0  0  0  0
    8.6852   44.1754  130.1210 C   0  0  0  0  0  0  0  0  0  0  0  0
    9.0210   42.8920  130.4656 C   0  0  0  0  0  0  0  0  0  0  0  0
    9.6055   42.0548  129.5062 C   0  0  0  0  0  0  0  0  0  0  0  0
    9.8480   42.4918  128.2326 C   0  0  0  0  0  0  0  0  0  0  0  0
    9.5111   43.7787  127.8875 C   0  0  0  0  0  0  0  0  0  0  0  0
    8.9320   44.6075  128.8389 C   0  0  0  0  0  0  0  0  0  0  0  0
   10.4543   41.6243  127.2357 C   0  0  0  0  0  0  0  0  0  0  0  0
   10.1601   40.3556  127.0655 C   0  0  0  0  0  0  0  0  0  0  0  0
   10.8213   39.5569  126.0354 C   0  0  0  0  0  0  0  0  0  0  0  0
   10.1117   38.9335  125.0170 O   0  0  0  0  0  0  0  0  0  0  0  0
   12.0687   39.4092  126.0415 O   0  0  0  0  0  0  0  0  0  0  0  0
    9.8100   37.9708  125.0889 H   0  0  0  0  0  0  0  0  0  0  0  0
 12 13  1  0  0  0
 13 14  2  0  0  0
 14 15  1  0  0  0
 15 16  1  0  0  0
 16 17  1  0  0  0
 16 18  2  0  0  0
 18  1  1  0  0  0
  1  2  1  0  0  0
  2  3  1  0  0  0
  3  4  2  0  0  0
  4  5  1  0  0  0
  5  6  1  0  0  0
  5  7  2  0  0  0
  7  8  1  0  0  0
  8  9  2  0  0  0
  9 10  1  0  0  0
 10 19  1  0  0  0
 19 20  1  0  0  0
 20 21  2  0  0  0
 21 22  1  0  0  0
 22 23  2  0  0  0
 23 26  1  0  0  0
 26 27  2  0  0  0
 27 28  1  0  0  0
 28 29  1  0  0  0
 28 30  2  0  0  0
 23 24  1  0  0  0
 24 25  2  0  0  0
 18 13  1  0  0  0
 10  1  2  0  0  0
 25 20  1  0  0  0
  9  3  1  0  0  0
  6 11  1  0  0  0
 29 31  1  0  0  0
M  END
> <minimizedAffinity>
2.51359

> <CNNscore>
0.6000747681

> <CNNaffinity>
8.2871866226

> <CNN_VS>
4.9729313850

> <CNNaffinity_variance>
1.0591483116

$$$$
[H]OC(=O)/C([H])=C(\[H])c1c([H])c([H])c(Oc2c(-c3c(C([H])([H])[H])noc3C([H])([H])[H])sc3c([H])c(O[H])c([H])c([H])c23)c([H])c1[H]


 31 34  0  0  0  0  0  0  0  0999 V2000
    9.8467   46.4713  132.0376 C   0  0  0  0  0  0  0  0  0  0  0  0
   10.1820   48.1853  131.8828 S   0  0  0  0  0  0  0  0  0  0  0  0
    8.9123   48.6202  130.8566 C   0  0  0  0  0  0  0  0  0  0  0  0
    8.5317   49.8404  130.2974 C   0  0  0  0  0  0  0  0  0  0  0  0
    7.4281   49.9186  129.4749 C   0  0  0  0  0  0  0  0  0  0  0  0
    7.0105   51.0970  128.8985 O   0  0  0  0  0  0  0  0  0  0  0  0
    6.7647   48.7376  129.2642 C   0  0  0  0  0  0  0  0  0  0  0  0
    7.1261   47.5430  129.8034 C   0  0  0  0  0  0  0  0  0  0  0  0
    8.2552   47.4474  130.6483 C   0  0  0  0  0  0  0  0  0  0  0  0
    8.7520   46.3385  131.2661 C   0  0  0  0  0  0  0  0  0  0  0  0
    6.1997   51.0911  128.3088 H   0  0  0  0  0  0  0  0  0  0  0  0
    9.8249   45.6864  135.2470 C   0  0  0  0  0  0  0  0  0  0  0  0
   10.6689   45.1709  134.1187 C   0  0  0  0  0  0  0  0  0  0  0  0
   11.6446   44.2238  134.2698 N   0  0  0  0  0  0  0  0  0  0  0  0
   12.2267   44.0470  133.1433 O   0  0  0  0  0  0  0  0  0  0  0  0
   11.7282   44.8009  132.2144 C   0  0  0  0  0  0  0  0  0  0  0  0
   12.1078   44.9074  130.7849 C   0  0  0  0  0  0  0  0  0  0  0  0
   10.7022   45.5513  132.8170 C   0  0  0  0  0  0  0  0  0  0  0  0
    8.1307   45.0570  131.0901 O   0  0  0  0  0  0  0  0  0  0  0  0
    8.6729   44.1645  130.1751 C   0  0  0  0  0  0  0  0  0  0  0  0
    8.8854   42.8390  130.4513 C   0  0  0  0  0  0  0  0  0  0  0  0
    9.4382   42.0127  129.4641 C   0  0  0  0  0  0  0  0  0  0  0  0
    9.7702   42.5015  128.2301 C   0  0  0  0  0  0  0  0  0  0  0  0
    9.5569   43.8307  127.9536 C   0  0  0  0  0  0  0  0  0  0  0  0
    9.0092   44.6487  128.9325 C   0  0  0  0  0  0  0  0  0  0  0  0
   10.3438   41.6454  127.2044 C   0  0  0  0  0  0  0  0  0  0  0  0
   10.1875   40.3430  127.1397 C   0  0  0  0  0  0  0  0  0  0  0  0
   10.8024   39.5592  126.0701 C   0  0  0  0  0  0  0  0  0  0  0  0
   10.0500   38.9662  125.0644 O   0  0  0  0  0  0  0  0  0  0  0  0
   12.0473   39.3969  126.0291 O   0  0  0  0  0  0  0  0  0  0  0  0
    9.7391   38.0057  125.1265 H   0  0  0  0  0  0  0  0  0  0  0  0
 12 13  1  0  0  0
 13 14  2  0  0  0
 14 15  1  0  0  0
 15 16  1  0  0  0
 16 17  1  0  0  0
 16 18  2  0  0  0
 18  1  1  0  0  0
  1  2  1  0  0  0
  2  3  1  0  0  0
  3  4  2  0  0  0
  4  5  1  0  0  0
  5  6  1  0  0  0
  5  7  2  0  0  0
  7  8  1  0  0  0
  8  9  2  0  0  0
  9 10  1  0  0  0
 10 19  1  0  0  0
 19 20  1  0  0  0
 20 21  2  0  0  0
 21 22  1  0  0  0
 22 23  2  0  0  0
 23 26  1  0  0  0
 26 27  2  0  0  0
 27 28  1  0  0  0
 28 29  1  0  0  0
 28 30  2  0  0  0
 23 24  1  0  0  0
 24 25  2  0  0  0
 18 13  1  0  0  0
 10  1  2  0  0  0
 25 20  1  0  0  0
  9  3  1  0  0  0
  6 11  1  0  0  0
 29 31  1  0  0  0
M  END
> <minimizedAffinity>
2.79605

> <CNNscore>
0.5896162391

> <CNNaffinity>
8.2151832581

> <CNN_VS>
4.8438053131

> <CNNaffinity_variance>
1.0309473276

$$$$
[H]OC(=O)/C([H])=C(\[H])c1c([H])c([H])c(Oc2c(-c3c(C([H])([H])[H])noc3C([H])([H])[H])sc3c([H])c(O[H])c([H])c([H])c23)c([H])c1[H]


 31 34  0  0  0  0  0  0  0  0999 V2000
    9.7646   46.8539  132.2481 C   0  0  0  0  0  0  0  0  0  0  0  0
    9.8961   48.6017  132.2964 S   0  0  0  0  0  0  0  0  0  0  0  0
    8.7842   48.9926  131.0858 C   0  0  0  0  0  0  0  0  0  0  0  0
    8.3538   50.2125  130.5633 C   0  0  0  0  0  0  0  0  0  0  0  0
    7.4140   50.2488  129.5554 C   0  0  0  0  0  0  0  0  0  0  0  0
    6.9562   51.4250  129.0057 O   0  0  0  0  0  0  0  0  0  0  0  0
    6.9584   49.0281  129.1296 C   0  0  0  0  0  0  0  0  0  0  0  0
    7.3702   47.8333  129.6309 C   0  0  0  0  0  0  0  0  0  0  0  0
    8.3331   47.7803  130.6643 C   0  0  0  0  0  0  0  0  0  0  0  0
    8.8518   46.6775  131.2750 C   0  0  0  0  0  0  0  0  0  0  0  0
    6.2713   51.3876  128.2744 H   0  0  0  0  0  0  0  0  0  0  0  0
   12.5855   45.2485  131.6302 C   0  0  0  0  0  0  0  0  0  0  0  0
   11.7686   45.3452  132.8849 C   0  0  0  0  0  0  0  0  0  0  0  0
   12.0974   44.7200  134.0566 N   0  0  0  0  0  0  0  0  0  0  0  0
   11.1740   44.9401  134.9156 O   0  0  0  0  0  0  0  0  0  0  0  0
   10.2232   45.6752  134.4303 C   0  0  0  0  0  0  0  0  0  0  0  0
    8.9815   46.1575  135.0817 C   0  0  0  0  0  0  0  0  0  0  0  0
   10.5797   45.9620  133.1000 C   0  0  0  0  0  0  0  0  0  0  0  0
    8.4442   45.3587  130.8831 O   0  0  0  0  0  0  0  0  0  0  0  0
    9.1366   44.7123  129.8681 C   0  0  0  0  0  0  0  0  0  0  0  0
    8.8403   43.4431  129.4441 C   0  0  0  0  0  0  0  0  0  0  0  0
    9.5949   42.8711  128.4115 C   0  0  0  0  0  0  0  0  0  0  0  0
   10.6215   43.5532  127.8177 C   0  0  0  0  0  0  0  0  0  0  0  0
   10.9184   44.8259  128.2431 C   0  0  0  0  0  0  0  0  0  0  0  0
   10.1700   45.3917  129.2664 C   0  0  0  0  0  0  0  0  0  0  0  0
   11.4056   42.9612  126.7459 C   0  0  0  0  0  0  0  0  0  0  0  0
   12.7131   43.0331  126.6441 C   0  0  0  0  0  0  0  0  0  0  0  0
   13.4211   42.4063  125.5295 C   0  0  0  0  0  0  0  0  0  0  0  0
   14.1895   43.1424  124.6367 O   0  0  0  0  0  0  0  0  0  0  0  0
   13.3540   41.1658  125.3442 O   0  0  0  0  0  0  0  0  0  0  0  0
   13.8121   43.4818  123.7618 H   0  0  0  0  0  0  0  0  0  0  0  0
 12 13  1  0  0  0
 13 14  2  0  0  0
 14 15  1  0  0  0
 15 16  1  0  0  0
 16 17  1  0  0  0
 16 18  2  0  0  0
 18  1  1  0  0  0
  1  2  1  0  0  0
  2  3  1  0  0  0
  3  4  2  0  0  0
  4  5  1  0  0  0
  5  6  1  0  0  0
  5  7  2  0  0  0
  7  8  1  0  0  0
  8  9  2  0  0  0
  9 10  1  0  0  0
 10 19  1  0  0  0
 19 20  1  0  0  0
 20 21  2  0  0  0
 21 22  1  0  0  0
 22 23  2  0  0  0
 23 26  1  0  0  0
 26 27  2  0  0  0
 27 28  1  0  0  0
 28 29  1  0  0  0
 28 30  2  0  0  0
 23 24  1  0  0  0
 24 25  2  0  0  0
 18 13  1  0  0  0
 10  1  2  0  0  0
 25 20  1  0  0  0
  9  3  1  0  0  0
  6 11  1  0  0  0
 29 31  1  0  0  0
M  END
> <minimizedAffinity>
3.25919

> <CNNscore>
0.5717052817

> <CNNaffinity>
8.1141204834

> <CNN_VS>
4.6388854980

> <CNNaffinity_variance>
0.8194767237

$$$$
[H]OC(=O)/C([H])=C(\[H])c1c([H])c([H])c(Oc2c(-c3c(C([H])([H])[H])noc3C([H])([H])[H])sc3c([H])c(O[H])c([H])c([H])c23)c([H])c1[H]


 31 34  0  0  0  0  0  0  0  0999 V2000
    9.0531   47.5379  131.7189 C   0  0  0  0  0  0  0  0  0  0  0  0
    8.8831   47.2433  133.4390 S   0  0  0  0  0  0  0  0  0  0  0  0
    9.9910   45.9793  133.6102 C   0  0  0  0  0  0  0  0  0  0  0  0
   10.3966   45.2280  134.7137 C   0  0  0  0  0  0  0  0  0  0  0  0
   11.3395   44.2322  134.5730 C   0  0  0  0  0  0  0  0  0  0  0  0
   11.7736   43.4628  135.6289 O   0  0  0  0  0  0  0  0  0  0  0  0
   11.8235   44.0533  133.3031 C   0  0  0  0  0  0  0  0  0  0  0  0
   11.4360   44.7788  132.2205 C   0  0  0  0  0  0  0  0  0  0  0  0
   10.4703   45.8029  132.3493 C   0  0  0  0  0  0  0  0  0  0  0  0
    9.9735   46.6178  131.3759 C   0  0  0  0  0  0  0  0  0  0  0  0
   12.4621   42.7527  135.4645 H   0  0  0  0  0  0  0  0  0  0  0  0
    6.5978   47.1988  129.5343 C   0  0  0  0  0  0  0  0  0  0  0  0
    7.2048   48.4290  130.1418 C   0  0  0  0  0  0  0  0  0  0  0  0
    6.8001   49.7022  129.8465 N   0  0  0  0  0  0  0  0  0  0  0  0
    7.5515   50.5298  130.4706 O   0  0  0  0  0  0  0  0  0  0  0  0
    8.4521   49.9280  131.1824 C   0  0  0  0  0  0  0  0  0  0  0  0
    9.5092   50.5064  132.0465 C   0  0  0  0  0  0  0  0  0  0  0  0
    8.2544   48.5481  130.9929 C   0  0  0  0  0  0  0  0  0  0  0  0
   10.4116   46.4914  130.0154 O   0  0  0  0  0  0  0  0  0  0  0  0
   10.2269   45.2832  129.3567 C   0  0  0  0  0  0  0  0  0  0  0  0
    9.0912   44.5255  129.4775 C   0  0  0  0  0  0  0  0  0  0  0  0
    8.9941   43.3180  128.7735 C   0  0  0  0  0  0  0  0  0  0  0  0
   10.0094   42.8797  127.9680 C   0  0  0  0  0  0  0  0  0  0  0  0
   11.1480   43.6398  127.8471 C   0  0  0  0  0  0  0  0  0  0  0  0
   11.2433   44.8361  128.5451 C   0  0  0  0  0  0  0  0  0  0  0  0
    9.9103   41.6270  127.2366 C   0  0  0  0  0  0  0  0  0  0  0  0
   10.9306   40.8725  126.8980 C   0  0  0  0  0  0  0  0  0  0  0  0
   10.7377   39.6251  126.1608 C   0  0  0  0  0  0  0  0  0  0  0  0
   11.8048   38.8234  125.7761 O   0  0  0  0  0  0  0  0  0  0  0  0
    9.5845   39.2366  125.8495 O   0  0  0  0  0  0  0  0  0  0  0  0
   12.2281   38.9018  124.8609 H   0  0  0  0  0  0  0  0  0  0  0  0
 12 13  1  0  0  0
 13 14  2  0  0  0
 14 15  1  0  0  0
 15 16  1  0  0  0
 16 17  1  0  0  0
 16 18  2  0  0  0
 18  1  1  0  0  0
  1  2  1  0  0  0
  2  3  1  0  0  0
  3  4  2  0  0  0
  4  5  1  0  0  0
  5  6  1  0  0  0
  5  7  2  0  0  0
  7  8  1  0  0  0
  8  9  2  0  0  0
  9 10  1  0  0  0
 10 19  1  0  0  0
 19 20  1  0  0  0
 20 21  2  0  0  0
 21 22  1  0  0  0
 22 23  2  0  0  0
 23 26  1  0  0  0
 26 27  2  0  0  0
 27 28  1  0  0  0
 28 29  1  0  0  0
 28 30  2  0  0  0
 23 24  1  0  0  0
 24 25  2  0  0  0
 18 13  1  0  0  0
 10  1  2  0  0  0
 25 20  1  0  0  0
  9  3  1  0  0  0
  6 11  1  0  0  0
 29 31  1  0  0  0
M  END
> <minimizedAffinity>
4.44978

> <CNNscore>
0.5189298391

> <CNNaffinity>
7.9229788780

> <CNN_VS>
4.1114702225

> <CNNaffinity_variance>
1.5065286160

$$$$
[H]OC(=O)/C([H])=C(\[H])c1c([H])c([H])c(Oc2c(-c3c(C([H])([H])[H])noc3C([H])([H])[H])sc3c([H])c(O[H])c([H])c([H])c23)c([H])c1[H]


 31 34  0  0  0  0  0  0  0  0999 V2000
    8.0333   46.0275  131.2536 C   0  0  0  0  0  0  0  0  0  0  0  0
    6.6554   46.5736  130.3169 S   0  0  0  0  0  0  0  0  0  0  0  0
    7.0861   48.1952  130.1180 C   0  0  0  0  0  0  0  0  0  0  0  0
    6.4623   49.2602  129.4674 C   0  0  0  0  0  0  0  0  0  0  0  0
    7.0439   50.5101  129.4569 C   0  0  0  0  0  0  0  0  0  0  0  0
    6.4703   51.5933  128.8301 O   0  0  0  0  0  0  0  0  0  0  0  0
    8.2417   50.6090  130.1161 C   0  0  0  0  0  0  0  0  0  0  0  0
    8.8588   49.5786  130.7533 C   0  0  0  0  0  0  0  0  0  0  0  0
    8.2746   48.2917  130.7727 C   0  0  0  0  0  0  0  0  0  0  0  0
    8.7545   47.1588  131.3597 C   0  0  0  0  0  0  0  0  0  0  0  0
    6.9412   52.4781  128.8566 H   0  0  0  0  0  0  0  0  0  0  0  0
    8.5445   43.1741  129.6684 C   0  0  0  0  0  0  0  0  0  0  0  0
    8.4343   43.4736  131.1344 C   0  0  0  0  0  0  0  0  0  0  0  0
    8.5288   42.5232  132.1141 N   0  0  0  0  0  0  0  0  0  0  0  0
    8.3272   43.0789  133.2497 O   0  0  0  0  0  0  0  0  0  0  0  0
    8.0996   44.3498  133.1358 C   0  0  0  0  0  0  0  0  0  0  0  0
    7.8208   45.3536  134.1910 C   0  0  0  0  0  0  0  0  0  0  0  0
    8.1638   44.6454  131.7619 C   0  0  0  0  0  0  0  0  0  0  0  0
    9.9933   47.1729  132.0838 O   0  0  0  0  0  0  0  0  0  0  0  0
   11.0403   46.3736  131.6449 C   0  0  0  0  0  0  0  0  0  0  0  0
   12.0477   45.9350  132.4643 C   0  0  0  0  0  0  0  0  0  0  0  0
   13.0640   45.1309  131.9319 C   0  0  0  0  0  0  0  0  0  0  0  0
   13.0717   44.7744  130.6111 C   0  0  0  0  0  0  0  0  0  0  0  0
   12.0614   45.2143  129.7897 C   0  0  0  0  0  0  0  0  0  0  0  0
   11.0548   46.0111  130.3183 C   0  0  0  0  0  0  0  0  0  0  0  0
   14.1255   43.9399  130.0569 C   0  0  0  0  0  0  0  0  0  0  0  0
   14.4107   43.8407  128.7787 C   0  0  0  0  0  0  0  0  0  0  0  0
   15.4905   42.9746  128.3092 C   0  0  0  0  0  0  0  0  0  0  0  0
   16.0068   41.9497  129.0918 O   0  0  0  0  0  0  0  0  0  0  0  0
   15.9898   43.1345  127.1678 O   0  0  0  0  0  0  0  0  0  0  0  0
   16.8241   42.0820  129.6726 H   0  0  0  0  0  0  0  0  0  0  0  0
 12 13  1  0  0  0
 13 14  2  0  0  0
 14 15  1  0  0  0
 15 16  1  0  0  0
 16 17  1  0  0  0
 16 18  2  0  0  0
 18  1  1  0  0  0
  1  2  1  0  0  0
  2  3  1  0  0  0
  3  4  2  0  0  0
  4  5  1  0  0  0
  5  6  1  0  0  0
  5  7  2  0  0  0
  7  8  1  0  0  0
  8  9  2  0  0  0
  9 10  1  0  0  0
 10 19  1  0  0  0
 19 20  1  0  0  0
 20 21  2  0  0  0
 21 22  1  0  0  0
 22 23  2  0  0  0
 23 26  1  0  0  0
 26 27  2  0  0  0
 27 28  1  0  0  0
 28 29  1  0  0  0
 28 30  2  0  0  0
 23 24  1  0  0  0
 24 25  2  0  0  0
 18 13  1  0  0  0
 10  1  2  0  0  0
 25 20  1  0  0  0
  9  3  1  0  0  0
  6 11  1  0  0  0
 29 31  1  0  0  0
M  END
> <minimizedAffinity>
2.94507

> <CNNscore>
0.4877471924

> <CNNaffinity>
7.7630338669

> <CNN_VS>
3.7863979340

> <CNNaffinity_variance>
1.0364370346

$$$$
[H]OC(=O)/C([H])=C(\[H])c1c([H])c([H])c(Oc2c(-c3c(C([H])([H])[H])noc3C([H])([H])[H])sc3c([H])c(O[H])c([H])c([H])c23)c([H])c1[H]


 31 34  0  0  0  0  0  0  0  0999 V2000
    8.7330   47.5120  131.6542 C   0  0  0  0  0  0  0  0  0  0  0  0
    9.5722   47.6864  133.1838 S   0  0  0  0  0  0  0  0  0  0  0  0
   10.0053   46.0741  133.4429 C   0  0  0  0  0  0  0  0  0  0  0  0
   10.7046   45.4425  134.4718 C   0  0  0  0  0  0  0  0  0  0  0  0
   10.9246   44.0821  134.4352 C   0  0  0  0  0  0  0  0  0  0  0  0
   11.6080   43.4110  135.4240 O   0  0  0  0  0  0  0  0  0  0  0  0
   10.4154   43.4315  133.3413 C   0  0  0  0  0  0  0  0  0  0  0  0
    9.7326   44.0360  132.3329 C   0  0  0  0  0  0  0  0  0  0  0  0
    9.4993   45.4299  132.3568 C   0  0  0  0  0  0  0  0  0  0  0  0
    8.8391   46.1881  131.4362 C   0  0  0  0  0  0  0  0  0  0  0  0
   11.7366   42.4201  135.3419 H   0  0  0  0  0  0  0  0  0  0  0  0
    9.3130   50.7617  131.7928 C   0  0  0  0  0  0  0  0  0  0  0  0
    8.3476   49.9742  130.9567 C   0  0  0  0  0  0  0  0  0  0  0  0
    7.4846   50.5380  130.0572 N   0  0  0  0  0  0  0  0  0  0  0  0
    6.7508   49.6168  129.5553 O   0  0  0  0  0  0  0  0  0  0  0  0
    7.0387   48.4487  130.0376 C   0  0  0  0  0  0  0  0  0  0  0  0
    6.4353   47.1295  129.7302 C   0  0  0  0  0  0  0  0  0  0  0  0
    8.0835   48.6437  130.9592 C   0  0  0  0  0  0  0  0  0  0  0  0
    8.2604   45.5892  130.2677 O   0  0  0  0  0  0  0  0  0  0  0  0
    9.0640   44.8234  129.4339 C   0  0  0  0  0  0  0  0  0  0  0  0
    8.7378   43.5547  129.0307 C   0  0  0  0  0  0  0  0  0  0  0  0
    9.6121   42.8569  128.1871 C   0  0  0  0  0  0  0  0  0  0  0  0
   10.7847   43.4156  127.7576 C   0  0  0  0  0  0  0  0  0  0  0  0
   11.1115   44.6878  128.1620 C   0  0  0  0  0  0  0  0  0  0  0  0
   10.2445   45.3784  128.9979 C   0  0  0  0  0  0  0  0  0  0  0  0
   11.6931   42.6929  126.8820 C   0  0  0  0  0  0  0  0  0  0  0  0
   12.6693   43.2412  126.1954 C   0  0  0  0  0  0  0  0  0  0  0  0
   13.5365   42.4359  125.3375 C   0  0  0  0  0  0  0  0  0  0  0  0
   14.5150   43.0071  124.5341 O   0  0  0  0  0  0  0  0  0  0  0  0
   13.4200   41.1857  125.3017 O   0  0  0  0  0  0  0  0  0  0  0  0
   14.3416   43.2379  123.5647 H   0  0  0  0  0  0  0  0  0  0  0  0
 12 13  1  0  0  0
 13 14  2  0  0  0
 14 15  1  0  0  0
 15 16  1  0  0  0
 16 17  1  0  0  0
 16 18  2  0  0  0
 18  1  1  0  0  0
  1  2  1  0  0  0
  2  3  1  0  0  0
  3  4  2  0  0  0
  4  5  1  0  0  0
  5  6  1  0  0  0
  5  7  2  0  0  0
  7  8  1  0  0  0
  8  9  2  0  0  0
  9 10  1  0  0  0
 10 19  1  0  0  0
 19 20  1  0  0  0
 20 21  2  0  0  0
 21 22  1  0  0  0
 22 23  2  0  0  0
 23 26  1  0  0  0
 26 27  2  0  0  0
 27 28  1  0  0  0
 28 29  1  0  0  0
 28 30  2  0  0  0
 23 24  1  0  0  0
 24 25  2  0  0  0
 18 13  1  0  0  0
 10  1  2  0  0  0
 25 20  1  0  0  0
  9  3  1  0  0  0
  6 11  1  0  0  0
 29 31  1  0  0  0
M  END
> <minimizedAffinity>
6.27682

> <CNNscore>
0.4448567629

> <CNNaffinity>
7.8164110184

> <CNN_VS>
3.4771833420

> <CNNaffinity_variance>
1.1959352493

$$$$
[H]OC(=O)/C([H])=C(\[H])c1c([H])c([H])c(Oc2c(-c3c(C([H])([H])[H])noc3C([H])([H])[H])sc3c([H])c(O[H])c([H])c([H])c23)c([H])c1[H]


 31 34  0  0  0  0  0  0  0  0999 V2000
    9.7754   46.3395  132.3160 C   0  0  0  0  0  0  0  0  0  0  0  0
    8.5204   47.3431  133.0175 S   0  0  0  0  0  0  0  0  0  0  0  0
    8.2666   48.4041  131.7275 C   0  0  0  0  0  0  0  0  0  0  0  0
    7.4016   49.4853  131.5561 C   0  0  0  0  0  0  0  0  0  0  0  0
    7.3978   50.1973  130.3756 C   0  0  0  0  0  0  0  0  0  0  0  0
    6.5649   51.2712  130.1560 O   0  0  0  0  0  0  0  0  0  0  0  0
    8.2843   49.7653  129.4234 C   0  0  0  0  0  0  0  0  0  0  0  0
    9.1317   48.7135  129.5790 C   0  0  0  0  0  0  0  0  0  0  0  0
    9.1469   47.9743  130.7836 C   0  0  0  0  0  0  0  0  0  0  0  0
    9.9260   46.9021  131.1027 C   0  0  0  0  0  0  0  0  0  0  0  0
    6.6079   51.7500  129.2761 H   0  0  0  0  0  0  0  0  0  0  0  0
   12.6928   46.1862  133.8595 C   0  0  0  0  0  0  0  0  0  0  0  0
   11.5930   45.1726  133.7417 C   0  0  0  0  0  0  0  0  0  0  0  0
   11.6469   43.9237  134.2979 N   0  0  0  0  0  0  0  0  0  0  0  0
   10.5927   43.2776  133.9658 O   0  0  0  0  0  0  0  0  0  0  0  0
    9.8043   43.9843  133.2182 C   0  0  0  0  0  0  0  0  0  0  0  0
    8.4963   43.6197  132.6223 C   0  0  0  0  0  0  0  0  0  0  0  0
   10.4270   45.2347  133.0513 C   0  0  0  0  0  0  0  0  0  0  0  0
   10.8921   46.3913  130.1730 O   0  0  0  0  0  0  0  0  0  0  0  0
   10.5975   45.2370  129.4599 C   0  0  0  0  0  0  0  0  0  0  0  0
    9.3598   44.6483  129.4579 C   0  0  0  0  0  0  0  0  0  0  0  0
    9.1556   43.4831  128.7072 C   0  0  0  0  0  0  0  0  0  0  0  0
   10.1661   42.9209  127.9760 C   0  0  0  0  0  0  0  0  0  0  0  0
   11.4070   43.5115  127.9781 C   0  0  0  0  0  0  0  0  0  0  0  0
   11.6083   44.6660  128.7224 C   0  0  0  0  0  0  0  0  0  0  0  0
    9.9559   41.7118  127.1962 C   0  0  0  0  0  0  0  0  0  0  0  0
   10.8832   40.8217  126.9264 C   0  0  0  0  0  0  0  0  0  0  0  0
   10.5821   39.6319  126.1325 C   0  0  0  0  0  0  0  0  0  0  0  0
   11.5738   38.7534  125.7154 O   0  0  0  0  0  0  0  0  0  0  0  0
    9.4004   39.3658  125.7999 O   0  0  0  0  0  0  0  0  0  0  0  0
   12.0095   38.8335  124.8061 H   0  0  0  0  0  0  0  0  0  0  0  0
 12 13  1  0  0  0
 13 14  2  0  0  0
 14 15  1  0  0  0
 15 16  1  0  0  0
 16 17  1  0  0  0
 16 18  2  0  0  0
 18  1  1  0  0  0
  1  2  1  0  0  0
  2  3  1  0  0  0
  3  4  2  0  0  0
  4  5  1  0  0  0
  5  6  1  0  0  0
  5  7  2  0  0  0
  7  8  1  0  0  0
  8  9  2  0  0  0
  9 10  1  0  0  0
 10 19  1  0  0  0
 19 20  1  0  0  0
 20 21  2  0  0  0
 21 22  1  0  0  0
 22 23  2  0  0  0
 23 26  1  0  0  0
 26 27  2  0  0  0
 27 28  1  0  0  0
 28 29  1  0  0  0
 28 30  2  0  0  0
 23 24  1  0  0  0
 24 25  2  0  0  0
 18 13  1  0  0  0
 10  1  2  0  0  0
 25 20  1  0  0  0
  9  3  1  0  0  0
  6 11  1  0  0  0
 29 31  1  0  0  0
M  END
> <minimizedAffinity>
7.00305

> <CNNscore>
0.4337111115

> <CNNaffinity>
7.4835333824

> <CNN_VS>
3.2456915379

> <CNNaffinity_variance>
0.8473047018

$$$$
[H]OC(=O)/C([H])=C(\[H])c1c([H])c([H])c(Oc2c(-c3c(C([H])([H])[H])noc3C([H])([H])[H])sc3c([H])c(O[H])c([H])c([H])c23)c([H])c1[H]


 31 34  0  0  0  0  0  0  0  0999 V2000
    8.3950   47.5116  131.7948 C   0  0  0  0  0  0  0  0  0  0  0  0
    7.8966   49.1926  131.7888 S   0  0  0  0  0  0  0  0  0  0  0  0
    6.7240   49.1253  130.5743 C   0  0  0  0  0  0  0  0  0  0  0  0
    5.8907   50.0960  130.0177 C   0  0  0  0  0  0  0  0  0  0  0  0
    5.0040   49.7648  129.0153 C   0  0  0  0  0  0  0  0  0  0  0  0
    4.1607   50.6840  128.4330 O   0  0  0  0  0  0  0  0  0  0  0  0
    5.0139   48.4493  128.6300 C   0  0  0  0  0  0  0  0  0  0  0  0
    5.8211   47.4949  129.1648 C   0  0  0  0  0  0  0  0  0  0  0  0
    6.7351   47.8195  130.1929 C   0  0  0  0  0  0  0  0  0  0  0  0
    7.6090   46.9924  130.8336 C   0  0  0  0  0  0  0  0  0  0  0  0
    3.5372   50.3832  127.7078 H   0  0  0  0  0  0  0  0  0  0  0  0
   11.6829   47.6979  131.5280 C   0  0  0  0  0  0  0  0  0  0  0  0
   10.8197   47.1138  132.6073 C   0  0  0  0  0  0  0  0  0  0  0  0
   11.3123   46.5122  133.7330 N   0  0  0  0  0  0  0  0  0  0  0  0
   10.3327   46.0597  134.4220 O   0  0  0  0  0  0  0  0  0  0  0  0
    9.1900   46.3021  133.8604 C   0  0  0  0  0  0  0  0  0  0  0  0
    7.8237   45.9536  134.3194 C   0  0  0  0  0  0  0  0  0  0  0  0
    9.4699   46.9943  132.6681 C   0  0  0  0  0  0  0  0  0  0  0  0
    7.6984   45.6034  130.4848 O   0  0  0  0  0  0  0  0  0  0  0  0
    8.9460   45.0517  130.2263 C   0  0  0  0  0  0  0  0  0  0  0  0
    9.4494   43.9749  130.9087 C   0  0  0  0  0  0  0  0  0  0  0  0
   10.7202   43.4863  130.5780 C   0  0  0  0  0  0  0  0  0  0  0  0
   11.4690   44.0617  129.5882 C   0  0  0  0  0  0  0  0  0  0  0  0
   10.9639   45.1415  128.9041 C   0  0  0  0  0  0  0  0  0  0  0  0
    9.7047   45.6249  129.2326 C   0  0  0  0  0  0  0  0  0  0  0  0
   12.7879   43.5559  129.2436 C   0  0  0  0  0  0  0  0  0  0  0  0
   13.7833   44.2918  128.8047 C   0  0  0  0  0  0  0  0  0  0  0  0
   15.0790   43.6974  128.4817 C   0  0  0  0  0  0  0  0  0  0  0  0
   15.3351   43.1127  127.2481 O   0  0  0  0  0  0  0  0  0  0  0  0
   16.0118   43.6983  129.3229 O   0  0  0  0  0  0  0  0  0  0  0  0
   15.2234   42.1192  127.0952 H   0  0  0  0  0  0  0  0  0  0  0  0
 12 13  1  0  0  0
 13 14  2  0  0  0
 14 15  1  0  0  0
 15 16  1  0  0  0
 16 17  1  0  0  0
 16 18  2  0  0  0
 18  1  1  0  0  0
  1  2  1  0  0  0
  2  3  1  0  0  0
  3  4  2  0  0  0
  4  5  1  0  0  0
  5  6  1  0  0  0
  5  7  2  0  0  0
  7  8  1  0  0  0
  8  9  2  0  0  0
  9 10  1  0  0  0
 10 19  1  0  0  0
 19 20  1  0  0  0
 20 21  2  0  0  0
 21 22  1  0  0  0
 22 23  2  0  0  0
 23 26  1  0  0  0
 26 27  2  0  0  0
 27 28  1  0  0  0
 28 29  1  0  0  0
 28 30  2  0  0  0
 23 24  1  0  0  0
 24 25  2  0  0  0
 18 13  1  0  0  0
 10  1  2  0  0  0
 25 20  1  0  0  0
  9  3  1  0  0  0
  6 11  1  0  0  0
 29 31  1  0  0  0
M  END
> <minimizedAffinity>
7.18064

> <CNNscore>
0.4301647246

> <CNNaffinity>
7.3868193626

> <CNN_VS>
3.1775491238

> <CNNaffinity_variance>
0.7102066278

$$$$
[H]OC(=O)/C([H])=C(\[H])c1c([H])c([H])c(Oc2c(-c3c(C([H])([H])[H])noc3C([H])([H])[H])sc3c([H])c(O[H])c([H])c([H])c23)c([H])c1[H]


 31 34  0  0  0  0  0  0  0  0999 V2000
    9.7308   46.1644  132.4035 C   0  0  0  0  0  0  0  0  0  0  0  0
    8.4219   47.1676  132.9989 S   0  0  0  0  0  0  0  0  0  0  0  0
    8.2874   48.2399  131.7002 C   0  0  0  0  0  0  0  0  0  0  0  0
    7.4449   49.3260  131.4616 C   0  0  0  0  0  0  0  0  0  0  0  0
    7.5486   50.0474  130.2914 C   0  0  0  0  0  0  0  0  0  0  0  0
    6.7422   51.1264  130.0074 O   0  0  0  0  0  0  0  0  0  0  0  0
    8.5147   49.6193  129.4182 C   0  0  0  0  0  0  0  0  0  0  0  0
    9.3413   48.5627  129.6398 C   0  0  0  0  0  0  0  0  0  0  0  0
    9.2467   47.8139  130.8348 C   0  0  0  0  0  0  0  0  0  0  0  0
    9.9906   46.7360  131.2131 C   0  0  0  0  0  0  0  0  0  0  0  0
    6.8650   51.6121  129.1389 H   0  0  0  0  0  0  0  0  0  0  0  0
    8.5650   43.1453  133.0686 C   0  0  0  0  0  0  0  0  0  0  0  0
    9.8757   43.7872  133.4163 C   0  0  0  0  0  0  0  0  0  0  0  0
   10.8623   43.1637  134.1303 N   0  0  0  0  0  0  0  0  0  0  0  0
   11.8214   43.9905  134.3189 O   0  0  0  0  0  0  0  0  0  0  0  0
   11.5779   45.1474  133.7875 C   0  0  0  0  0  0  0  0  0  0  0  0
   12.4149   46.3714  133.7748 C   0  0  0  0  0  0  0  0  0  0  0  0
   10.3105   45.0511  133.1846 C   0  0  0  0  0  0  0  0  0  0  0  0
   11.0339   46.2285  130.3687 O   0  0  0  0  0  0  0  0  0  0  0  0
   10.7919   45.0945  129.6049 C   0  0  0  0  0  0  0  0  0  0  0  0
   10.7871   45.0965  128.2344 C   0  0  0  0  0  0  0  0  0  0  0  0
   10.5327   43.9022  127.5475 C   0  0  0  0  0  0  0  0  0  0  0  0
   10.2890   42.7340  128.2166 C   0  0  0  0  0  0  0  0  0  0  0  0
   10.2939   42.7323  129.5910 C   0  0  0  0  0  0  0  0  0  0  0  0
   10.5461   43.9163  130.2706 C   0  0  0  0  0  0  0  0  0  0  0  0
   10.0249   41.4936  127.5055 C   0  0  0  0  0  0  0  0  0  0  0  0
   10.8933   40.8624  126.7488 C   0  0  0  0  0  0  0  0  0  0  0  0
   10.5407   39.6172  126.0693 C   0  0  0  0  0  0  0  0  0  0  0  0
   11.4467   38.5744  125.9240 O   0  0  0  0  0  0  0  0  0  0  0  0
    9.3914   39.4518  125.5903 O   0  0  0  0  0  0  0  0  0  0  0  0
   12.0119   38.4708  125.0917 H   0  0  0  0  0  0  0  0  0  0  0  0
 12 13  1  0  0  0
 13 14  2  0  0  0
 14 15  1  0  0  0
 15 16  1  0  0  0
 16 17  1  0  0  0
 16 18  2  0  0  0
 18  1  1  0  0  0
  1  2  1  0  0  0
  2  3  1  0  0  0
  3  4  2  0  0  0
  4  5  1  0  0  0
  5  6  1  0  0  0
  5  7  2  0  0  0
  7  8  1  0  0  0
  8  9  2  0  0  0
  9 10  1  0  0  0
 10 19  1  0  0  0
 19 20  1  0  0  0
 20 21  2  0  0  0
 21 22  1  0  0  0
 22 23  2  0  0  0
 23 26  1  0  0  0
 26 27  2  0  0  0
 27 28  1  0  0  0
 28 29  1  0  0  0
 28 30  2  0  0  0
 23 24  1  0  0  0
 24 25  2  0  0  0
 18 13  1  0  0  0
 10  1  2  0  0  0
 25 20  1  0  0  0
  9  3  1  0  0  0
  6 11  1  0  0  0
 29 31  1  0  0  0
M  END
> <minimizedAffinity>
7.06217

> <CNNscore>
0.4252463877

> <CNNaffinity>
7.5066018105

> <CNN_VS>
3.1921553612

> <CNNaffinity_variance>
0.8249206543

$$$$
[H]c1c([H])c([C@]2([H])c3c(c4c([H])c([H])c([H])c([H])c4n3[H])C([H])([H])[C@@]([H])(C([H])([H])[H])N2C([H])([H])C2(F)C([H])([H])C2([H])[H])c([H])c([H])c1OC([H])([H])C([H])([H])N([H])C([H])([H])C([H])([H])C([H])([H])F


 35 39  0  0  0  0  0  0  0  0999 V2000
   12.5166   45.8072  133.8775 C   0  0  0  0  0  0  0  0  0  0  0  0
   11.2325   45.3705  133.2139 C   0  0  0  0  0  0  0  0  0  0  0  0
   11.1062   43.8778  133.4882 C   0  0  0  0  0  0  0  0  0  0  0  0
    9.7834   43.4987  132.9422 C   0  0  0  0  0  0  0  0  0  0  0  0
    9.3215   44.1227  131.8089 C   0  0  0  0  0  0  0  0  0  0  0  0
    8.1343   43.6379  131.5062 N   0  0  0  0  0  0  0  0  0  0  0  0
    7.8072   42.7089  132.4162 C   0  0  0  0  0  0  0  0  0  0  0  0
    6.6676   41.9029  132.5500 C   0  0  0  0  0  0  0  0  0  0  0  0
    6.5537   41.0030  133.5858 C   0  0  0  0  0  0  0  0  0  0  0  0
    7.5915   40.8968  134.5126 C   0  0  0  0  0  0  0  0  0  0  0  0
    8.7024   41.6946  134.3673 C   0  0  0  0  0  0  0  0  0  0  0  0
    8.8282   42.5988  133.3351 C   0  0  0  0  0  0  0  0  0  0  0  0
   10.1255   45.1710  131.1016 C   0  0  0  0  0  0  0  0  0  0  0  0
   11.2066   45.6978  131.8321 N   0  0  0  0  0  0  0  0  0  0  0  0
    7.4883   43.8950  130.6914 H   0  0  0  0  0  0  0  0  0  0  0  0
    9.2453   46.2693  130.6215 C   0  0  0  0  0  0  0  0  0  0  0  0
    9.6907   47.5192  130.2729 C   0  0  0  0  0  0  0  0  0  0  0  0
    8.8383   48.5108  129.8506 C   0  0  0  0  0  0  0  0  0  0  0  0
    7.4772   48.2980  129.7547 C   0  0  0  0  0  0  0  0  0  0  0  0
    7.0267   47.0410  130.1049 C   0  0  0  0  0  0  0  0  0  0  0  0
    7.8679   46.0356  130.5301 C   0  0  0  0  0  0  0  0  0  0  0  0
    6.5785   49.2671  129.3342 O   0  0  0  0  0  0  0  0  0  0  0  0
    5.3426   48.9194  128.7775 C   0  0  0  0  0  0  0  0  0  0  0  0
    4.2235   49.8267  129.3037 C   0  0  0  0  0  0  0  0  0  0  0  0
    3.9372   50.7538  128.2436 N   0  0  0  0  0  0  0  0  0  0  0  0
    4.6572   50.6300  127.4875 H   0  0  0  0  0  0  0  0  0  0  0  0
    2.6296   50.6575  127.6808 C   0  0  0  0  0  0  0  0  0  0  0  0
    2.0284   51.9621  127.2733 C   0  0  0  0  0  0  0  0  0  0  0  0
    2.1695   52.0474  125.7476 C   0  0  0  0  0  0  0  0  0  0  0  0
    2.0087   53.3767  125.3920 F   0  0  0  0  0  0  0  0  0  0  0  0
   12.5002   45.6567  131.2495 C   0  0  0  0  0  0  0  0  0  0  0  0
   12.8397   44.4419  130.4698 C   0  0  0  0  0  0  0  0  0  0  0  0
   12.3928   43.1986  130.8836 F   0  0  0  0  0  0  0  0  0  0  0  0
   12.5980   44.6225  128.9579 C   0  0  0  0  0  0  0  0  0  0  0  0
   13.9894   44.4188  129.5028 C   0  0  0  0  0  0  0  0  0  0  0  0
  1  2  1  0  0  0
  2  3  1  0  0  0
  3  4  1  0  0  0
  4  5  2  0  0  0
  5  6  1  0  0  0
  6  7  1  0  0  0
  7  8  2  0  0  0
  8  9  1  0  0  0
  9 10  2  0  0  0
 10 11  1  0  0  0
 11 12  2  0  0  0
  5 13  1  0  0  0
 13 14  1  0  0  0
 14 31  1  0  0  0
 31 32  1  0  0  0
 32 33  1  0  0  0
 32 34  1  0  0  0
 34 35  1  0  0  0
 13 16  1  0  0  0
 16 17  2  0  0  0
 17 18  1  0  0  0
 18 19  2  0  0  0
 19 22  1  0  0  0
 22 23  1  0  0  0
 23 24  1  0  0  0
 24 25  1  0  0  0
 25 27  1  0  0  0
 27 28  1  0  0  0
 28 29  1  0  0  0
 29 30  1  0  0  0
 19 20  1  0  0  0
 20 21  2  0  0  0
 14  2  1  0  0  0
 35 32  1  0  0  0
 21 16  1  0  0  0
 12  4  1  0  0  0
 12  7  1  0  0  0
  6 15  1  0  0  0
 25 26  1  0  0  0
M  END
> <minimizedAffinity>
8.38855

> <CNNscore>
0.4382305741

> <CNNaffinity>
7.6037230492

> <CNN_VS>
3.3321838379

> <CNNaffinity_variance>
1.6198962927

$$$$
[H]c1c([H])c([C@]2([H])c3c(c4c([H])c([H])c([H])c([H])c4n3[H])C([H])([H])[C@@]([H])(C([H])([H])[H])N2C([H])([H])C2(F)C([H])([H])C2([H])[H])c([H])c([H])c1OC([H])([H])C([H])([H])N([H])C([H])([H])C([H])([H])C([H])([H])F


 35 39  0  0  0  0  0  0  0  0999 V2000
   13.3634   45.1874  134.1163 C   0  0  0  0  0  0  0  0  0  0  0  0
   12.0029   45.0476  133.4764 C   0  0  0  0  0  0  0  0  0  0  0  0
   11.6620   43.5646  133.5374 C   0  0  0  0  0  0  0  0  0  0  0  0
   10.2767   43.4686  133.0244 C   0  0  0  0  0  0  0  0  0  0  0  0
    9.8711   44.3190  132.0247 C   0  0  0  0  0  0  0  0  0  0  0  0
    8.6131   44.0628  131.7281 N   0  0  0  0  0  0  0  0  0  0  0  0
    8.1844   43.0625  132.5114 C   0  0  0  0  0  0  0  0  0  0  0  0
    6.9416   42.4185  132.5960 C   0  0  0  0  0  0  0  0  0  0  0  0
    6.7328   41.3965  133.4947 C   0  0  0  0  0  0  0  0  0  0  0  0
    7.7778   41.0009  134.3306 C   0  0  0  0  0  0  0  0  0  0  0  0
    8.9905   41.6427  134.2351 C   0  0  0  0  0  0  0  0  0  0  0  0
    9.2119   42.6666  133.3398 C   0  0  0  0  0  0  0  0  0  0  0  0
   10.7969   45.3361  131.4296 C   0  0  0  0  0  0  0  0  0  0  0  0
   11.9732   45.5830  132.1613 N   0  0  0  0  0  0  0  0  0  0  0  0
    7.9824   44.5322  131.0006 H   0  0  0  0  0  0  0  0  0  0  0  0
   10.0758   46.6104  131.1696 C   0  0  0  0  0  0  0  0  0  0  0  0
    9.8639   47.1367  129.9205 C   0  0  0  0  0  0  0  0  0  0  0  0
    9.2068   48.3280  129.7277 C   0  0  0  0  0  0  0  0  0  0  0  0
    8.7217   49.0632  130.7913 C   0  0  0  0  0  0  0  0  0  0  0  0
    8.9335   48.5356  132.0492 C   0  0  0  0  0  0  0  0  0  0  0  0
    9.5902   47.3424  132.2599 C   0  0  0  0  0  0  0  0  0  0  0  0
    8.0529   50.2697  130.6464 O   0  0  0  0  0  0  0  0  0  0  0  0
    7.1143   50.4622  129.6265 C   0  0  0  0  0  0  0  0  0  0  0  0
    5.7135   50.0259  130.0738 C   0  0  0  0  0  0  0  0  0  0  0  0
    5.1168   49.3880  128.9326 N   0  0  0  0  0  0  0  0  0  0  0  0
    5.2637   50.0017  128.0916 H   0  0  0  0  0  0  0  0  0  0  0  0
    5.5854   48.0699  128.6520 C   0  0  0  0  0  0  0  0  0  0  0  0
    5.2831   47.0619  129.7114 C   0  0  0  0  0  0  0  0  0  0  0  0
    6.5971   46.3211  129.9933 C   0  0  0  0  0  0  0  0  0  0  0  0
    6.6316   46.0440  131.3503 F   0  0  0  0  0  0  0  0  0  0  0  0
   13.2218   45.4454  131.5005 C   0  0  0  0  0  0  0  0  0  0  0  0
   13.3292   44.3532  130.5033 C   0  0  0  0  0  0  0  0  0  0  0  0
   12.8835   43.0792  130.8117 F   0  0  0  0  0  0  0  0  0  0  0  0
   12.8258   44.7740  129.1082 C   0  0  0  0  0  0  0  0  0  0  0  0
   14.2768   44.4348  129.3403 C   0  0  0  0  0  0  0  0  0  0  0  0
  1  2  1  0  0  0
  2  3  1  0  0  0
  3  4  1  0  0  0
  4  5  2  0  0  0
  5  6  1  0  0  0
  6  7  1  0  0  0
  7  8  2  0  0  0
  8  9  1  0  0  0
  9 10  2  0  0  0
 10 11  1  0  0  0
 11 12  2  0  0  0
  5 13  1  0  0  0
 13 14  1  0  0  0
 14 31  1  0  0  0
 31 32  1  0  0  0
 32 33  1  0  0  0
 32 34  1  0  0  0
 34 35  1  0  0  0
 13 16  1  0  0  0
 16 17  2  0  0  0
 17 18  1  0  0  0
 18 19  2  0  0  0
 19 22  1  0  0  0
 22 23  1  0  0  0
 23 24  1  0  0  0
 24 25  1  0  0  0
 25 27  1  0  0  0
 27 28  1  0  0  0
 28 29  1  0  0  0
 29 30  1  0  0  0
 19 20  1  0  0  0
 20 21  2  0  0  0
 14  2  1  0  0  0
 35 32  1  0  0  0
 21 16  1  0  0  0
 12  4  1  0  0  0
 12  7  1  0  0  0
  6 15  1  0  0  0
 25 26  1  0  0  0
M  END
> <minimizedAffinity>
2.99024

> <CNNscore>
0.4172794521

> <CNNaffinity>
7.7460594177

> <CNN_VS>
3.2322714329

> <CNNaffinity_variance>
0.3195372224

$$$$
[H]c1c([H])c([C@]2([H])c3c(c4c([H])c([H])c([H])c([H])c4n3[H])C([H])([H])[C@@]([H])(C([H])([H])[H])N2C([H])([H])C2(F)C([H])([H])C2([H])[H])c([H])c([H])c1OC([H])([H])C([H])([H])N([H])C([H])([H])C([H])([H])C([H])([H])F


 35 39  0  0  0  0  0  0  0  0999 V2000
   12.5321   45.7654  133.9993 C   0  0  0  0  0  0  0  0  0  0  0  0
   11.2636   45.3536  133.2913 C   0  0  0  0  0  0  0  0  0  0  0  0
   11.1116   43.8589  133.5405 C   0  0  0  0  0  0  0  0  0  0  0  0
    9.8016   43.5034  132.9496 C   0  0  0  0  0  0  0  0  0  0  0  0
    9.3816   44.1486  131.8119 C   0  0  0  0  0  0  0  0  0  0  0  0
    8.1984   43.6824  131.4667 N   0  0  0  0  0  0  0  0  0  0  0  0
    7.8331   42.7451  132.3533 C   0  0  0  0  0  0  0  0  0  0  0  0
    6.6805   41.9512  132.4412 C   0  0  0  0  0  0  0  0  0  0  0  0
    6.5248   41.0386  133.4603 C   0  0  0  0  0  0  0  0  0  0  0  0
    7.5327   40.9070  134.4163 C   0  0  0  0  0  0  0  0  0  0  0  0
    8.6568   41.6932  134.3159 C   0  0  0  0  0  0  0  0  0  0  0  0
    8.8244   42.6099  133.3008 C   0  0  0  0  0  0  0  0  0  0  0  0
   10.2189   45.1966  131.1440 C   0  0  0  0  0  0  0  0  0  0  0  0
   11.2835   45.7002  131.9141 N   0  0  0  0  0  0  0  0  0  0  0  0
    7.5805   43.9585  130.6365 H   0  0  0  0  0  0  0  0  0  0  0  0
    9.3666   46.3121  130.6532 C   0  0  0  0  0  0  0  0  0  0  0  0
    9.3469   46.7550  129.3548 C   0  0  0  0  0  0  0  0  0  0  0  0
    8.5555   47.8024  128.9486 C   0  0  0  0  0  0  0  0  0  0  0  0
    7.7320   48.4687  129.8346 C   0  0  0  0  0  0  0  0  0  0  0  0
    7.7500   48.0246  131.1415 C   0  0  0  0  0  0  0  0  0  0  0  0
    8.5374   46.9759  131.5652 C   0  0  0  0  0  0  0  0  0  0  0  0
    6.9163   49.5301  129.4715 O   0  0  0  0  0  0  0  0  0  0  0  0
    7.3460   50.8552  129.6045 C   0  0  0  0  0  0  0  0  0  0  0  0
    6.4534   51.8098  128.8017 C   0  0  0  0  0  0  0  0  0  0  0  0
    7.3200   52.8533  128.3269 N   0  0  0  0  0  0  0  0  0  0  0  0
    8.3122   52.5080  128.3667 H   0  0  0  0  0  0  0  0  0  0  0  0
    7.0338   53.3395  127.0163 C   0  0  0  0  0  0  0  0  0  0  0  0
    7.6485   54.6615  126.6937 C   0  0  0  0  0  0  0  0  0  0  0  0
    7.9285   54.6534  125.1849 C   0  0  0  0  0  0  0  0  0  0  0  0
    9.2848   54.4248  125.0182 F   0  0  0  0  0  0  0  0  0  0  0  0
   12.5936   45.6514  131.3703 C   0  0  0  0  0  0  0  0  0  0  0  0
   12.9491   44.4342  130.6015 C   0  0  0  0  0  0  0  0  0  0  0  0
   12.6339   43.1795  131.0947 F   0  0  0  0  0  0  0  0  0  0  0  0
   12.5590   44.5388  129.1138 C   0  0  0  0  0  0  0  0  0  0  0  0
   14.0051   44.4543  129.5330 C   0  0  0  0  0  0  0  0  0  0  0  0
  1  2  1  0  0  0
  2  3  1  0  0  0
  3  4  1  0  0  0
  4  5  2  0  0  0
  5  6  1  0  0  0
  6  7  1  0  0  0
  7  8  2  0  0  0
  8  9  1  0  0  0
  9 10  2  0  0  0
 10 11  1  0  0  0
 11 12  2  0  0  0
  5 13  1  0  0  0
 13 14  1  0  0  0
 14 31  1  0  0  0
 31 32  1  0  0  0
 32 33  1  0  0  0
 32 34  1  0  0  0
 34 35  1  0  0  0
 13 16  1  0  0  0
 16 17  2  0  0  0
 17 18  1  0  0  0
 18 19  2  0  0  0
 19 22  1  0  0  0
 22 23  1  0  0  0
 23 24  1  0  0  0
 24 25  1  0  0  0
 25 27  1  0  0  0
 27 28  1  0  0  0
 28 29  1  0  0  0
 29 30  1  0  0  0
 19 20  1  0  0  0
 20 21  2  0  0  0
 14  2  1  0  0  0
 35 32  1  0  0  0
 21 16  1  0  0  0
 12  4  1  0  0  0
 12  7  1  0  0  0
  6 15  1  0  0  0
 25 26  1  0  0  0
M  END
> <minimizedAffinity>
3.70175

> <CNNscore>
0.3970744908

> <CNNaffinity>
7.3376932144

> <CNN_VS>
2.9136106968

> <CNNaffinity_variance>
0.7070080042

$$$$
[H]c1c([H])c([C@]2([H])c3c(c4c([H])c([H])c([H])c([H])c4n3[H])C([H])([H])[C@@]([H])(C([H])([H])[H])N2C([H])([H])C2(F)C([H])([H])C2([H])[H])c([H])c([H])c1OC([H])([H])C([H])([H])N([H])C([H])([H])C([H])([H])C([H])([H])F


 35 39  0  0  0  0  0  0  0  0999 V2000
   12.8347   45.0859  128.6955 C   0  0  0  0  0  0  0  0  0  0  0  0
   11.7723   45.4429  129.7072 C   0  0  0  0  0  0  0  0  0  0  0  0
   11.8305   44.3591  130.7755 C   0  0  0  0  0  0  0  0  0  0  0  0
   10.8741   44.7965  131.8174 C   0  0  0  0  0  0  0  0  0  0  0  0
    9.7300   45.4580  131.4427 C   0  0  0  0  0  0  0  0  0  0  0  0
    9.0332   45.7541  132.5212 N   0  0  0  0  0  0  0  0  0  0  0  0
    9.6953   45.3009  133.5956 C   0  0  0  0  0  0  0  0  0  0  0  0
    9.3912   45.3559  134.9634 C   0  0  0  0  0  0  0  0  0  0  0  0
   10.2397   44.8105  135.9005 C   0  0  0  0  0  0  0  0  0  0  0  0
   11.4180   44.1954  135.4758 C   0  0  0  0  0  0  0  0  0  0  0  0
   11.7017   44.1499  134.1307 C   0  0  0  0  0  0  0  0  0  0  0  0
   10.8606   44.6919  133.1833 C   0  0  0  0  0  0  0  0  0  0  0  0
    9.4164   45.7403  130.0048 C   0  0  0  0  0  0  0  0  0  0  0  0
   10.4912   45.5831  129.1103 N   0  0  0  0  0  0  0  0  0  0  0  0
    8.0953   46.2654  132.5991 H   0  0  0  0  0  0  0  0  0  0  0  0
    8.8174   47.0933  129.8563 C   0  0  0  0  0  0  0  0  0  0  0  0
    7.6346   47.3472  129.2092 C   0  0  0  0  0  0  0  0  0  0  0  0
    7.1265   48.6174  129.0803 C   0  0  0  0  0  0  0  0  0  0  0  0
    7.7865   49.7133  129.6003 C   0  0  0  0  0  0  0  0  0  0  0  0
    8.9768   49.4603  130.2520 C   0  0  0  0  0  0  0  0  0  0  0  0
    9.5001   48.1929  130.3902 C   0  0  0  0  0  0  0  0  0  0  0  0
    7.3133   51.0129  129.4951 O   0  0  0  0  0  0  0  0  0  0  0  0
    7.0856   51.6046  128.2476 C   0  0  0  0  0  0  0  0  0  0  0  0
    7.1415   53.1345  128.3421 C   0  0  0  0  0  0  0  0  0  0  0  0
    6.9602   53.6185  127.0012 N   0  0  0  0  0  0  0  0  0  0  0  0
    5.9652   53.9408  126.8935 H   0  0  0  0  0  0  0  0  0  0  0  0
    7.8478   54.6612  126.6001 C   0  0  0  0  0  0  0  0  0  0  0  0
    8.5399   54.4247  125.2983 C   0  0  0  0  0  0  0  0  0  0  0  0
    7.4824   54.6180  124.2031 C   0  0  0  0  0  0  0  0  0  0  0  0
    7.6003   53.5542  123.3235 F   0  0  0  0  0  0  0  0  0  0  0  0
   10.3235   44.7185  127.9972 C   0  0  0  0  0  0  0  0  0  0  0  0
    9.3241   43.6328  128.1436 C   0  0  0  0  0  0  0  0  0  0  0  0
    8.5221   43.2726  127.0741 F   0  0  0  0  0  0  0  0  0  0  0  0
    9.9087   42.3778  128.8218 C   0  0  0  0  0  0  0  0  0  0  0  0
    8.8291   43.1904  129.4914 C   0  0  0  0  0  0  0  0  0  0  0  0
  1  2  1  0  0  0
  2  3  1  0  0  0
  3  4  1  0  0  0
  4  5  2  0  0  0
  5  6  1  0  0  0
  6  7  1  0  0  0
  7  8  2  0  0  0
  8  9  1  0  0  0
  9 10  2  0  0  0
 10 11  1  0  0  0
 11 12  2  0  0  0
  5 13  1  0  0  0
 13 14  1  0  0  0
 14 31  1  0  0  0
 31 32  1  0  0  0
 32 33  1  0  0  0
 32 34  1  0  0  0
 34 35  1  0  0  0
 13 16  1  0  0  0
 16 17  2  0  0  0
 17 18  1  0  0  0
 18 19  2  0  0  0
 19 22  1  0  0  0
 22 23  1  0  0  0
 23 24  1  0  0  0
 24 25  1  0  0  0
 25 27  1  0  0  0
 27 28  1  0  0  0
 28 29  1  0  0  0
 29 30  1  0  0  0
 19 20  1  0  0  0
 20 21  2  0  0  0
 14  2  1  0  0  0
 35 32  1  0  0  0
 21 16  1  0  0  0
 12  4  1  0  0  0
 12  7  1  0  0  0
  6 15  1  0  0  0
 25 26  1  0  0  0
M  END
> <minimizedAffinity>
-3.93926

> <CNNscore>
0.3882736266

> <CNNaffinity>
7.4780492783

> <CNN_VS>
2.9035294056

> <CNNaffinity_variance>
0.1713044643

$$$$
[H]c1c([H])c([C@]2([H])c3c(c4c([H])c([H])c([H])c([H])c4n3[H])C([H])([H])[C@@]([H])(C([H])([H])[H])N2C([H])([H])C2(F)C([H])([H])C2([H])[H])c([H])c([H])c1OC([H])([H])C([H])([H])N([H])C([H])([H])C([H])([H])C([H])([H])F


 35 39  0  0  0  0  0  0  0  0999 V2000
    9.0308   47.6671  135.0055 C   0  0  0  0  0  0  0  0  0  0  0  0
    8.6872   46.7186  133.8820 C   0  0  0  0  0  0  0  0  0  0  0  0
    9.1311   45.3386  134.3488 C   0  0  0  0  0  0  0  0  0  0  0  0
    8.6700   44.4102  133.2919 C   0  0  0  0  0  0  0  0  0  0  0  0
    8.6762   44.8274  131.9831 C   0  0  0  0  0  0  0  0  0  0  0  0
    8.2265   43.8517  131.2201 N   0  0  0  0  0  0  0  0  0  0  0  0
    7.9257   42.8032  132.0000 C   0  0  0  0  0  0  0  0  0  0  0  0
    7.4189   41.5328  131.6906 C   0  0  0  0  0  0  0  0  0  0  0  0
    7.1865   40.6027  132.6788 C   0  0  0  0  0  0  0  0  0  0  0  0
    7.4615   40.9359  134.0056 C   0  0  0  0  0  0  0  0  0  0  0  0
    7.9581   42.1861  134.2923 C   0  0  0  0  0  0  0  0  0  0  0  0
    8.1950   43.1255  133.3123 C   0  0  0  0  0  0  0  0  0  0  0  0
    9.1480   46.1950  131.5927 C   0  0  0  0  0  0  0  0  0  0  0  0
    9.2711   47.1158  132.6497 N   0  0  0  0  0  0  0  0  0  0  0  0
    8.0975   43.8314  130.1570 H   0  0  0  0  0  0  0  0  0  0  0  0
    8.2878   46.7577  130.5181 C   0  0  0  0  0  0  0  0  0  0  0  0
    8.7564   47.4980  129.4623 C   0  0  0  0  0  0  0  0  0  0  0  0
    7.9220   48.0141  128.5001 C   0  0  0  0  0  0  0  0  0  0  0  0
    6.5567   47.8121  128.5471 C   0  0  0  0  0  0  0  0  0  0  0  0
    6.0829   47.0673  129.6085 C   0  0  0  0  0  0  0  0  0  0  0  0
    6.9058   46.5426  130.5815 C   0  0  0  0  0  0  0  0  0  0  0  0
    5.6757   48.3126  127.6000 O   0  0  0  0  0  0  0  0  0  0  0  0
    4.7383   49.2982  127.9287 C   0  0  0  0  0  0  0  0  0  0  0  0
    4.0630   48.9941  129.2719 C   0  0  0  0  0  0  0  0  0  0  0  0
    4.3618   50.1116  130.1246 N   0  0  0  0  0  0  0  0  0  0  0  0
    4.5265   49.7538  131.0995 H   0  0  0  0  0  0  0  0  0  0  0  0
    5.4669   50.9165  129.7164 C   0  0  0  0  0  0  0  0  0  0  0  0
    6.7279   50.6778  130.4796 C   0  0  0  0  0  0  0  0  0  0  0  0
    7.8807   50.8747  129.4861 C   0  0  0  0  0  0  0  0  0  0  0  0
    7.3298   51.3340  128.3007 F   0  0  0  0  0  0  0  0  0  0  0  0
   10.5173   47.7691  132.8355 C   0  0  0  0  0  0  0  0  0  0  0  0
   10.6322   49.1465  132.2981 C   0  0  0  0  0  0  0  0  0  0  0  0
   11.3617   49.3886  131.1466 F   0  0  0  0  0  0  0  0  0  0  0  0
    9.2735   49.8721  132.2343 C   0  0  0  0  0  0  0  0  0  0  0  0
   10.3682   50.3533  133.1532 C   0  0  0  0  0  0  0  0  0  0  0  0
  1  2  1  0  0  0
  2  3  1  0  0  0
  3  4  1  0  0  0
  4  5  2  0  0  0
  5  6  1  0  0  0
  6  7  1  0  0  0
  7  8  2  0  0  0
  8  9  1  0  0  0
  9 10  2  0  0  0
 10 11  1  0  0  0
 11 12  2  0  0  0
  5 13  1  0  0  0
 13 14  1  0  0  0
 14 31  1  0  0  0
 31 32  1  0  0  0
 32 33  1  0  0  0
 32 34  1  0  0  0
 34 35  1  0  0  0
 13 16  1  0  0  0
 16 17  2  0  0  0
 17 18  1  0  0  0
 18 19  2  0  0  0
 19 22  1  0  0  0
 22 23  1  0  0  0
 23 24  1  0  0  0
 24 25  1  0  0  0
 25 27  1  0  0  0
 27 28  1  0  0  0
 28 29  1  0  0  0
 29 30  1  0  0  0
 19 20  1  0  0  0
 20 21  2  0  0  0
 14  2  1  0  0  0
 35 32  1  0  0  0
 21 16  1  0  0  0
 12  4  1  0  0  0
 12  7  1  0  0  0
  6 15  1  0  0  0
 25 26  1  0  0  0
M  END
> <minimizedAffinity>
13.08101

> <CNNscore>
0.3857692778

> <CNNaffinity>
7.4596304893

> <CNN_VS>
2.8776962757

> <CNNaffinity_variance>
0.6861807108

$$$$
[H]c1c([H])c([C@]2([H])c3c(c4c([H])c([H])c([H])c([H])c4n3[H])C([H])([H])[C@@]([H])(C([H])([H])[H])N2C([H])([H])C2(F)C([H])([H])C2([H])[H])c([H])c([H])c1OC([H])([H])C([H])([H])N([H])C([H])([H])C([H])([H])C([H])([H])F


 35 39  0  0  0  0  0  0  0  0999 V2000
   11.4380   49.6432  130.2952 C   0  0  0  0  0  0  0  0  0  0  0  0
   10.3207   48.6579  130.5419 C   0  0  0  0  0  0  0  0  0  0  0  0
    9.0333   49.3848  130.1764 C   0  0  0  0  0  0  0  0  0  0  0  0
    7.9683   48.3642  130.3021 C   0  0  0  0  0  0  0  0  0  0  0  0
    8.0692   47.4065  131.2817 C   0  0  0  0  0  0  0  0  0  0  0  0
    7.0243   46.6070  131.2088 N   0  0  0  0  0  0  0  0  0  0  0  0
    6.2399   47.0195  130.2026 C   0  0  0  0  0  0  0  0  0  0  0  0
    5.0240   46.5228  129.7113 C   0  0  0  0  0  0  0  0  0  0  0  0
    4.3907   47.1248  128.6472 C   0  0  0  0  0  0  0  0  0  0  0  0
    4.9732   48.2454  128.0537 C   0  0  0  0  0  0  0  0  0  0  0  0
    6.1660   48.7200  128.5473 C   0  0  0  0  0  0  0  0  0  0  0  0
    6.8093   48.1264  129.6116 C   0  0  0  0  0  0  0  0  0  0  0  0
    9.2238   47.3722  132.2363 C   0  0  0  0  0  0  0  0  0  0  0  0
   10.3325   48.1582  131.8712 N   0  0  0  0  0  0  0  0  0  0  0  0
    6.7811   45.7577  131.8145 H   0  0  0  0  0  0  0  0  0  0  0  0
    9.6491   45.9704  132.4921 C   0  0  0  0  0  0  0  0  0  0  0  0
   10.9558   45.5690  132.6085 C   0  0  0  0  0  0  0  0  0  0  0  0
   11.3042   44.2580  132.8277 C   0  0  0  0  0  0  0  0  0  0  0  0
   10.3480   43.2683  132.9430 C   0  0  0  0  0  0  0  0  0  0  0  0
    9.0324   43.6698  132.8263 C   0  0  0  0  0  0  0  0  0  0  0  0
    8.6661   44.9800  132.6067 C   0  0  0  0  0  0  0  0  0  0  0  0
   10.6511   41.9330  133.1640 O   0  0  0  0  0  0  0  0  0  0  0  0
   11.0704   41.1006  132.1203 C   0  0  0  0  0  0  0  0  0  0  0  0
   10.5576   41.6085  130.7669 C   0  0  0  0  0  0  0  0  0  0  0  0
   11.2193   42.8640  130.5413 N   0  0  0  0  0  0  0  0  0  0  0  0
   12.2326   42.7597  130.8019 H   0  0  0  0  0  0  0  0  0  0  0  0
   11.1162   43.3823  129.2159 C   0  0  0  0  0  0  0  0  0  0  0  0
    9.7660   43.2408  128.5943 C   0  0  0  0  0  0  0  0  0  0  0  0
    8.9457   44.4522  129.0575 C   0  0  0  0  0  0  0  0  0  0  0  0
    7.8657   43.9681  129.7777 F   0  0  0  0  0  0  0  0  0  0  0  0
   10.8150   49.1185  132.7983 C   0  0  0  0  0  0  0  0  0  0  0  0
    9.8007   49.9846  133.4464 C   0  0  0  0  0  0  0  0  0  0  0  0
    9.0616   49.5133  134.5181 F   0  0  0  0  0  0  0  0  0  0  0  0
   10.3345   51.3998  133.7446 C   0  0  0  0  0  0  0  0  0  0  0  0
    9.2227   51.1833  132.7490 C   0  0  0  0  0  0  0  0  0  0  0  0
  1  2  1  0  0  0
  2  3  1  0  0  0
  3  4  1  0  0  0
  4  5  2  0  0  0
  5  6  1  0  0  0
  6  7  1  0  0  0
  7  8  2  0  0  0
  8  9  1  0  0  0
  9 10  2  0  0  0
 10 11  1  0  0  0
 11 12  2  0  0  0
  5 13  1  0  0  0
 13 14  1  0  0  0
 14 31  1  0  0  0
 31 32  1  0  0  0
 32 33  1  0  0  0
 32 34  1  0  0  0
 34 35  1  0  0  0
 13 16  1  0  0  0
 16 17  2  0  0  0
 17 18  1  0  0  0
 18 19  2  0  0  0
 19 22  1  0  0  0
 22 23  1  0  0  0
 23 24  1  0  0  0
 24 25  1  0  0  0
 25 27  1  0  0  0
 27 28  1  0  0  0
 28 29  1  0  0  0
 29 30  1  0  0  0
 19 20  1  0  0  0
 20 21  2  0  0  0
 14  2  1  0  0  0
 35 32  1  0  0  0
 21 16  1  0  0  0
 12  4  1  0  0  0
 12  7  1  0  0  0
  6 15  1  0  0  0
 25 26  1  0  0  0
M  END
> <minimizedAffinity>
8.32477

> <CNNscore>
0.3813720644

> <CNNaffinity>
7.7402305603

> <CNN_VS>
2.9519076347

> <CNNaffinity_variance>
0.6373538375

$$$$
[H]c1c([H])c([C@]2([H])c3c(c4c([H])c([H])c([H])c([H])c4n3[H])C([H])([H])[C@@]([H])(C([H])([H])[H])N2C([H])([H])C2(F)C([H])([H])C2([H])[H])c([H])c([H])c1OC([H])([H])C([H])([H])N([H])C([H])([H])C([H])([H])C([H])([H])F


 35 39  0  0  0  0  0  0  0  0999 V2000
    8.1796   42.8089  130.4836 C   0  0  0  0  0  0  0  0  0  0  0  0
    8.3448   44.3022  130.6344 C   0  0  0  0  0  0  0  0  0  0  0  0
    7.5864   44.9268  129.4708 C   0  0  0  0  0  0  0  0  0  0  0  0
    7.6530   46.3863  129.7097 C   0  0  0  0  0  0  0  0  0  0  0  0
    8.7828   46.9221  130.2786 C   0  0  0  0  0  0  0  0  0  0  0  0
    8.6244   48.2245  130.4014 N   0  0  0  0  0  0  0  0  0  0  0  0
    7.4153   48.5549  129.9252 C   0  0  0  0  0  0  0  0  0  0  0  0
    6.7651   49.7933  129.8245 C   0  0  0  0  0  0  0  0  0  0  0  0
    5.5003   49.8881  129.2889 C   0  0  0  0  0  0  0  0  0  0  0  0
    4.8618   48.7308  128.8417 C   0  0  0  0  0  0  0  0  0  0  0  0
    5.5131   47.5239  128.9476 C   0  0  0  0  0  0  0  0  0  0  0  0
    6.7788   47.4161  129.4816 C   0  0  0  0  0  0  0  0  0  0  0  0
    9.9570   46.0706  130.6548 C   0  0  0  0  0  0  0  0  0  0  0  0
    9.7111   44.6856  130.6926 N   0  0  0  0  0  0  0  0  0  0  0  0
    9.3012   48.9515  130.8024 H   0  0  0  0  0  0  0  0  0  0  0  0
   10.5399   46.5248  131.9453 C   0  0  0  0  0  0  0  0  0  0  0  0
   10.3725   47.7821  132.4681 C   0  0  0  0  0  0  0  0  0  0  0  0
   10.9449   48.1648  133.6572 C   0  0  0  0  0  0  0  0  0  0  0  0
   11.7252   47.2953  134.3936 C   0  0  0  0  0  0  0  0  0  0  0  0
   11.8950   46.0295  133.8697 C   0  0  0  0  0  0  0  0  0  0  0  0
   11.3279   45.6298  132.6789 C   0  0  0  0  0  0  0  0  0  0  0  0
   12.3231   47.6359  135.5979 O   0  0  0  0  0  0  0  0  0  0  0  0
   11.9921   48.8212  136.2640 C   0  0  0  0  0  0  0  0  0  0  0  0
   13.2509   49.5871  136.6897 C   0  0  0  0  0  0  0  0  0  0  0  0
   14.3044   48.6114  136.7484 N   0  0  0  0  0  0  0  0  0  0  0  0
   14.9064   48.7173  135.8929 H   0  0  0  0  0  0  0  0  0  0  0  0
   15.1205   48.6594  137.9178 C   0  0  0  0  0  0  0  0  0  0  0  0
   16.2888   47.7297  137.9014 C   0  0  0  0  0  0  0  0  0  0  0  0
   15.8472   46.4914  137.1099 C   0  0  0  0  0  0  0  0  0  0  0  0
   15.3384   46.9349  135.9000 F   0  0  0  0  0  0  0  0  0  0  0  0
   10.5389   43.8307  129.9191 C   0  0  0  0  0  0  0  0  0  0  0  0
   11.4319   44.4847  128.9323 C   0  0  0  0  0  0  0  0  0  0  0  0
   12.8019   44.4982  129.1312 F   0  0  0  0  0  0  0  0  0  0  0  0
   11.1050   44.0824  127.4804 C   0  0  0  0  0  0  0  0  0  0  0  0
   10.9179   45.5020  127.9534 C   0  0  0  0  0  0  0  0  0  0  0  0
  1  2  1  0  0  0
  2  3  1  0  0  0
  3  4  1  0  0  0
  4  5  2  0  0  0
  5  6  1  0  0  0
  6  7  1  0  0  0
  7  8  2  0  0  0
  8  9  1  0  0  0
  9 10  2  0  0  0
 10 11  1  0  0  0
 11 12  2  0  0  0
  5 13  1  0  0  0
 13 14  1  0  0  0
 14 31  1  0  0  0
 31 32  1  0  0  0
 32 33  1  0  0  0
 32 34  1  0  0  0
 34 35  1  0  0  0
 13 16  1  0  0  0
 16 17  2  0  0  0
 17 18  1  0  0  0
 18 19  2  0  0  0
 19 22  1  0  0  0
 22 23  1  0  0  0
 23 24  1  0  0  0
 24 25  1  0  0  0
 25 27  1  0  0  0
 27 28  1  0  0  0
 28 29  1  0  0  0
 29 30  1  0  0  0
 19 20  1  0  0  0
 20 21  2  0  0  0
 14  2  1  0  0  0
 35 32  1  0  0  0
 21 16  1  0  0  0
 12  4  1  0  0  0
 12  7  1  0  0  0
  6 15  1  0  0  0
 25 26  1  0  0  0
M  END
> <minimizedAffinity>
9.27474

> <CNNscore>
0.3463695049

> <CNNaffinity>
7.4616179466

> <CNN_VS>
2.5844769478

> <CNNaffinity_variance>
0.9782948494

$$$$
[H]c1c([H])c([C@]2([H])c3c(c4c([H])c([H])c([H])c([H])c4n3[H])C([H])([H])[C@@]([H])(C([H])([H])[H])N2C([H])([H])C2(F)C([H])([H])C2([H])[H])c([H])c([H])c1OC([H])([H])C([H])([H])N([H])C([H])([H])C([H])([H])C([H])([H])F


 35 39  0  0  0  0  0  0  0  0999 V2000
    9.3558   47.1140  135.0095 C   0  0  0  0  0  0  0  0  0  0  0  0
    9.3241   46.4553  133.6512 C   0  0  0  0  0  0  0  0  0  0  0  0
   10.4070   45.3847  133.6798 C   0  0  0  0  0  0  0  0  0  0  0  0
   10.2723   44.6692  132.3909 C   0  0  0  0  0  0  0  0  0  0  0  0
    9.9025   45.3711  131.2694 C   0  0  0  0  0  0  0  0  0  0  0  0
    9.8410   44.5429  130.2463 N   0  0  0  0  0  0  0  0  0  0  0  0
   10.1628   43.3129  130.6721 C   0  0  0  0  0  0  0  0  0  0  0  0
   10.2492   42.0894  129.9922 C   0  0  0  0  0  0  0  0  0  0  0  0
   10.6070   40.9355  130.6526 C   0  0  0  0  0  0  0  0  0  0  0  0
   10.8864   40.9916  132.0186 C   0  0  0  0  0  0  0  0  0  0  0  0
   10.7969   42.1992  132.6708 C   0  0  0  0  0  0  0  0  0  0  0  0
   10.4400   43.3609  132.0210 C   0  0  0  0  0  0  0  0  0  0  0  0
    9.6417   46.8461  131.3116 C   0  0  0  0  0  0  0  0  0  0  0  0
    9.4825   47.3945  132.5977 N   0  0  0  0  0  0  0  0  0  0  0  0
    9.5856   44.7483  129.2265 H   0  0  0  0  0  0  0  0  0  0  0  0
    8.4770   47.1957  130.4557 C   0  0  0  0  0  0  0  0  0  0  0  0
    8.5472   48.0025  129.3483 C   0  0  0  0  0  0  0  0  0  0  0  0
    7.4405   48.3138  128.5956 C   0  0  0  0  0  0  0  0  0  0  0  0
    6.1895   47.8260  128.9184 C   0  0  0  0  0  0  0  0  0  0  0  0
    6.1164   47.0137  130.0322 C   0  0  0  0  0  0  0  0  0  0  0  0
    7.2163   46.6917  130.7976 C   0  0  0  0  0  0  0  0  0  0  0  0
    5.0446   48.1124  128.1897 O   0  0  0  0  0  0  0  0  0  0  0  0
    4.0407   48.9379  128.7082 C   0  0  0  0  0  0  0  0  0  0  0  0
    4.3164   50.4124  128.3884 C   0  0  0  0  0  0  0  0  0  0  0  0
    3.0322   51.0083  128.1413 N   0  0  0  0  0  0  0  0  0  0  0  0
    3.0520   52.0010  128.4871 H   0  0  0  0  0  0  0  0  0  0  0  0
    2.5949   50.9824  126.7834 C   0  0  0  0  0  0  0  0  0  0  0  0
    1.4052   51.8373  126.4950 C   0  0  0  0  0  0  0  0  0  0  0  0
    1.8896   53.2919  126.5608 C   0  0  0  0  0  0  0  0  0  0  0  0
    2.2529   53.6643  125.2768 F   0  0  0  0  0  0  0  0  0  0  0  0
   10.3090   48.4851  132.9746 C   0  0  0  0  0  0  0  0  0  0  0  0
    9.7749   49.8441  132.7162 C   0  0  0  0  0  0  0  0  0  0  0  0
   10.1595   50.9091  133.5129 F   0  0  0  0  0  0  0  0  0  0  0  0
    9.8476   50.2353  131.2268 C   0  0  0  0  0  0  0  0  0  0  0  0
    8.5196   50.0620  131.9199 C   0  0  0  0  0  0  0  0  0  0  0  0
  1  2  1  0  0  0
  2  3  1  0  0  0
  3  4  1  0  0  0
  4  5  2  0  0  0
  5  6  1  0  0  0
  6  7  1  0  0  0
  7  8  2  0  0  0
  8  9  1  0  0  0
  9 10  2  0  0  0
 10 11  1  0  0  0
 11 12  2  0  0  0
  5 13  1  0  0  0
 13 14  1  0  0  0
 14 31  1  0  0  0
 31 32  1  0  0  0
 32 33  1  0  0  0
 32 34  1  0  0  0
 34 35  1  0  0  0
 13 16  1  0  0  0
 16 17  2  0  0  0
 17 18  1  0  0  0
 18 19  2  0  0  0
 19 22  1  0  0  0
 22 23  1  0  0  0
 23 24  1  0  0  0
 24 25  1  0  0  0
 25 27  1  0  0  0
 27 28  1  0  0  0
 28 29  1  0  0  0
 29 30  1  0  0  0
 19 20  1  0  0  0
 20 21  2  0  0  0
 14  2  1  0  0  0
 35 32  1  0  0  0
 21 16  1  0  0  0
 12  4  1  0  0  0
 12  7  1  0  0  0
  6 15  1  0  0  0
 25 26  1  0  0  0
M  END
> <minimizedAffinity>
5.14664

> <CNNscore>
0.3455191255

> <CNNaffinity>
7.2781510353

> <CNN_VS>
2.5147404671

> <CNNaffinity_variance>
0.4284587801

$$$$
[H]c1c([H])c([C@]2([H])c3c(c4c([H])c([H])c([H])c([H])c4n3[H])C([H])([H])[C@@]([H])(C([H])([H])[H])N2C([H])([H])C2(F)C([H])([H])C2([H])[H])c([H])c([H])c1OC([H])([H])C([H])([H])N([H])C([H])([H])C([H])([H])C([H])([H])F


 35 39  0  0  0  0  0  0  0  0999 V2000
    9.6401   48.7772  128.3472 C   0  0  0  0  0  0  0  0  0  0  0  0
    9.3907   47.5227  129.1495 C   0  0  0  0  0  0  0  0  0  0  0  0
    9.1214   46.4218  128.1322 C   0  0  0  0  0  0  0  0  0  0  0  0
    9.0078   45.1810  128.9317 C   0  0  0  0  0  0  0  0  0  0  0  0
    8.4435   45.2384  130.1828 C   0  0  0  0  0  0  0  0  0  0  0  0
    8.4479   44.0311  130.7108 N   0  0  0  0  0  0  0  0  0  0  0  0
    9.0027   43.1828  129.8331 C   0  0  0  0  0  0  0  0  0  0  0  0
    9.2431   41.8029  129.9023 C   0  0  0  0  0  0  0  0  0  0  0  0
    9.8367   41.1337  128.8557 C   0  0  0  0  0  0  0  0  0  0  0  0
   10.2019   41.8452  127.7122 C   0  0  0  0  0  0  0  0  0  0  0  0
    9.9593   43.1981  127.6602 C   0  0  0  0  0  0  0  0  0  0  0  0
    9.3660   43.8791  128.7009 C   0  0  0  0  0  0  0  0  0  0  0  0
    7.9282   46.5225  130.7582 C   0  0  0  0  0  0  0  0  0  0  0  0
    8.3433   47.6914  130.0938 N   0  0  0  0  0  0  0  0  0  0  0  0
    8.0882   43.7121  131.6679 H   0  0  0  0  0  0  0  0  0  0  0  0
    8.2506   46.6125  132.2072 C   0  0  0  0  0  0  0  0  0  0  0  0
    8.0269   45.6058  133.1119 C   0  0  0  0  0  0  0  0  0  0  0  0
    8.3244   45.7391  134.4468 C   0  0  0  0  0  0  0  0  0  0  0  0
    8.8688   46.9040  134.9505 C   0  0  0  0  0  0  0  0  0  0  0  0
    9.0949   47.9184  134.0419 C   0  0  0  0  0  0  0  0  0  0  0  0
    8.8025   47.8010  132.7003 C   0  0  0  0  0  0  0  0  0  0  0  0
    9.1853   47.0850  136.2887 O   0  0  0  0  0  0  0  0  0  0  0  0
   10.5074   47.2830  136.7023 C   0  0  0  0  0  0  0  0  0  0  0  0
   11.2512   48.2249  135.7473 C   0  0  0  0  0  0  0  0  0  0  0  0
   12.2842   47.4329  135.1383 N   0  0  0  0  0  0  0  0  0  0  0  0
   12.2230   47.5483  134.0951 H   0  0  0  0  0  0  0  0  0  0  0  0
   13.6126   47.7167  135.5750 C   0  0  0  0  0  0  0  0  0  0  0  0
   13.7421   48.9374  136.4251 C   0  0  0  0  0  0  0  0  0  0  0  0
   14.6818   48.5646  137.5797 C   0  0  0  0  0  0  0  0  0  0  0  0
   15.6515   47.7190  137.0658 F   0  0  0  0  0  0  0  0  0  0  0  0
    7.3511   48.5964  129.6344 C   0  0  0  0  0  0  0  0  0  0  0  0
    7.3415   49.9431  130.2550 C   0  0  0  0  0  0  0  0  0  0  0  0
    8.3932   50.3499  131.0582 F   0  0  0  0  0  0  0  0  0  0  0  0
    6.9722   51.0543  129.2522 C   0  0  0  0  0  0  0  0  0  0  0  0
    6.0717   50.7297  130.4175 C   0  0  0  0  0  0  0  0  0  0  0  0
  1  2  1  0  0  0
  2  3  1  0  0  0
  3  4  1  0  0  0
  4  5  2  0  0  0
  5  6  1  0  0  0
  6  7  1  0  0  0
  7  8  2  0  0  0
  8  9  1  0  0  0
  9 10  2  0  0  0
 10 11  1  0  0  0
 11 12  2  0  0  0
  5 13  1  0  0  0
 13 14  1  0  0  0
 14 31  1  0  0  0
 31 32  1  0  0  0
 32 33  1  0  0  0
 32 34  1  0  0  0
 34 35  1  0  0  0
 13 16  1  0  0  0
 16 17  2  0  0  0
 17 18  1  0  0  0
 18 19  2  0  0  0
 19 22  1  0  0  0
 22 23  1  0  0  0
 23 24  1  0  0  0
 24 25  1  0  0  0
 25 27  1  0  0  0
 27 28  1  0  0  0
 28 29  1  0  0  0
 29 30  1  0  0  0
 19 20  1  0  0  0
 20 21  2  0  0  0
 14  2  1  0  0  0
 35 32  1  0  0  0
 21 16  1  0  0  0
 12  4  1  0  0  0
 12  7  1  0  0  0
  6 15  1  0  0  0
 25 26  1  0  0  0
M  END
> <minimizedAffinity>
14.25196

> <CNNscore>
0.3400838673

> <CNNaffinity>
7.4476685524

> <CNN_VS>
2.5328319073

> <CNNaffinity_variance>
1.2838834524

$$$$
[H]Oc1c([H])c([H])c2c(c1[H])C([H])([H])C([H])([H])C([H])([H])C(c1c([H])c([H])c([H])c([H])c1[H])=C2c1c([H])c([H])c(OC([H])([H])[H])c([H])c1[H]


 27 30  0  0  0  0  0  0  0  0999 V2000
    8.9774   47.0461  131.0793 C   0  0  0  0  0  0  0  0  0  0  0  0
   10.0731   47.5292  131.6096 C   0  0  0  0  0  0  0  0  0  0  0  0
   10.5639   48.9308  131.8375 C   0  0  0  0  0  0  0  0  0  0  0  0
    9.7192   50.0303  131.3934 C   0  0  0  0  0  0  0  0  0  0  0  0
    8.2904   50.0078  131.9156 C   0  0  0  0  0  0  0  0  0  0  0  0
    7.5549   49.1911  130.8855 C   0  0  0  0  0  0  0  0  0  0  0  0
    6.5199   49.8409  130.2782 C   0  0  0  0  0  0  0  0  0  0  0  0
    5.7877   49.2071  129.2681 C   0  0  0  0  0  0  0  0  0  0  0  0
    4.7424   49.8971  128.6731 O   0  0  0  0  0  0  0  0  0  0  0  0
    6.1519   47.9246  128.9212 C   0  0  0  0  0  0  0  0  0  0  0  0
    7.2123   47.2547  129.5419 C   0  0  0  0  0  0  0  0  0  0  0  0
    7.9101   47.8902  130.5237 C   0  0  0  0  0  0  0  0  0  0  0  0
    4.9311   50.4722  127.8421 H   0  0  0  0  0  0  0  0  0  0  0  0
    8.2674   42.8756  130.4752 C   0  0  0  0  0  0  0  0  0  0  0  0
    8.7511   43.7087  129.4825 C   0  0  0  0  0  0  0  0  0  0  0  0
    8.9500   45.0392  129.7077 C   0  0  0  0  0  0  0  0  0  0  0  0
    8.6813   45.6403  130.9415 C   0  0  0  0  0  0  0  0  0  0  0  0
    8.2023   44.8232  131.9327 C   0  0  0  0  0  0  0  0  0  0  0  0
    8.0100   43.4866  131.6826 C   0  0  0  0  0  0  0  0  0  0  0  0
    9.1349   40.6577  129.9475 C   0  0  0  0  0  0  0  0  0  0  0  0
    8.0546   41.5126  130.2677 O   0  0  0  0  0  0  0  0  0  0  0  0
   10.9980   46.5402  132.1505 C   0  0  0  0  0  0  0  0  0  0  0  0
   11.8345   45.8206  131.3571 C   0  0  0  0  0  0  0  0  0  0  0  0
   12.7211   44.8836  131.9117 C   0  0  0  0  0  0  0  0  0  0  0  0
   12.7080   44.7240  133.2778 C   0  0  0  0  0  0  0  0  0  0  0  0
   11.8664   45.4444  134.0869 C   0  0  0  0  0  0  0  0  0  0  0  0
   11.0081   46.3563  133.5214 C   0  0  0  0  0  0  0  0  0  0  0  0
 20 21  1  0  0  0
 21 14  1  0  0  0
 14 15  2  0  0  0
 15 16  1  0  0  0
 16 17  2  0  0  0
 17 18  1  0  0  0
 18 19  2  0  0  0
 17  1  1  0  0  0
  1  2  2  0  0  0
  2  3  1  0  0  0
  3  4  1  0  0  0
  4  5  1  0  0  0
  5  6  1  0  0  0
  6  7  2  0  0  0
  7  8  1  0  0  0
  8  9  1  0  0  0
  8 10  2  0  0  0
 10 11  1  0  0  0
 11 12  2  0  0  0
  2 22  1  0  0  0
 22 23  2  0  0  0
 23 24  1  0  0  0
 24 25  2  0  0  0
 25 26  1  0  0  0
 26 27  2  0  0  0
 19 14  1  0  0  0
 12  1  1  0  0  0
 27 22  1  0  0  0
 12  6  1  0  0  0
  9 13  1  0  0  0
M  END
> <minimizedAffinity>
-3.87231

> <CNNscore>
0.5066556334

> <CNNaffinity>
7.7246789932

> <CNN_VS>
3.9137520790

> <CNNaffinity_variance>
1.1811735630

$$$$
[H]Oc1c([H])c([H])c2c(c1[H])C([H])([H])C([H])([H])C([H])([H])C(c1c([H])c([H])c([H])c([H])c1[H])=C2c1c([H])c([H])c(OC([H])([H])[H])c([H])c1[H]


 27 30  0  0  0  0  0  0  0  0999 V2000
    9.5823   47.1756  131.4286 C   0  0  0  0  0  0  0  0  0  0  0  0
   10.3324   47.3211  132.4922 C   0  0  0  0  0  0  0  0  0  0  0  0
   10.6378   48.5005  133.3714 C   0  0  0  0  0  0  0  0  0  0  0  0
   10.0314   49.7799  133.0319 C   0  0  0  0  0  0  0  0  0  0  0  0
    8.5177   49.7648  132.8798 C   0  0  0  0  0  0  0  0  0  0  0  0
    8.3161   49.4249  131.4262 C   0  0  0  0  0  0  0  0  0  0  0  0
    7.6204   50.3591  130.7153 C   0  0  0  0  0  0  0  0  0  0  0  0
    7.4079   50.1837  129.3433 C   0  0  0  0  0  0  0  0  0  0  0  0
    6.6965   51.1529  128.6524 O   0  0  0  0  0  0  0  0  0  0  0  0
    7.9227   49.0494  128.7551 C   0  0  0  0  0  0  0  0  0  0  0  0
    8.6362   48.0888  129.4808 C   0  0  0  0  0  0  0  0  0  0  0  0
    8.8296   48.2792  130.8153 C   0  0  0  0  0  0  0  0  0  0  0  0
    7.2046   51.9393  128.2278 H   0  0  0  0  0  0  0  0  0  0  0  0
    9.3279   43.5393  129.1984 C   0  0  0  0  0  0  0  0  0  0  0  0
   10.2280   44.5456  128.8977 C   0  0  0  0  0  0  0  0  0  0  0  0
   10.2690   45.7003  129.6227 C   0  0  0  0  0  0  0  0  0  0  0  0
    9.4146   45.9390  130.7037 C   0  0  0  0  0  0  0  0  0  0  0  0
    8.5190   44.9473  131.0107 C   0  0  0  0  0  0  0  0  0  0  0  0
    8.4961   43.7933  130.2665 C   0  0  0  0  0  0  0  0  0  0  0  0
   10.0409   42.1856  127.2985 C   0  0  0  0  0  0  0  0  0  0  0  0
    9.2665   42.3508  128.4704 O   0  0  0  0  0  0  0  0  0  0  0  0
   10.9668   46.1040  132.9844 C   0  0  0  0  0  0  0  0  0  0  0  0
   10.5396   45.4672  134.1065 C   0  0  0  0  0  0  0  0  0  0  0  0
   11.1662   44.2904  134.5469 C   0  0  0  0  0  0  0  0  0  0  0  0
   12.2210   43.8131  133.8044 C   0  0  0  0  0  0  0  0  0  0  0  0
   12.6606   44.4494  132.6713 C   0  0  0  0  0  0  0  0  0  0  0  0
   12.0312   45.5992  132.2594 C   0  0  0  0  0  0  0  0  0  0  0  0
 20 21  1  0  0  0
 21 14  1  0  0  0
 14 15  2  0  0  0
 15 16  1  0  0  0
 16 17  2  0  0  0
 17 18  1  0  0  0
 18 19  2  0  0  0
 17  1  1  0  0  0
  1  2  2  0  0  0
  2  3  1  0  0  0
  3  4  1  0  0  0
  4  5  1  0  0  0
  5  6  1  0  0  0
  6  7  2  0  0  0
  7  8  1  0  0  0
  8  9  1  0  0  0
  8 10  2  0  0  0
 10 11  1  0  0  0
 11 12  2  0  0  0
  2 22  1  0  0  0
 22 23  2  0  0  0
 23 24  1  0  0  0
 24 25  2  0  0  0
 25 26  1  0  0  0
 26 27  2  0  0  0
 19 14  1  0  0  0
 12  1  1  0  0  0
 27 22  1  0  0  0
 12  6  1  0  0  0
  9 13  1  0  0  0
M  END
> <minimizedAffinity>
-6.34584

> <CNNscore>
0.5029030442

> <CNNaffinity>
7.7854285240

> <CNN_VS>
3.9153156281

> <CNNaffinity_variance>
1.0722115040

$$$$
[H]Oc1c([H])c([H])c2c(c1[H])C([H])([H])C([H])([H])C([H])([H])C(c1c([H])c([H])c([H])c([H])c1[H])=C2c1c([H])c([H])c(OC([H])([H])[H])c([H])c1[H]


 27 30  0  0  0  0  0  0  0  0999 V2000
    9.3859   45.7019  130.6675 C   0  0  0  0  0  0  0  0  0  0  0  0
    8.7592   44.8917  131.4835 C   0  0  0  0  0  0  0  0  0  0  0  0
    7.4053   44.9443  132.1327 C   0  0  0  0  0  0  0  0  0  0  0  0
    6.5653   46.1032  131.8664 C   0  0  0  0  0  0  0  0  0  0  0  0
    6.3255   46.4116  130.3960 C   0  0  0  0  0  0  0  0  0  0  0  0
    7.4743   47.3177  130.0374 C   0  0  0  0  0  0  0  0  0  0  0  0
    7.1051   48.5475  129.5753 C   0  0  0  0  0  0  0  0  0  0  0  0
    8.0794   49.4991  129.2535 C   0  0  0  0  0  0  0  0  0  0  0  0
    7.6684   50.7383  128.7864 O   0  0  0  0  0  0  0  0  0  0  0  0
    9.4003   49.1457  129.4215 C   0  0  0  0  0  0  0  0  0  0  0  0
    9.7828   47.8855  129.8946 C   0  0  0  0  0  0  0  0  0  0  0  0
    8.8178   46.9743  130.2000 C   0  0  0  0  0  0  0  0  0  0  0  0
    7.4970   51.4955  129.4604 H   0  0  0  0  0  0  0  0  0  0  0  0
   13.3790   44.9438  129.3476 C   0  0  0  0  0  0  0  0  0  0  0  0
   13.0453   45.1113  130.6794 C   0  0  0  0  0  0  0  0  0  0  0  0
   11.7614   45.3683  131.0619 C   0  0  0  0  0  0  0  0  0  0  0  0
   10.7120   45.4777  130.1440 C   0  0  0  0  0  0  0  0  0  0  0  0
   11.0320   45.3124  128.8211 C   0  0  0  0  0  0  0  0  0  0  0  0
   12.3317   45.0545  128.4598 C   0  0  0  0  0  0  0  0  0  0  0  0
   15.1988   43.3647  128.9672 C   0  0  0  0  0  0  0  0  0  0  0  0
   14.6849   44.6819  128.9327 O   0  0  0  0  0  0  0  0  0  0  0  0
    9.4609   43.6536  131.8010 C   0  0  0  0  0  0  0  0  0  0  0  0
    9.7667   42.7304  130.8517 C   0  0  0  0  0  0  0  0  0  0  0  0
   10.4535   41.5533  131.1898 C   0  0  0  0  0  0  0  0  0  0  0  0
   10.7999   41.3733  132.5087 C   0  0  0  0  0  0  0  0  0  0  0  0
   10.4942   42.2985  133.4744 C   0  0  0  0  0  0  0  0  0  0  0  0
    9.8224   43.4433  133.1195 C   0  0  0  0  0  0  0  0  0  0  0  0
 20 21  1  0  0  0
 21 14  1  0  0  0
 14 15  2  0  0  0
 15 16  1  0  0  0
 16 17  2  0  0  0
 17 18  1  0  0  0
 18 19  2  0  0  0
 17  1  1  0  0  0
  1  2  2  0  0  0
  2  3  1  0  0  0
  3  4  1  0  0  0
  4  5  1  0  0  0
  5  6  1  0  0  0
  6  7  2  0  0  0
  7  8  1  0  0  0
  8  9  1  0  0  0
  8 10  2  0  0  0
 10 11  1  0  0  0
 11 12  2  0  0  0
  2 22  1  0  0  0
 22 23  2  0  0  0
 23 24  1  0  0  0
 24 25  2  0  0  0
 25 26  1  0  0  0
 26 27  2  0  0  0
 19 14  1  0  0  0
 12  1  1  0  0  0
 27 22  1  0  0  0
 12  6  1  0  0  0
  9 13  1  0  0  0
M  END
> <minimizedAffinity>
1.88187

> <CNNscore>
0.4938443899

> <CNNaffinity>
7.5738053322

> <CNN_VS>
3.7402813435

> <CNNaffinity_variance>
2.5102257729

$$$$
[H]Oc1c([H])c([H])c2c(c1[H])C([H])([H])C([H])([H])C([H])([H])C(c1c([H])c([H])c([H])c([H])c1[H])=C2c1c([H])c([H])c(OC([H])([H])[H])c([H])c1[H]


 27 30  0  0  0  0  0  0  0  0999 V2000
    8.6900   46.8901  131.0639 C   0  0  0  0  0  0  0  0  0  0  0  0
    8.1712   45.7504  130.6804 C   0  0  0  0  0  0  0  0  0  0  0  0
    7.0558   45.4042  129.7352 C   0  0  0  0  0  0  0  0  0  0  0  0
    6.3466   46.4978  129.0868 C   0  0  0  0  0  0  0  0  0  0  0  0
    7.2228   47.4911  128.3382 C   0  0  0  0  0  0  0  0  0  0  0  0
    7.5750   48.5091  129.3913 C   0  0  0  0  0  0  0  0  0  0  0  0
    7.1888   49.7850  129.0998 C   0  0  0  0  0  0  0  0  0  0  0  0
    7.4148   50.8153  130.0194 C   0  0  0  0  0  0  0  0  0  0  0  0
    7.0096   52.0999  129.6901 O   0  0  0  0  0  0  0  0  0  0  0  0
    8.0311   50.4898  131.2076 C   0  0  0  0  0  0  0  0  0  0  0  0
    8.4291   49.1826  131.5099 C   0  0  0  0  0  0  0  0  0  0  0  0
    8.2007   48.1959  130.5995 C   0  0  0  0  0  0  0  0  0  0  0  0
    6.0621   52.4068  129.9453 H   0  0  0  0  0  0  0  0  0  0  0  0
   11.7379   47.2698  134.0351 C   0  0  0  0  0  0  0  0  0  0  0  0
   10.4128   47.5887  134.2708 C   0  0  0  0  0  0  0  0  0  0  0  0
    9.4699   47.4700  133.2922 C   0  0  0  0  0  0  0  0  0  0  0  0
    9.7777   47.0236  132.0031 C   0  0  0  0  0  0  0  0  0  0  0  0
   11.0884   46.7039  131.7592 C   0  0  0  0  0  0  0  0  0  0  0  0
   12.0201   46.8316  132.7601 C   0  0  0  0  0  0  0  0  0  0  0  0
   12.9012   48.6032  135.7140 C   0  0  0  0  0  0  0  0  0  0  0  0
   12.7197   47.3846  135.0195 O   0  0  0  0  0  0  0  0  0  0  0  0
    8.8178   44.5560  131.2108 C   0  0  0  0  0  0  0  0  0  0  0  0
    9.7737   43.8818  130.5189 C   0  0  0  0  0  0  0  0  0  0  0  0
   10.3845   42.7410  131.0639 C   0  0  0  0  0  0  0  0  0  0  0  0
    9.9791   42.3362  132.3144 C   0  0  0  0  0  0  0  0  0  0  0  0
    9.0140   43.0091  133.0200 C   0  0  0  0  0  0  0  0  0  0  0  0
    8.4310   44.1234  132.4665 C   0  0  0  0  0  0  0  0  0  0  0  0
 20 21  1  0  0  0
 21 14  1  0  0  0
 14 15  2  0  0  0
 15 16  1  0  0  0
 16 17  2  0  0  0
 17 18  1  0  0  0
 18 19  2  0  0  0
 17  1  1  0  0  0
  1  2  2  0  0  0
  2  3  1  0  0  0
  3  4  1  0  0  0
  4  5  1  0  0  0
  5  6  1  0  0  0
  6  7  2  0  0  0
  7  8  1  0  0  0
  8  9  1  0  0  0
  8 10  2  0  0  0
 10 11  1  0  0  0
 11 12  2  0  0  0
  2 22  1  0  0  0
 22 23  2  0  0  0
 23 24  1  0  0  0
 24 25  2  0  0  0
 25 26  1  0  0  0
 26 27  2  0  0  0
 19 14  1  0  0  0
 12  1  1  0  0  0
 27 22  1  0  0  0
 12  6  1  0  0  0
  9 13  1  0  0  0
M  END
> <minimizedAffinity>
0.64798

> <CNNscore>
0.4614336491

> <CNNaffinity>
7.7885651588

> <CNN_VS>
3.5939059258

> <CNNaffinity_variance>
2.2117369175

$$$$
[H]Oc1c([H])c([H])c2c(c1[H])C([H])([H])C([H])([H])C([H])([H])C(c1c([H])c([H])c([H])c([H])c1[H])=C2c1c([H])c([H])c(OC([H])([H])[H])c([H])c1[H]


 27 30  0  0  0  0  0  0  0  0999 V2000
    9.2244   45.9209  131.4259 C   0  0  0  0  0  0  0  0  0  0  0  0
    9.6999   44.7154  131.6153 C   0  0  0  0  0  0  0  0  0  0  0  0
    9.4351   43.3975  130.9441 C   0  0  0  0  0  0  0  0  0  0  0  0
    8.4541   43.3642  129.8688 C   0  0  0  0  0  0  0  0  0  0  0  0
    8.6886   44.3574  128.7405 C   0  0  0  0  0  0  0  0  0  0  0  0
    7.9562   45.5901  129.2023 C   0  0  0  0  0  0  0  0  0  0  0  0
    6.9734   46.0171  128.3574 C   0  0  0  0  0  0  0  0  0  0  0  0
    6.1872   47.1241  128.6960 C   0  0  0  0  0  0  0  0  0  0  0  0
    5.1977   47.5307  127.8136 O   0  0  0  0  0  0  0  0  0  0  0  0
    6.4444   47.7496  129.8962 C   0  0  0  0  0  0  0  0  0  0  0  0
    7.4516   47.3150  130.7651 C   0  0  0  0  0  0  0  0  0  0  0  0
    8.2057   46.2365  130.4144 C   0  0  0  0  0  0  0  0  0  0  0  0
    4.2528   47.1358  127.9047 H   0  0  0  0  0  0  0  0  0  0  0  0
   10.3115   49.5082  133.4781 C   0  0  0  0  0  0  0  0  0  0  0  0
   10.3745   49.3791  132.1023 C   0  0  0  0  0  0  0  0  0  0  0  0
   10.0346   48.2122  131.4832 C   0  0  0  0  0  0  0  0  0  0  0  0
    9.6056   47.0844  132.1901 C   0  0  0  0  0  0  0  0  0  0  0  0
    9.5386   47.2020  133.5544 C   0  0  0  0  0  0  0  0  0  0  0  0
    9.8860   48.3869  134.1556 C   0  0  0  0  0  0  0  0  0  0  0  0
    9.9685   51.8944  133.8505 C   0  0  0  0  0  0  0  0  0  0  0  0
   10.6554   50.6908  134.1333 O   0  0  0  0  0  0  0  0  0  0  0  0
   10.7381   44.6025  132.6328 C   0  0  0  0  0  0  0  0  0  0  0  0
   11.9539   45.1942  132.4959 C   0  0  0  0  0  0  0  0  0  0  0  0
   12.9277   45.0748  133.5004 C   0  0  0  0  0  0  0  0  0  0  0  0
   12.6049   44.3404  134.6177 C   0  0  0  0  0  0  0  0  0  0  0  0
   11.3811   43.7382  134.7644 C   0  0  0  0  0  0  0  0  0  0  0  0
   10.4438   43.8697  133.7684 C   0  0  0  0  0  0  0  0  0  0  0  0
 20 21  1  0  0  0
 21 14  1  0  0  0
 14 15  2  0  0  0
 15 16  1  0  0  0
 16 17  2  0  0  0
 17 18  1  0  0  0
 18 19  2  0  0  0
 17  1  1  0  0  0
  1  2  2  0  0  0
  2  3  1  0  0  0
  3  4  1  0  0  0
  4  5  1  0  0  0
  5  6  1  0  0  0
  6  7  2  0  0  0
  7  8  1  0  0  0
  8  9  1  0  0  0
  8 10  2  0  0  0
 10 11  1  0  0  0
 11 12  2  0  0  0
  2 22  1  0  0  0
 22 23  2  0  0  0
 23 24  1  0  0  0
 24 25  2  0  0  0
 25 26  1  0  0  0
 26 27  2  0  0  0
 19 14  1  0  0  0
 12  1  1  0  0  0
 27 22  1  0  0  0
 12  6  1  0  0  0
  9 13  1  0  0  0
M  END
> <minimizedAffinity>
3.44320

> <CNNscore>
0.4441514909

> <CNNaffinity>
7.4802308083

> <CNN_VS>
3.3223557472

> <CNNaffinity_variance>
1.2599475384

$$$$
[H]Oc1c([H])c([H])c2c(c1[H])C([H])([H])C([H])([H])C([H])([H])C(c1c([H])c([H])c([H])c([H])c1[H])=C2c1c([H])c([H])c(OC([H])([H])[H])c([H])c1[H]


 27 30  0  0  0  0  0  0  0  0999 V2000
    9.5207   46.1579  130.8668 C   0  0  0  0  0  0  0  0  0  0  0  0
   10.0169   45.1542  130.1873 C   0  0  0  0  0  0  0  0  0  0  0  0
   10.0558   44.8365  128.7194 C   0  0  0  0  0  0  0  0  0  0  0  0
    9.4226   45.7725  127.8015 C   0  0  0  0  0  0  0  0  0  0  0  0
    9.8862   47.2167  127.9192 C   0  0  0  0  0  0  0  0  0  0  0  0
    8.9591   47.7979  128.9545 C   0  0  0  0  0  0  0  0  0  0  0  0
    8.2232   48.8635  128.5241 C   0  0  0  0  0  0  0  0  0  0  0  0
    7.2891   49.4629  129.3764 C   0  0  0  0  0  0  0  0  0  0  0  0
    6.5590   50.5439  128.9061 O   0  0  0  0  0  0  0  0  0  0  0  0
    7.1485   48.9390  130.6428 C   0  0  0  0  0  0  0  0  0  0  0  0
    7.9016   47.8468  131.0879 C   0  0  0  0  0  0  0  0  0  0  0  0
    8.8061   47.2801  130.2421 C   0  0  0  0  0  0  0  0  0  0  0  0
    5.6606   50.3745  128.4357 H   0  0  0  0  0  0  0  0  0  0  0  0
    9.5730   46.3136  135.1370 C   0  0  0  0  0  0  0  0  0  0  0  0
    8.6604   45.5589  134.4222 C   0  0  0  0  0  0  0  0  0  0  0  0
    8.6640   45.5468  133.0582 C   0  0  0  0  0  0  0  0  0  0  0  0
    9.5791   46.2871  132.3031 C   0  0  0  0  0  0  0  0  0  0  0  0
   10.4887   47.0379  133.0020 C   0  0  0  0  0  0  0  0  0  0  0  0
   10.4658   47.0345  134.3752 C   0  0  0  0  0  0  0  0  0  0  0  0
   10.0729   45.2373  137.2682 C   0  0  0  0  0  0  0  0  0  0  0  0
    9.5875   46.3429  136.5317 O   0  0  0  0  0  0  0  0  0  0  0  0
   10.7326   44.1564  130.9734 C   0  0  0  0  0  0  0  0  0  0  0  0
   11.9690   44.3895  131.4872 C   0  0  0  0  0  0  0  0  0  0  0  0
   12.6260   43.4104  132.2497 C   0  0  0  0  0  0  0  0  0  0  0  0
   11.9743   42.2163  132.4526 C   0  0  0  0  0  0  0  0  0  0  0  0
   10.7269   41.9710  131.9369 C   0  0  0  0  0  0  0  0  0  0  0  0
   10.1033   42.9446  131.1946 C   0  0  0  0  0  0  0  0  0  0  0  0
 20 21  1  0  0  0
 21 14  1  0  0  0
 14 15  2  0  0  0
 15 16  1  0  0  0
 16 17  2  0  0  0
 17 18  1  0  0  0
 18 19  2  0  0  0
 17  1  1  0  0  0
  1  2  2  0  0  0
  2  3  1  0  0  0
  3  4  1  0  0  0
  4  5  1  0  0  0
  5  6  1  0  0  0
  6  7  2  0  0  0
  7  8  1  0  0  0
  8  9  1  0  0  0
  8 10  2  0  0  0
 10 11  1  0  0  0
 11 12  2  0  0  0
  2 22  1  0  0  0
 22 23  2  0  0  0
 23 24  1  0  0  0
 24 25  2  0  0  0
 25 26  1  0  0  0
 26 27  2  0  0  0
 19 14  1  0  0  0
 12  1  1  0  0  0
 27 22  1  0  0  0
 12  6  1  0  0  0
  9 13  1  0  0  0
M  END
> <minimizedAffinity>
-0.71343

> <CNNscore>
0.4431650043

> <CNNaffinity>
7.8260231018

> <CNN_VS>
3.4682195187

> <CNNaffinity_variance>
2.0344655514

$$$$
[H]Oc1c([H])c([H])c2c(c1[H])C([H])([H])C([H])([H])C([H])([H])C(c1c([H])c([H])c([H])c([H])c1[H])=C2c1c([H])c([H])c(OC([H])([H])[H])c([H])c1[H]


 27 30  0  0  0  0  0  0  0  0999 V2000
    9.4972   45.9025  131.0710 C   0  0  0  0  0  0  0  0  0  0  0  0
   10.4962   45.1278  130.7290 C   0  0  0  0  0  0  0  0  0  0  0  0
   11.0004   44.6404  129.4003 C   0  0  0  0  0  0  0  0  0  0  0  0
   10.2799   45.0523  128.2042 C   0  0  0  0  0  0  0  0  0  0  0  0
   10.0872   46.5528  128.0425 C   0  0  0  0  0  0  0  0  0  0  0  0
    8.7914   46.8182  128.7634 C   0  0  0  0  0  0  0  0  0  0  0  0
    7.8143   47.3739  127.9897 C   0  0  0  0  0  0  0  0  0  0  0  0
    6.5478   47.6247  128.5295 C   0  0  0  0  0  0  0  0  0  0  0  0
    5.5789   48.1905  127.7146 O   0  0  0  0  0  0  0  0  0  0  0  0
    6.3364   47.2914  129.8493 C   0  0  0  0  0  0  0  0  0  0  0  0
    7.3360   46.7219  130.6460 C   0  0  0  0  0  0  0  0  0  0  0  0
    8.5617   46.4881  130.1004 C   0  0  0  0  0  0  0  0  0  0  0  0
    4.9598   47.5750  127.1716 H   0  0  0  0  0  0  0  0  0  0  0  0
    8.4974   47.2094  135.0149 C   0  0  0  0  0  0  0  0  0  0  0  0
    9.0959   48.0324  134.0780 C   0  0  0  0  0  0  0  0  0  0  0  0
    9.4155   47.5750  132.8334 C   0  0  0  0  0  0  0  0  0  0  0  0
    9.1619   46.2607  132.4283 C   0  0  0  0  0  0  0  0  0  0  0  0
    8.5679   45.4368  133.3493 C   0  0  0  0  0  0  0  0  0  0  0  0
    8.2554   45.9196  134.5964 C   0  0  0  0  0  0  0  0  0  0  0  0
    7.4267   48.8492  136.4692 C   0  0  0  0  0  0  0  0  0  0  0  0
    8.1630   47.6544  136.2941 O   0  0  0  0  0  0  0  0  0  0  0  0
   11.3454   44.6773  131.8254 C   0  0  0  0  0  0  0  0  0  0  0  0
   12.0493   45.5444  132.6000 C   0  0  0  0  0  0  0  0  0  0  0  0
   12.8491   45.0776  133.6554 C   0  0  0  0  0  0  0  0  0  0  0  0
   12.8923   43.7199  133.8709 C   0  0  0  0  0  0  0  0  0  0  0  0
   12.1867   42.8366  133.0936 C   0  0  0  0  0  0  0  0  0  0  0  0
   11.4101   43.3169  132.0670 C   0  0  0  0  0  0  0  0  0  0  0  0
 20 21  1  0  0  0
 21 14  1  0  0  0
 14 15  2  0  0  0
 15 16  1  0  0  0
 16 17  2  0  0  0
 17 18  1  0  0  0
 18 19  2  0  0  0
 17  1  1  0  0  0
  1  2  2  0  0  0
  2  3  1  0  0  0
  3  4  1  0  0  0
  4  5  1  0  0  0
  5  6  1  0  0  0
  6  7  2  0  0  0
  7  8  1  0  0  0
  8  9  1  0  0  0
  8 10  2  0  0  0
 10 11  1  0  0  0
 11 12  2  0  0  0
  2 22  1  0  0  0
 22 23  2  0  0  0
 23 24  1  0  0  0
 24 25  2  0  0  0
 25 26  1  0  0  0
 26 27  2  0  0  0
 19 14  1  0  0  0
 12  1  1  0  0  0
 27 22  1  0  0  0
 12  6  1  0  0  0
  9 13  1  0  0  0
M  END
> <minimizedAffinity>
-0.23725

> <CNNscore>
0.4227102697

> <CNNaffinity>
7.4862074852

> <CNN_VS>
3.1644968987

> <CNNaffinity_variance>
0.8158040047

$$$$
[H]Oc1c([H])c([H])c2c(c1[H])C([H])([H])C([H])([H])C([H])([H])C(c1c([H])c([H])c([H])c([H])c1[H])=C2c1c([H])c([H])c(OC([H])([H])[H])c([H])c1[H]


 27 30  0  0  0  0  0  0  0  0999 V2000
    9.6076   45.7436  131.1630 C   0  0  0  0  0  0  0  0  0  0  0  0
    9.1505   46.9708  131.1809 C   0  0  0  0  0  0  0  0  0  0  0  0
    8.4743   47.8225  130.1442 C   0  0  0  0  0  0  0  0  0  0  0  0
    8.2622   47.2494  128.8228 C   0  0  0  0  0  0  0  0  0  0  0  0
    7.5278   45.9173  128.7993 C   0  0  0  0  0  0  0  0  0  0  0  0
    8.6365   44.9050  128.9234 C   0  0  0  0  0  0  0  0  0  0  0  0
    8.7153   44.0188  127.8888 C   0  0  0  0  0  0  0  0  0  0  0  0
    9.7327   43.0583  127.8618 C   0  0  0  0  0  0  0  0  0  0  0  0
    9.7823   42.1735  126.7953 O   0  0  0  0  0  0  0  0  0  0  0  0
   10.6326   43.0488  128.9048 C   0  0  0  0  0  0  0  0  0  0  0  0
   10.5548   43.9556  129.9678 C   0  0  0  0  0  0  0  0  0  0  0  0
    9.5554   44.8807  129.9743 C   0  0  0  0  0  0  0  0  0  0  0  0
   10.3285   42.4249  125.9613 H   0  0  0  0  0  0  0  0  0  0  0  0
   11.6365   44.0065  134.4989 C   0  0  0  0  0  0  0  0  0  0  0  0
   12.1881   45.0079  133.7202 C   0  0  0  0  0  0  0  0  0  0  0  0
   11.5166   45.5271  132.6525 C   0  0  0  0  0  0  0  0  0  0  0  0
   10.2427   45.0866  132.2801 C   0  0  0  0  0  0  0  0  0  0  0  0
    9.6865   44.0947  133.0459 C   0  0  0  0  0  0  0  0  0  0  0  0
   10.3815   43.5872  134.1162 C   0  0  0  0  0  0  0  0  0  0  0  0
   11.6069   43.1693  136.7898 C   0  0  0  0  0  0  0  0  0  0  0  0
   12.3048   43.4593  135.5943 O   0  0  0  0  0  0  0  0  0  0  0  0
    9.2470   47.6582  132.4631 C   0  0  0  0  0  0  0  0  0  0  0  0
    8.6026   47.2132  133.5740 C   0  0  0  0  0  0  0  0  0  0  0  0
    8.7260   47.8930  134.7963 C   0  0  0  0  0  0  0  0  0  0  0  0
    9.5170   49.0180  134.8236 C   0  0  0  0  0  0  0  0  0  0  0  0
   10.1701   49.4758  133.7075 C   0  0  0  0  0  0  0  0  0  0  0  0
   10.0350   48.7935  132.5226 C   0  0  0  0  0  0  0  0  0  0  0  0
 20 21  1  0  0  0
 21 14  1  0  0  0
 14 15  2  0  0  0
 15 16  1  0  0  0
 16 17  2  0  0  0
 17 18  1  0  0  0
 18 19  2  0  0  0
 17  1  1  0  0  0
  1  2  2  0  0  0
  2  3  1  0  0  0
  3  4  1  0  0  0
  4  5  1  0  0  0
  5  6  1  0  0  0
  6  7  2  0  0  0
  7  8  1  0  0  0
  8  9  1  0  0  0
  8 10  2  0  0  0
 10 11  1  0  0  0
 11 12  2  0  0  0
  2 22  1  0  0  0
 22 23  2  0  0  0
 23 24  1  0  0  0
 24 25  2  0  0  0
 25 26  1  0  0  0
 26 27  2  0  0  0
 19 14  1  0  0  0
 12  1  1  0  0  0
 27 22  1  0  0  0
 12  6  1  0  0  0
  9 13  1  0  0  0
M  END
> <minimizedAffinity>
3.28566

> <CNNscore>
0.4111226201

> <CNNaffinity>
7.5997362137

> <CNN_VS>
3.1244235039

> <CNNaffinity_variance>
2.2104594707

$$$$
[H]Oc1c([H])c([H])c2c(c1[H])C([H])([H])C([H])([H])C([H])([H])C(c1c([H])c([H])c([H])c([H])c1[H])=C2c1c([H])c([H])c(OC([H])([H])[H])c([H])c1[H]


 27 30  0  0  0  0  0  0  0  0999 V2000
    9.3786   43.8790  131.2900 C   0  0  0  0  0  0  0  0  0  0  0  0
    9.8745   43.4740  130.1475 C   0  0  0  0  0  0  0  0  0  0  0  0
    9.7459   42.1903  129.3776 C   0  0  0  0  0  0  0  0  0  0  0  0
    8.9393   41.1253  129.9563 C   0  0  0  0  0  0  0  0  0  0  0  0
    7.5197   41.5161  130.3390 C   0  0  0  0  0  0  0  0  0  0  0  0
    7.6626   42.0080  131.7556 C   0  0  0  0  0  0  0  0  0  0  0  0
    6.9142   41.3276  132.6716 C   0  0  0  0  0  0  0  0  0  0  0  0
    6.9953   41.6564  134.0294 C   0  0  0  0  0  0  0  0  0  0  0  0
    6.2203   40.9444  134.9324 O   0  0  0  0  0  0  0  0  0  0  0  0
    7.8476   42.6763  134.3919 C   0  0  0  0  0  0  0  0  0  0  0  0
    8.6163   43.3766  133.4554 C   0  0  0  0  0  0  0  0  0  0  0  0
    8.5203   43.0408  132.1391 C   0  0  0  0  0  0  0  0  0  0  0  0
    6.6072   40.0948  135.3631 H   0  0  0  0  0  0  0  0  0  0  0  0
    9.8521   47.7504  133.0364 C   0  0  0  0  0  0  0  0  0  0  0  0
    8.7435   47.3910  132.2913 C   0  0  0  0  0  0  0  0  0  0  0  0
    8.6348   46.1502  131.7352 C   0  0  0  0  0  0  0  0  0  0  0  0
    9.6244   45.1728  131.8804 C   0  0  0  0  0  0  0  0  0  0  0  0
   10.7271   45.5186  132.6181 C   0  0  0  0  0  0  0  0  0  0  0  0
   10.8145   46.7739  133.1683 C   0  0  0  0  0  0  0  0  0  0  0  0
    9.7598   50.1806  132.8471 C   0  0  0  0  0  0  0  0  0  0  0  0
    9.9860   49.0135  133.6133 O   0  0  0  0  0  0  0  0  0  0  0  0
   10.6666   44.4600  129.4220 C   0  0  0  0  0  0  0  0  0  0  0  0
   10.0955   45.4802  128.7290 C   0  0  0  0  0  0  0  0  0  0  0  0
   10.8883   46.4195  128.0502 C   0  0  0  0  0  0  0  0  0  0  0  0
   12.2537   46.2661  128.1131 C   0  0  0  0  0  0  0  0  0  0  0  0
   12.8395   45.2388  128.8086 C   0  0  0  0  0  0  0  0  0  0  0  0
   12.0432   44.3323  129.4658 C   0  0  0  0  0  0  0  0  0  0  0  0
 20 21  1  0  0  0
 21 14  1  0  0  0
 14 15  2  0  0  0
 15 16  1  0  0  0
 16 17  2  0  0  0
 17 18  1  0  0  0
 18 19  2  0  0  0
 17  1  1  0  0  0
  1  2  2  0  0  0
  2  3  1  0  0  0
  3  4  1  0  0  0
  4  5  1  0  0  0
  5  6  1  0  0  0
  6  7  2  0  0  0
  7  8  1  0  0  0
  8  9  1  0  0  0
  8 10  2  0  0  0
 10 11  1  0  0  0
 11 12  2  0  0  0
  2 22  1  0  0  0
 22 23  2  0  0  0
 23 24  1  0  0  0
 24 25  2  0  0  0
 25 26  1  0  0  0
 26 27  2  0  0  0
 19 14  1  0  0  0
 12  1  1  0  0  0
 27 22  1  0  0  0
 12  6  1  0  0  0
  9 13  1  0  0  0
M  END
> <minimizedAffinity>
13.01356

> <CNNscore>
0.3826161921

> <CNNaffinity>
6.7805199623

> <CNN_VS>
2.5943367481

> <CNNaffinity_variance>
0.9059159160

$$$$
[H]Oc1c([H])c([H])c(C2=C(SC([H])([H])[H])c3c(O[H])c([H])c(O[H])c([H])c3C2=O)c([H])c1[H]


 24 26  0  0  0  0  0  0  0  0999 V2000
    8.4766   46.4695  130.1822 C   0  0  0  0  0  0  0  0  0  0  0  0
    9.5824   46.6136  130.9747 C   0  0  0  0  0  0  0  0  0  0  0  0
    9.7111   48.0270  131.2150 C   0  0  0  0  0  0  0  0  0  0  0  0
   10.5820   48.6404  131.8943 O   0  0  0  0  0  0  0  0  0  0  0  0
    8.6420   48.7392  130.5359 C   0  0  0  0  0  0  0  0  0  0  0  0
    8.3010   50.0631  130.4524 C   0  0  0  0  0  0  0  0  0  0  0  0
    7.1983   50.5014  129.7449 C   0  0  0  0  0  0  0  0  0  0  0  0
    6.8538   51.8423  129.6595 O   0  0  0  0  0  0  0  0  0  0  0  0
    6.4568   49.5479  129.1284 C   0  0  0  0  0  0  0  0  0  0  0  0
    6.7572   48.2014  129.1809 C   0  0  0  0  0  0  0  0  0  0  0  0
    5.9599   47.2914  128.5399 O   0  0  0  0  0  0  0  0  0  0  0  0
    7.8769   47.7512  129.8944 C   0  0  0  0  0  0  0  0  0  0  0  0
    6.2266   52.2036  130.3787 H   0  0  0  0  0  0  0  0  0  0  0  0
    5.1565   47.6180  128.0279 H   0  0  0  0  0  0  0  0  0  0  0  0
   10.4737   45.5914  131.4753 C   0  0  0  0  0  0  0  0  0  0  0  0
   10.1879   44.8666  132.6372 C   0  0  0  0  0  0  0  0  0  0  0  0
   11.0517   43.9074  133.1116 C   0  0  0  0  0  0  0  0  0  0  0  0
   12.2358   43.6162  132.4670 C   0  0  0  0  0  0  0  0  0  0  0  0
   13.1004   42.6426  132.9585 O   0  0  0  0  0  0  0  0  0  0  0  0
   12.5356   44.3145  131.3273 C   0  0  0  0  0  0  0  0  0  0  0  0
   11.6566   45.2935  130.8409 C   0  0  0  0  0  0  0  0  0  0  0  0
   12.8562   42.1352  133.8085 H   0  0  0  0  0  0  0  0  0  0  0  0
    9.1335   43.8003  128.9192 C   0  0  0  0  0  0  0  0  0  0  0  0
    7.9745   44.8783  129.6474 S   0  0  0  0  0  0  0  0  0  0  0  0
 23 24  1  0  0  0
 24  1  1  0  0  0
  1  2  2  0  0  0
  2  3  1  0  0  0
  3  4  2  0  0  0
  3  5  1  0  0  0
  5  6  2  0  0  0
  6  7  1  0  0  0
  7  8  1  0  0  0
  7  9  2  0  0  0
  9 10  1  0  0  0
 10 11  1  0  0  0
 10 12  2  0  0  0
  2 15  1  0  0  0
 15 16  2  0  0  0
 16 17  1  0  0  0
 17 18  2  0  0  0
 18 19  1  0  0  0
 18 20  1  0  0  0
 20 21  2  0  0  0
 12  1  1  0  0  0
 21 15  1  0  0  0
 12  5  1  0  0  0
  8 13  1  0  0  0
 11 14  1  0  0  0
 19 22  1  0  0  0
M  END
> <minimizedAffinity>
-9.01708

> <CNNscore>
0.8512017727

> <CNNaffinity>
7.2160582542

> <CNN_VS>
6.1423215866

> <CNNaffinity_variance>
0.6125880480

$$$$
[H]Oc1c([H])c([H])c(C2=C(SC([H])([H])[H])c3c(O[H])c([H])c(O[H])c([H])c3C2=O)c([H])c1[H]


 24 26  0  0  0  0  0  0  0  0999 V2000
    8.5298   46.4597  130.5470 C   0  0  0  0  0  0  0  0  0  0  0  0
    9.6003   46.7874  131.3332 C   0  0  0  0  0  0  0  0  0  0  0  0
    9.6818   48.2243  131.3056 C   0  0  0  0  0  0  0  0  0  0  0  0
   10.5093   48.9835  131.8843 O   0  0  0  0  0  0  0  0  0  0  0  0
    8.6205   48.7596  130.4697 C   0  0  0  0  0  0  0  0  0  0  0  0
    8.2475   50.0319  130.1262 C   0  0  0  0  0  0  0  0  0  0  0  0
    7.1611   50.2920  129.3133 C   0  0  0  0  0  0  0  0  0  0  0  0
    6.7842   51.5805  128.9645 O   0  0  0  0  0  0  0  0  0  0  0  0
    6.4696   49.2150  128.8647 C   0  0  0  0  0  0  0  0  0  0  0  0
    6.8039   47.9134  129.1809 C   0  0  0  0  0  0  0  0  0  0  0  0
    6.0563   46.8728  128.6983 O   0  0  0  0  0  0  0  0  0  0  0  0
    7.9073   47.6434  130.0025 C   0  0  0  0  0  0  0  0  0  0  0  0
    6.1206   52.0494  129.5816 H   0  0  0  0  0  0  0  0  0  0  0  0
    5.2645   47.0699  128.1081 H   0  0  0  0  0  0  0  0  0  0  0  0
   10.4992   45.9082  132.0468 C   0  0  0  0  0  0  0  0  0  0  0  0
   11.6054   45.3199  131.4246 C   0  0  0  0  0  0  0  0  0  0  0  0
   12.4442   44.4729  132.1105 C   0  0  0  0  0  0  0  0  0  0  0  0
   12.2349   44.1647  133.4385 C   0  0  0  0  0  0  0  0  0  0  0  0
   13.0922   43.3060  134.1201 O   0  0  0  0  0  0  0  0  0  0  0  0
   11.1570   44.7298  134.0672 C   0  0  0  0  0  0  0  0  0  0  0  0
   10.2996   45.5941  133.3703 C   0  0  0  0  0  0  0  0  0  0  0  0
   13.8885   42.8973  133.6318 H   0  0  0  0  0  0  0  0  0  0  0  0
    8.9062   43.8344  129.0917 C   0  0  0  0  0  0  0  0  0  0  0  0
    8.0914   44.7802  130.3071 S   0  0  0  0  0  0  0  0  0  0  0  0
 23 24  1  0  0  0
 24  1  1  0  0  0
  1  2  2  0  0  0
  2  3  1  0  0  0
  3  4  2  0  0  0
  3  5  1  0  0  0
  5  6  2  0  0  0
  6  7  1  0  0  0
  7  8  1  0  0  0
  7  9  2  0  0  0
  9 10  1  0  0  0
 10 11  1  0  0  0
 10 12  2  0  0  0
  2 15  1  0  0  0
 15 16  2  0  0  0
 16 17  1  0  0  0
 17 18  2  0  0  0
 18 19  1  0  0  0
 18 20  1  0  0  0
 20 21  2  0  0  0
 12  1  1  0  0  0
 21 15  1  0  0  0
 12  5  1  0  0  0
  8 13  1  0  0  0
 11 14  1  0  0  0
 19 22  1  0  0  0
M  END
> <minimizedAffinity>
-9.33777

> <CNNscore>
0.7912128568

> <CNNaffinity>
7.2204146385

> <CNN_VS>
5.7128849030

> <CNNaffinity_variance>
0.9113496542

$$$$
[H]Oc1c([H])c([H])c(C2=C(SC([H])([H])[H])c3c(O[H])c([H])c(O[H])c([H])c3C2=O)c([H])c1[H]


 24 26  0  0  0  0  0  0  0  0999 V2000
   10.1947   46.0539  130.8642 C   0  0  0  0  0  0  0  0  0  0  0  0
    9.4202   47.0450  131.4022 C   0  0  0  0  0  0  0  0  0  0  0  0
    9.4337   46.8244  132.8246 C   0  0  0  0  0  0  0  0  0  0  0  0
    8.8615   47.4866  133.7358 O   0  0  0  0  0  0  0  0  0  0  0  0
   10.2447   45.6586  133.1325 C   0  0  0  0  0  0  0  0  0  0  0  0
   10.5903   45.0382  134.3036 C   0  0  0  0  0  0  0  0  0  0  0  0
   11.4129   43.9288  134.3400 C   0  0  0  0  0  0  0  0  0  0  0  0
   11.7618   43.2998  135.5260 O   0  0  0  0  0  0  0  0  0  0  0  0
   11.8705   43.4754  133.1466 C   0  0  0  0  0  0  0  0  0  0  0  0
   11.5519   44.0637  131.9390 C   0  0  0  0  0  0  0  0  0  0  0  0
   12.0558   43.5571  130.7710 O   0  0  0  0  0  0  0  0  0  0  0  0
   10.7149   45.1875  131.8956 C   0  0  0  0  0  0  0  0  0  0  0  0
   12.6053   43.6331  135.9934 H   0  0  0  0  0  0  0  0  0  0  0  0
   12.6566   42.7495  130.8054 H   0  0  0  0  0  0  0  0  0  0  0  0
    8.7056   48.1019  130.7224 C   0  0  0  0  0  0  0  0  0  0  0  0
    7.7938   47.8350  129.6955 C   0  0  0  0  0  0  0  0  0  0  0  0
    7.1318   48.8505  129.0460 C   0  0  0  0  0  0  0  0  0  0  0  0
    7.3351   50.1744  129.3749 C   0  0  0  0  0  0  0  0  0  0  0  0
    6.6579   51.1919  128.7091 O   0  0  0  0  0  0  0  0  0  0  0  0
    8.2242   50.4584  130.3775 C   0  0  0  0  0  0  0  0  0  0  0  0
    8.9010   49.4247  131.0419 C   0  0  0  0  0  0  0  0  0  0  0  0
    6.0004   50.9568  127.9661 H   0  0  0  0  0  0  0  0  0  0  0  0
   10.1924   44.4438  128.3031 C   0  0  0  0  0  0  0  0  0  0  0  0
   10.4288   45.9590  129.1302 S   0  0  0  0  0  0  0  0  0  0  0  0
 23 24  1  0  0  0
 24  1  1  0  0  0
  1  2  2  0  0  0
  2  3  1  0  0  0
  3  4  2  0  0  0
  3  5  1  0  0  0
  5  6  2  0  0  0
  6  7  1  0  0  0
  7  8  1  0  0  0
  7  9  2  0  0  0
  9 10  1  0  0  0
 10 11  1  0  0  0
 10 12  2  0  0  0
  2 15  1  0  0  0
 15 16  2  0  0  0
 16 17  1  0  0  0
 17 18  2  0  0  0
 18 19  1  0  0  0
 18 20  1  0  0  0
 20 21  2  0  0  0
 12  1  1  0  0  0
 21 15  1  0  0  0
 12  5  1  0  0  0
  8 13  1  0  0  0
 11 14  1  0  0  0
 19 22  1  0  0  0
M  END
> <minimizedAffinity>
-8.57219

> <CNNscore>
0.7430791259

> <CNNaffinity>
7.0505232811

> <CNN_VS>
5.2390966415

> <CNNaffinity_variance>
0.5530015230

$$$$
[H]Oc1c([H])c([H])c(C2=C(SC([H])([H])[H])c3c(O[H])c([H])c(O[H])c([H])c3C2=O)c([H])c1[H]


 24 26  0  0  0  0  0  0  0  0999 V2000
    9.3205   46.4244  132.3006 C   0  0  0  0  0  0  0  0  0  0  0  0
    8.9273   46.6286  131.0062 C   0  0  0  0  0  0  0  0  0  0  0  0
    9.2345   45.4090  130.3061 C   0  0  0  0  0  0  0  0  0  0  0  0
    9.0493   45.1242  129.0893 O   0  0  0  0  0  0  0  0  0  0  0  0
    9.8326   44.4541  131.2237 C   0  0  0  0  0  0  0  0  0  0  0  0
   10.2851   43.1696  131.0787 C   0  0  0  0  0  0  0  0  0  0  0  0
   10.8051   42.4433  132.1327 C   0  0  0  0  0  0  0  0  0  0  0  0
   11.2645   41.1428  131.9854 O   0  0  0  0  0  0  0  0  0  0  0  0
   10.8470   43.0681  133.3356 C   0  0  0  0  0  0  0  0  0  0  0  0
   10.4045   44.3606  133.5349 C   0  0  0  0  0  0  0  0  0  0  0  0
   10.4699   44.9277  134.7794 O   0  0  0  0  0  0  0  0  0  0  0  0
    9.8792   45.1035  132.4684 C   0  0  0  0  0  0  0  0  0  0  0  0
   10.5852   40.3952  132.1290 H   0  0  0  0  0  0  0  0  0  0  0  0
   10.8482   44.3916  135.5435 H   0  0  0  0  0  0  0  0  0  0  0  0
    8.3388   47.8104  130.4172 C   0  0  0  0  0  0  0  0  0  0  0  0
    7.0659   47.7907  129.8370 C   0  0  0  0  0  0  0  0  0  0  0  0
    6.5235   48.9182  129.2660 C   0  0  0  0  0  0  0  0  0  0  0  0
    7.2062   50.1163  129.2384 C   0  0  0  0  0  0  0  0  0  0  0  0
    6.6447   51.2495  128.6573 O   0  0  0  0  0  0  0  0  0  0  0  0
    8.4546   50.1578  129.8007 C   0  0  0  0  0  0  0  0  0  0  0  0
    9.0106   49.0095  130.3839 C   0  0  0  0  0  0  0  0  0  0  0  0
    5.7137   51.1952  128.2451 H   0  0  0  0  0  0  0  0  0  0  0  0
   10.2257   49.0438  133.5133 C   0  0  0  0  0  0  0  0  0  0  0  0
    9.1254   47.6930  133.4935 S   0  0  0  0  0  0  0  0  0  0  0  0
 23 24  1  0  0  0
 24  1  1  0  0  0
  1  2  2  0  0  0
  2  3  1  0  0  0
  3  4  2  0  0  0
  3  5  1  0  0  0
  5  6  2  0  0  0
  6  7  1  0  0  0
  7  8  1  0  0  0
  7  9  2  0  0  0
  9 10  1  0  0  0
 10 11  1  0  0  0
 10 12  2  0  0  0
  2 15  1  0  0  0
 15 16  2  0  0  0
 16 17  1  0  0  0
 17 18  2  0  0  0
 18 19  1  0  0  0
 18 20  1  0  0  0
 20 21  2  0  0  0
 12  1  1  0  0  0
 21 15  1  0  0  0
 12  5  1  0  0  0
  8 13  1  0  0  0
 11 14  1  0  0  0
 19 22  1  0  0  0
M  END
> <minimizedAffinity>
-7.77266

> <CNNscore>
0.6210976839

> <CNNaffinity>
7.0272188187

> <CNN_VS>
4.3645892143

> <CNNaffinity_variance>
0.9027346373

$$$$
[H]Oc1c([H])c([H])c(C2=C(SC([H])([H])[H])c3c(O[H])c([H])c(O[H])c([H])c3C2=O)c([H])c1[H]


 24 26  0  0  0  0  0  0  0  0999 V2000
    9.3493   46.4043  132.2809 C   0  0  0  0  0  0  0  0  0  0  0  0
    8.9518   46.6025  130.9869 C   0  0  0  0  0  0  0  0  0  0  0  0
    9.2622   45.3817  130.2902 C   0  0  0  0  0  0  0  0  0  0  0  0
    9.0749   45.0920  129.0748 O   0  0  0  0  0  0  0  0  0  0  0  0
    9.8667   44.4325  131.2094 C   0  0  0  0  0  0  0  0  0  0  0  0
   10.3243   43.1494  131.0675 C   0  0  0  0  0  0  0  0  0  0  0  0
   10.8501   42.4289  132.1226 C   0  0  0  0  0  0  0  0  0  0  0  0
   11.3146   41.1299  131.9785 O   0  0  0  0  0  0  0  0  0  0  0  0
   10.8927   43.0580  133.3233 C   0  0  0  0  0  0  0  0  0  0  0  0
   10.4453   44.3493  133.5194 C   0  0  0  0  0  0  0  0  0  0  0  0
   10.5116   44.9209  134.7617 O   0  0  0  0  0  0  0  0  0  0  0  0
    9.9140   45.0864  132.4517 C   0  0  0  0  0  0  0  0  0  0  0  0
   10.6388   40.3799  132.1265 H   0  0  0  0  0  0  0  0  0  0  0  0
   10.8942   44.3890  135.5266 H   0  0  0  0  0  0  0  0  0  0  0  0
    8.3567   47.7797  130.3954 C   0  0  0  0  0  0  0  0  0  0  0  0
    9.0463   48.9942  130.3138 C   0  0  0  0  0  0  0  0  0  0  0  0
    8.4633   50.1112  129.7628 C   0  0  0  0  0  0  0  0  0  0  0  0
    7.1765   50.0868  129.2668 C   0  0  0  0  0  0  0  0  0  0  0  0
    6.5993   51.2251  128.7116 O   0  0  0  0  0  0  0  0  0  0  0  0
    6.4829   48.9077  129.3370 C   0  0  0  0  0  0  0  0  0  0  0  0
    7.0748   47.7666  129.8986 C   0  0  0  0  0  0  0  0  0  0  0  0
    7.1347   52.0918  128.6696 H   0  0  0  0  0  0  0  0  0  0  0  0
   10.2501   49.0289  133.4858 C   0  0  0  0  0  0  0  0  0  0  0  0
    9.1521   47.6761  133.4700 S   0  0  0  0  0  0  0  0  0  0  0  0
 23 24  1  0  0  0
 24  1  1  0  0  0
  1  2  2  0  0  0
  2  3  1  0  0  0
  3  4  2  0  0  0
  3  5  1  0  0  0
  5  6  2  0  0  0
  6  7  1  0  0  0
  7  8  1  0  0  0
  7  9  2  0  0  0
  9 10  1  0  0  0
 10 11  1  0  0  0
 10 12  2  0  0  0
  2 15  1  0  0  0
 15 16  2  0  0  0
 16 17  1  0  0  0
 17 18  2  0  0  0
 18 19  1  0  0  0
 18 20  1  0  0  0
 20 21  2  0  0  0
 12  1  1  0  0  0
 21 15  1  0  0  0
 12  5  1  0  0  0
  8 13  1  0  0  0
 11 14  1  0  0  0
 19 22  1  0  0  0
M  END
> <minimizedAffinity>
-7.76318

> <CNNscore>
0.6142677665

> <CNNaffinity>
7.0461206436

> <CNN_VS>
4.3282046318

> <CNNaffinity_variance>
0.9526455998

$$$$
[H]Oc1c([H])c([H])c(C2=C(SC([H])([H])[H])c3c(O[H])c([H])c(O[H])c([H])c3C2=O)c([H])c1[H]


 24 26  0  0  0  0  0  0  0  0999 V2000
    9.6128   47.3475  131.7446 C   0  0  0  0  0  0  0  0  0  0  0  0
    9.4205   46.2058  131.0157 C   0  0  0  0  0  0  0  0  0  0  0  0
    8.6215   46.5938  129.8830 C   0  0  0  0  0  0  0  0  0  0  0  0
    8.1933   45.8804  128.9323 O   0  0  0  0  0  0  0  0  0  0  0  0
    8.3320   48.0161  129.9511 C   0  0  0  0  0  0  0  0  0  0  0  0
    7.6399   48.8733  129.1375 C   0  0  0  0  0  0  0  0  0  0  0  0
    7.5205   50.2220  129.4120 C   0  0  0  0  0  0  0  0  0  0  0  0
    6.8185   51.0898  128.5885 O   0  0  0  0  0  0  0  0  0  0  0  0
    8.1293   50.6662  130.5396 C   0  0  0  0  0  0  0  0  0  0  0  0
    8.8381   49.8444  131.3929 C   0  0  0  0  0  0  0  0  0  0  0  0
    9.4344   50.3618  132.5116 O   0  0  0  0  0  0  0  0  0  0  0  0
    8.9596   48.4744  131.1212 C   0  0  0  0  0  0  0  0  0  0  0  0
    7.3446   51.5416  127.8401 H   0  0  0  0  0  0  0  0  0  0  0  0
    9.3450   51.3463  132.7042 H   0  0  0  0  0  0  0  0  0  0  0  0
    9.8880   44.8667  131.2953 C   0  0  0  0  0  0  0  0  0  0  0  0
    9.1376   43.9670  132.0598 C   0  0  0  0  0  0  0  0  0  0  0  0
    9.6006   42.7009  132.3317 C   0  0  0  0  0  0  0  0  0  0  0  0
   10.8217   42.2605  131.8656 C   0  0  0  0  0  0  0  0  0  0  0  0
   11.2776   40.9763  132.1485 O   0  0  0  0  0  0  0  0  0  0  0  0
   11.5732   43.1257  131.1152 C   0  0  0  0  0  0  0  0  0  0  0  0
   11.1037   44.4178  130.8362 C   0  0  0  0  0  0  0  0  0  0  0  0
   10.7009   40.3493  132.7088 H   0  0  0  0  0  0  0  0  0  0  0  0
    9.8734   46.5398  134.6483 C   0  0  0  0  0  0  0  0  0  0  0  0
   10.5407   47.3012  133.2303 S   0  0  0  0  0  0  0  0  0  0  0  0
 23 24  1  0  0  0
 24  1  1  0  0  0
  1  2  2  0  0  0
  2  3  1  0  0  0
  3  4  2  0  0  0
  3  5  1  0  0  0
  5  6  2  0  0  0
  6  7  1  0  0  0
  7  8  1  0  0  0
  7  9  2  0  0  0
  9 10  1  0  0  0
 10 11  1  0  0  0
 10 12  2  0  0  0
  2 15  1  0  0  0
 15 16  2  0  0  0
 16 17  1  0  0  0
 17 18  2  0  0  0
 18 19  1  0  0  0
 18 20  1  0  0  0
 20 21  2  0  0  0
 12  1  1  0  0  0
 21 15  1  0  0  0
 12  5  1  0  0  0
  8 13  1  0  0  0
 11 14  1  0  0  0
 19 22  1  0  0  0
M  END
> <minimizedAffinity>
-7.74068

> <CNNscore>
0.5617029071

> <CNNaffinity>
6.9113874435

> <CNN_VS>
3.8821463585

> <CNNaffinity_variance>
0.5603944063

$$$$
[H]Oc1c([H])c([H])c(C2=C(SC([H])([H])[H])c3c(O[H])c([H])c(O[H])c([H])c3C2=O)c([H])c1[H]


 24 26  0  0  0  0  0  0  0  0999 V2000
    9.6332   47.3614  131.7747 C   0  0  0  0  0  0  0  0  0  0  0  0
    9.4482   46.2139  131.0531 C   0  0  0  0  0  0  0  0  0  0  0  0
    8.6483   46.5900  129.9169 C   0  0  0  0  0  0  0  0  0  0  0  0
    8.2252   45.8680  128.9704 O   0  0  0  0  0  0  0  0  0  0  0  0
    8.3507   48.0111  129.9755 C   0  0  0  0  0  0  0  0  0  0  0  0
    7.6547   48.8590  129.1556 C   0  0  0  0  0  0  0  0  0  0  0  0
    7.5274   50.2088  129.4212 C   0  0  0  0  0  0  0  0  0  0  0  0
    6.8214   51.0672  128.5914 O   0  0  0  0  0  0  0  0  0  0  0  0
    8.1324   50.6637  130.5465 C   0  0  0  0  0  0  0  0  0  0  0  0
    8.8449   49.8515  131.4059 C   0  0  0  0  0  0  0  0  0  0  0  0
    9.4370   50.3795  132.5219 O   0  0  0  0  0  0  0  0  0  0  0  0
    8.9745   48.4804  131.1433 C   0  0  0  0  0  0  0  0  0  0  0  0
    7.3458   51.5172  127.8406 H   0  0  0  0  0  0  0  0  0  0  0  0
    9.3418   51.3647  132.7080 H   0  0  0  0  0  0  0  0  0  0  0  0
    9.9230   44.8793  131.3418 C   0  0  0  0  0  0  0  0  0  0  0  0
   11.1625   44.4209  130.8828 C   0  0  0  0  0  0  0  0  0  0  0  0
   11.5959   43.1437  131.1512 C   0  0  0  0  0  0  0  0  0  0  0  0
   10.8321   42.2581  131.8824 C   0  0  0  0  0  0  0  0  0  0  0  0
   11.2837   40.9684  132.1466 O   0  0  0  0  0  0  0  0  0  0  0  0
    9.6146   42.6863  132.3414 C   0  0  0  0  0  0  0  0  0  0  0  0
    9.1696   43.9885  132.0693 C   0  0  0  0  0  0  0  0  0  0  0  0
   12.1936   40.6716  131.7951 H   0  0  0  0  0  0  0  0  0  0  0  0
    9.9064   46.5505  134.6763 C   0  0  0  0  0  0  0  0  0  0  0  0
   10.5597   47.3299  133.2616 S   0  0  0  0  0  0  0  0  0  0  0  0
 23 24  1  0  0  0
 24  1  1  0  0  0
  1  2  2  0  0  0
  2  3  1  0  0  0
  3  4  2  0  0  0
  3  5  1  0  0  0
  5  6  2  0  0  0
  6  7  1  0  0  0
  7  8  1  0  0  0
  7  9  2  0  0  0
  9 10  1  0  0  0
 10 11  1  0  0  0
 10 12  2  0  0  0
  2 15  1  0  0  0
 15 16  2  0  0  0
 16 17  1  0  0  0
 17 18  2  0  0  0
 18 19  1  0  0  0
 18 20  1  0  0  0
 20 21  2  0  0  0
 12  1  1  0  0  0
 21 15  1  0  0  0
 12  5  1  0  0  0
  8 13  1  0  0  0
 11 14  1  0  0  0
 19 22  1  0  0  0
M  END
> <minimizedAffinity>
-7.69460

> <CNNscore>
0.5571517944

> <CNNaffinity>
6.9036207199

> <CNN_VS>
3.8463647366

> <CNNaffinity_variance>
0.5585295558

$$$$
[H]Oc1c([H])c([H])c(C2=C(SC([H])([H])[H])c3c(O[H])c([H])c(O[H])c([H])c3C2=O)c([H])c1[H]


 24 26  0  0  0  0  0  0  0  0999 V2000
    8.8490   47.8974  132.0257 C   0  0  0  0  0  0  0  0  0  0  0  0
    8.8939   49.2639  131.9773 C   0  0  0  0  0  0  0  0  0  0  0  0
    7.9838   49.6492  130.9308 C   0  0  0  0  0  0  0  0  0  0  0  0
    7.6902   50.8077  130.5211 O   0  0  0  0  0  0  0  0  0  0  0  0
    7.3843   48.4641  130.3413 C   0  0  0  0  0  0  0  0  0  0  0  0
    6.4642   48.2742  129.3446 C   0  0  0  0  0  0  0  0  0  0  0  0
    6.0255   47.0189  128.9700 C   0  0  0  0  0  0  0  0  0  0  0  0
    5.0946   46.8267  127.9598 O   0  0  0  0  0  0  0  0  0  0  0  0
    6.5537   45.9673  129.6441 C   0  0  0  0  0  0  0  0  0  0  0  0
    7.4834   46.1042  130.6555 C   0  0  0  0  0  0  0  0  0  0  0  0
    7.9699   44.9982  131.2993 O   0  0  0  0  0  0  0  0  0  0  0  0
    7.9348   47.3754  131.0374 C   0  0  0  0  0  0  0  0  0  0  0  0
    4.1120   46.8163  128.2346 H   0  0  0  0  0  0  0  0  0  0  0  0
    7.6439   44.0864  131.0225 H   0  0  0  0  0  0  0  0  0  0  0  0
    9.6866   50.1701  132.7776 C   0  0  0  0  0  0  0  0  0  0  0  0
   10.8285   49.7434  133.4639 C   0  0  0  0  0  0  0  0  0  0  0  0
   11.5653   50.6121  134.2345 C   0  0  0  0  0  0  0  0  0  0  0  0
   11.2143   51.9394  134.3666 C   0  0  0  0  0  0  0  0  0  0  0  0
   11.9696   52.8073  135.1498 O   0  0  0  0  0  0  0  0  0  0  0  0
   10.0992   52.3784  133.7033 C   0  0  0  0  0  0  0  0  0  0  0  0
    9.3455   51.4947  132.9165 C   0  0  0  0  0  0  0  0  0  0  0  0
   12.7961   52.4583  135.6342 H   0  0  0  0  0  0  0  0  0  0  0  0
   11.1765   46.0583  132.6191 C   0  0  0  0  0  0  0  0  0  0  0  0
    9.8366   47.0216  133.1781 S   0  0  0  0  0  0  0  0  0  0  0  0
 23 24  1  0  0  0
 24  1  1  0  0  0
  1  2  2  0  0  0
  2  3  1  0  0  0
  3  4  2  0  0  0
  3  5  1  0  0  0
  5  6  2  0  0  0
  6  7  1  0  0  0
  7  8  1  0  0  0
  7  9  2  0  0  0
  9 10  1  0  0  0
 10 11  1  0  0  0
 10 12  2  0  0  0
  2 15  1  0  0  0
 15 16  2  0  0  0
 16 17  1  0  0  0
 17 18  2  0  0  0
 18 19  1  0  0  0
 18 20  1  0  0  0
 20 21  2  0  0  0
 12  1  1  0  0  0
 21 15  1  0  0  0
 12  5  1  0  0  0
  8 13  1  0  0  0
 11 14  1  0  0  0
 19 22  1  0  0  0
M  END
> <minimizedAffinity>
20.09569

> <CNNscore>
0.4479415417

> <CNNaffinity>
6.1412267685

> <CNN_VS>
2.7509105206

> <CNNaffinity_variance>
1.8271169662

$$$$
[H]Oc1c([H])c([H])c(C2=C(SC([H])([H])[H])c3c(O[H])c([H])c(O[H])c([H])c3C2=O)c([H])c1[H]


 24 26  0  0  0  0  0  0  0  0999 V2000
    9.3078   42.3985  130.3026 C   0  0  0  0  0  0  0  0  0  0  0  0
    9.1746   43.6697  130.7903 C   0  0  0  0  0  0  0  0  0  0  0  0
    9.1962   43.5437  132.2241 C   0  0  0  0  0  0  0  0  0  0  0  0
    9.1062   44.4482  133.1016 O   0  0  0  0  0  0  0  0  0  0  0  0
    9.3452   42.1457  132.5914 C   0  0  0  0  0  0  0  0  0  0  0  0
    9.4347   41.4953  133.7934 C   0  0  0  0  0  0  0  0  0  0  0  0
    9.5989   40.1266  133.8852 C   0  0  0  0  0  0  0  0  0  0  0  0
    9.6883   39.4679  135.1026 O   0  0  0  0  0  0  0  0  0  0  0  0
    9.6697   39.4458  132.7144 C   0  0  0  0  0  0  0  0  0  0  0  0
    9.5847   40.0531  131.4775 C   0  0  0  0  0  0  0  0  0  0  0  0
    9.6712   39.3045  130.3344 O   0  0  0  0  0  0  0  0  0  0  0  0
    9.4145   41.4411  131.3782 C   0  0  0  0  0  0  0  0  0  0  0  0
   10.6219   39.3572  135.4992 H   0  0  0  0  0  0  0  0  0  0  0  0
    9.7931   38.3075  130.4090 H   0  0  0  0  0  0  0  0  0  0  0  0
    9.0237   44.9067  130.0575 C   0  0  0  0  0  0  0  0  0  0  0  0
    9.8751   45.9970  130.2657 C   0  0  0  0  0  0  0  0  0  0  0  0
    9.7114   47.1738  129.5732 C   0  0  0  0  0  0  0  0  0  0  0  0
    8.7040   47.3339  128.6448 C   0  0  0  0  0  0  0  0  0  0  0  0
    8.5503   48.5307  127.9511 O   0  0  0  0  0  0  0  0  0  0  0  0
    7.8584   46.2787  128.4255 C   0  0  0  0  0  0  0  0  0  0  0  0
    8.0228   45.0771  129.1304 C   0  0  0  0  0  0  0  0  0  0  0  0
    9.1919   49.3025  128.1304 H   0  0  0  0  0  0  0  0  0  0  0  0
    9.6642   43.4218  127.4782 C   0  0  0  0  0  0  0  0  0  0  0  0
    9.3176   42.1123  128.5739 S   0  0  0  0  0  0  0  0  0  0  0  0
 23 24  1  0  0  0
 24  1  1  0  0  0
  1  2  2  0  0  0
  2  3  1  0  0  0
  3  4  2  0  0  0
  3  5  1  0  0  0
  5  6  2  0  0  0
  6  7  1  0  0  0
  7  8  1  0  0  0
  7  9  2  0  0  0
  9 10  1  0  0  0
 10 11  1  0  0  0
 10 12  2  0  0  0
  2 15  1  0  0  0
 15 16  2  0  0  0
 16 17  1  0  0  0
 17 18  2  0  0  0
 18 19  1  0  0  0
 18 20  1  0  0  0
 20 21  2  0  0  0
 12  1  1  0  0  0
 21 15  1  0  0  0
 12  5  1  0  0  0
  8 13  1  0  0  0
 11 14  1  0  0  0
 19 22  1  0  0  0
M  END
> <minimizedAffinity>
37.56131

> <CNNscore>
0.4360060692

> <CNNaffinity>
5.7788734436

> <CNN_VS>
2.5196239948

> <CNNaffinity_variance>
0.9943844080

$$$$
[H]c1c([H])c(OC([H])([H])C([H])([H])N([H])C([H])([H])C([H])([H])C([H])([H])F)c(F)c([C@]2([H])c3c(c4c([H])c([H])c([H])c([H])c4n3[H])C([H])([H])[C@@]([H])(C([H])([H])[H])N2C([H])([H])C([H])(F)F)c1F


 36 39  0  0  0  0  0  0  0  0999 V2000
   12.0865   45.2686  134.1418 C   0  0  0  0  0  0  0  0  0  0  0  0
   11.0523   44.6048  133.2563 C   0  0  0  0  0  0  0  0  0  0  0  0
   11.5606   44.3472  131.8885 C   0  0  0  0  0  0  0  0  0  0  0  0
   10.5891   44.6198  130.7988 C   0  0  0  0  0  0  0  0  0  0  0  0
    9.7891   45.7670  130.9974 C   0  0  0  0  0  0  0  0  0  0  0  0
    9.0070   45.8132  129.9339 N   0  0  0  0  0  0  0  0  0  0  0  0
    9.2331   44.8120  129.0848 C   0  0  0  0  0  0  0  0  0  0  0  0
    8.6547   44.4867  127.8763 C   0  0  0  0  0  0  0  0  0  0  0  0
    9.1260   43.3606  127.2315 C   0  0  0  0  0  0  0  0  0  0  0  0
   10.1433   42.5714  127.7626 C   0  0  0  0  0  0  0  0  0  0  0  0
   10.7077   42.9156  128.9732 C   0  0  0  0  0  0  0  0  0  0  0  0
   10.2254   44.0430  129.6035 C   0  0  0  0  0  0  0  0  0  0  0  0
   10.1211   46.4312  132.2816 C   0  0  0  0  0  0  0  0  0  0  0  0
    9.8289   45.4962  133.2560 N   0  0  0  0  0  0  0  0  0  0  0  0
    8.2840   46.5860  129.8178 H   0  0  0  0  0  0  0  0  0  0  0  0
    9.8412   47.8429  132.3726 C   0  0  0  0  0  0  0  0  0  0  0  0
   10.4381   48.6639  133.2887 C   0  0  0  0  0  0  0  0  0  0  0  0
   11.3924   48.2556  134.1629 F   0  0  0  0  0  0  0  0  0  0  0  0
   10.1030   50.0019  133.3137 C   0  0  0  0  0  0  0  0  0  0  0  0
    9.1830   50.5285  132.4359 C   0  0  0  0  0  0  0  0  0  0  0  0
    8.5680   49.7257  131.5012 C   0  0  0  0  0  0  0  0  0  0  0  0
    8.9243   48.3911  131.5013 C   0  0  0  0  0  0  0  0  0  0  0  0
    8.2949   47.6751  130.4997 F   0  0  0  0  0  0  0  0  0  0  0  0
    7.6387   50.2469  130.6113 O   0  0  0  0  0  0  0  0  0  0  0  0
    7.5066   49.6188  129.3534 C   0  0  0  0  0  0  0  0  0  0  0  0
    7.3211   50.6321  128.2406 C   0  0  0  0  0  0  0  0  0  0  0  0
    7.0549   51.9552  128.7113 N   0  0  0  0  0  0  0  0  0  0  0  0
    7.7877   52.3386  129.3203 H   0  0  0  0  0  0  0  0  0  0  0  0
    6.7145   52.8202  127.6174 C   0  0  0  0  0  0  0  0  0  0  0  0
    7.6084   54.0537  127.5830 C   0  0  0  0  0  0  0  0  0  0  0  0
    8.0678   54.3479  126.1773 C   0  0  0  0  0  0  0  0  0  0  0  0
    7.0640   54.1211  125.2556 F   0  0  0  0  0  0  0  0  0  0  0  0
    8.7815   44.6438  133.3841 C   0  0  0  0  0  0  0  0  0  0  0  0
    8.6263   43.2242  133.1902 C   0  0  0  0  0  0  0  0  0  0  0  0
    9.5872   42.3472  133.5914 F   0  0  0  0  0  0  0  0  0  0  0  0
    8.1658   42.8130  131.9516 F   0  0  0  0  0  0  0  0  0  0  0  0
  1  2  1  0  0  0
  2  3  1  0  0  0
  3  4  1  0  0  0
  4  5  2  0  0  0
  5  6  1  0  0  0
  6  7  1  0  0  0
  7  8  2  0  0  0
  8  9  1  0  0  0
  9 10  2  0  0  0
 10 11  1  0  0  0
 11 12  2  0  0  0
  5 13  1  0  0  0
 13 14  1  0  0  0
 14 33  1  0  0  0
 33 34  1  0  0  0
 34 35  1  0  0  0
 34 36  1  0  0  0
 13 16  1  0  0  0
 16 17  2  0  0  0
 17 18  1  0  0  0
 17 19  1  0  0  0
 19 20  2  0  0  0
 20 21  1  0  0  0
 21 24  1  0  0  0
 24 25  1  0  0  0
 25 26  1  0  0  0
 26 27  1  0  0  0
 27 29  1  0  0  0
 29 30  1  0  0  0
 30 31  1  0  0  0
 31 32  1  0  0  0
 21 22  2  0  0  0
 22 23  1  0  0  0
 14  2  1  0  0  0
 22 16  1  0  0  0
 12  4  1  0  0  0
 12  7  1  0  0  0
  6 15  1  0  0  0
 27 28  1  0  0  0
M  END
> <minimizedAffinity>
-1.65517

> <CNNscore>
0.4492075741

> <CNNaffinity>
7.9416322708

> <CNN_VS>
3.5674414635

> <CNNaffinity_variance>
0.5211994052

$$$$
[H]c1c([H])c(OC([H])([H])C([H])([H])N([H])C([H])([H])C([H])([H])C([H])([H])F)c(F)c([C@]2([H])c3c(c4c([H])c([H])c([H])c([H])c4n3[H])C([H])([H])[C@@]([H])(C([H])([H])[H])N2C([H])([H])C([H])(F)F)c1F


 36 39  0  0  0  0  0  0  0  0999 V2000
   11.7457   46.0773  128.4828 C   0  0  0  0  0  0  0  0  0  0  0  0
   11.5053   44.9672  129.4849 C   0  0  0  0  0  0  0  0  0  0  0  0
   10.1645   44.3538  129.3386 C   0  0  0  0  0  0  0  0  0  0  0  0
    9.4747   44.0462  130.6172 C   0  0  0  0  0  0  0  0  0  0  0  0
    9.6453   45.0196  131.6266 C   0  0  0  0  0  0  0  0  0  0  0  0
    8.9687   44.5485  132.6585 N   0  0  0  0  0  0  0  0  0  0  0  0
    8.3883   43.3771  132.4021 C   0  0  0  0  0  0  0  0  0  0  0  0
    7.6046   42.5524  133.1809 C   0  0  0  0  0  0  0  0  0  0  0  0
    7.1498   41.3828  132.6055 C   0  0  0  0  0  0  0  0  0  0  0  0
    7.4585   41.0312  131.2937 C   0  0  0  0  0  0  0  0  0  0  0  0
    8.2443   41.8713  130.5326 C   0  0  0  0  0  0  0  0  0  0  0  0
    8.6898   43.0351  131.1226 C   0  0  0  0  0  0  0  0  0  0  0  0
   10.4983   46.1358  131.1502 C   0  0  0  0  0  0  0  0  0  0  0  0
   11.7196   45.5574  130.8623 N   0  0  0  0  0  0  0  0  0  0  0  0
    8.9276   45.0835  133.5780 H   0  0  0  0  0  0  0  0  0  0  0  0
   10.3139   47.4130  131.7940 C   0  0  0  0  0  0  0  0  0  0  0  0
   10.6706   47.6521  133.0921 C   0  0  0  0  0  0  0  0  0  0  0  0
   11.2849   46.7412  133.8886 F   0  0  0  0  0  0  0  0  0  0  0  0
   10.4479   48.9016  133.6330 C   0  0  0  0  0  0  0  0  0  0  0  0
    9.8764   49.9126  132.8943 C   0  0  0  0  0  0  0  0  0  0  0  0
    9.5095   49.7008  131.5841 C   0  0  0  0  0  0  0  0  0  0  0  0
    9.7452   48.4400  131.0714 C   0  0  0  0  0  0  0  0  0  0  0  0
    9.3912   48.3358  129.7387 F   0  0  0  0  0  0  0  0  0  0  0  0
    8.9324   50.7138  130.8304 O   0  0  0  0  0  0  0  0  0  0  0  0
    7.5577   50.6069  130.5255 C   0  0  0  0  0  0  0  0  0  0  0  0
    7.3168   50.6039  129.0284 C   0  0  0  0  0  0  0  0  0  0  0  0
    6.8918   49.3373  128.5207 N   0  0  0  0  0  0  0  0  0  0  0  0
    7.6625   48.7047  128.2742 H   0  0  0  0  0  0  0  0  0  0  0  0
    5.9255   48.7409  129.3989 C   0  0  0  0  0  0  0  0  0  0  0  0
    5.7783   47.2476  129.1342 C   0  0  0  0  0  0  0  0  0  0  0  0
    6.9186   46.4759  129.7489 C   0  0  0  0  0  0  0  0  0  0  0  0
    6.6334   46.0919  131.0449 F   0  0  0  0  0  0  0  0  0  0  0  0
   12.4391   44.6212  131.5301 C   0  0  0  0  0  0  0  0  0  0  0  0
   12.1599   43.7747  132.6625 C   0  0  0  0  0  0  0  0  0  0  0  0
   12.8577   43.8972  133.8250 F   0  0  0  0  0  0  0  0  0  0  0  0
   11.9978   42.4248  132.4041 F   0  0  0  0  0  0  0  0  0  0  0  0
  1  2  1  0  0  0
  2  3  1  0  0  0
  3  4  1  0  0  0
  4  5  2  0  0  0
  5  6  1  0  0  0
  6  7  1  0  0  0
  7  8  2  0  0  0
  8  9  1  0  0  0
  9 10  2  0  0  0
 10 11  1  0  0  0
 11 12  2  0  0  0
  5 13  1  0  0  0
 13 14  1  0  0  0
 14 33  1  0  0  0
 33 34  1  0  0  0
 34 35  1  0  0  0
 34 36  1  0  0  0
 13 16  1  0  0  0
 16 17  2  0  0  0
 17 18  1  0  0  0
 17 19  1  0  0  0
 19 20  2  0  0  0
 20 21  1  0  0  0
 21 24  1  0  0  0
 24 25  1  0  0  0
 25 26  1  0  0  0
 26 27  1  0  0  0
 27 29  1  0  0  0
 29 30  1  0  0  0
 30 31  1  0  0  0
 31 32  1  0  0  0
 21 22  2  0  0  0
 22 23  1  0  0  0
 14  2  1  0  0  0
 22 16  1  0  0  0
 12  4  1  0  0  0
 12  7  1  0  0  0
  6 15  1  0  0  0
 27 28  1  0  0  0
M  END
> <minimizedAffinity>
-1.50204

> <CNNscore>
0.4071052969

> <CNNaffinity>
8.1397504807

> <CNN_VS>
3.3137354851

> <CNNaffinity_variance>
0.2477566749

$$$$
[H]c1c([H])c(OC([H])([H])C([H])([H])N([H])C([H])([H])C([H])([H])C([H])([H])F)c(F)c([C@]2([H])c3c(c4c([H])c([H])c([H])c([H])c4n3[H])C([H])([H])[C@@]([H])(C([H])([H])[H])N2C([H])([H])C([H])(F)F)c1F


 36 39  0  0  0  0  0  0  0  0999 V2000
    7.8965   44.6754  135.1233 C   0  0  0  0  0  0  0  0  0  0  0  0
    8.8914   45.7728  134.8064 C   0  0  0  0  0  0  0  0  0  0  0  0
    8.2337   47.0757  134.5504 C   0  0  0  0  0  0  0  0  0  0  0  0
    8.8114   47.8578  133.4280 C   0  0  0  0  0  0  0  0  0  0  0  0
    9.1968   47.0853  132.3098 C   0  0  0  0  0  0  0  0  0  0  0  0
    9.6828   47.9643  131.4520 N   0  0  0  0  0  0  0  0  0  0  0  0
    9.6424   49.2126  131.9155 C   0  0  0  0  0  0  0  0  0  0  0  0
   10.0381   50.4103  131.3589 C   0  0  0  0  0  0  0  0  0  0  0  0
    9.8566   51.5507  132.1156 C   0  0  0  0  0  0  0  0  0  0  0  0
    9.2986   51.5149  133.3911 C   0  0  0  0  0  0  0  0  0  0  0  0
    8.9098   50.3055  133.9284 C   0  0  0  0  0  0  0  0  0  0  0  0
    9.0980   49.1767  133.1594 C   0  0  0  0  0  0  0  0  0  0  0  0
    8.9276   45.6449  132.5403 C   0  0  0  0  0  0  0  0  0  0  0  0
    9.7118   45.3017  133.6248 N   0  0  0  0  0  0  0  0  0  0  0  0
   10.0605   47.6561  130.5055 H   0  0  0  0  0  0  0  0  0  0  0  0
    8.7236   44.8281  131.3695 C   0  0  0  0  0  0  0  0  0  0  0  0
    8.2452   45.3240  130.1884 C   0  0  0  0  0  0  0  0  0  0  0  0
    7.9696   46.6354  129.9741 F   0  0  0  0  0  0  0  0  0  0  0  0
    8.0695   44.4687  129.1204 C   0  0  0  0  0  0  0  0  0  0  0  0
    8.3669   43.1284  129.2169 C   0  0  0  0  0  0  0  0  0  0  0  0
    8.8524   42.6021  130.3931 C   0  0  0  0  0  0  0  0  0  0  0  0
    9.0173   43.4833  131.4440 C   0  0  0  0  0  0  0  0  0  0  0  0
    9.5543   42.8764  132.5644 F   0  0  0  0  0  0  0  0  0  0  0  0
    9.1555   41.2516  130.5009 O   0  0  0  0  0  0  0  0  0  0  0  0
   10.5111   40.8915  130.6651 C   0  0  0  0  0  0  0  0  0  0  0  0
   11.1657   41.6780  131.7841 C   0  0  0  0  0  0  0  0  0  0  0  0
   12.1195   42.6386  131.3252 N   0  0  0  0  0  0  0  0  0  0  0  0
   13.0791   42.2784  131.2609 H   0  0  0  0  0  0  0  0  0  0  0  0
   11.6640   43.2625  130.1153 C   0  0  0  0  0  0  0  0  0  0  0  0
   12.4843   44.5033  129.7849 C   0  0  0  0  0  0  0  0  0  0  0  0
   11.5951   45.6312  129.3257 C   0  0  0  0  0  0  0  0  0  0  0  0
   11.1178   45.4152  128.0474 F   0  0  0  0  0  0  0  0  0  0  0  0
   10.9893   45.6334  133.9383 C   0  0  0  0  0  0  0  0  0  0  0  0
   12.2761   45.1451  133.5110 C   0  0  0  0  0  0  0  0  0  0  0  0
   13.2458   44.8272  134.4122 F   0  0  0  0  0  0  0  0  0  0  0  0
   12.8763   45.8142  132.4588 F   0  0  0  0  0  0  0  0  0  0  0  0
  1  2  1  0  0  0
  2  3  1  0  0  0
  3  4  1  0  0  0
  4  5  2  0  0  0
  5  6  1  0  0  0
  6  7  1  0  0  0
  7  8  2  0  0  0
  8  9  1  0  0  0
  9 10  2  0  0  0
 10 11  1  0  0  0
 11 12  2  0  0  0
  5 13  1  0  0  0
 13 14  1  0  0  0
 14 33  1  0  0  0
 33 34  1  0  0  0
 34 35  1  0  0  0
 34 36  1  0  0  0
 13 16  1  0  0  0
 16 17  2  0  0  0
 17 18  1  0  0  0
 17 19  1  0  0  0
 19 20  2  0  0  0
 20 21  1  0  0  0
 21 24  1  0  0  0
 24 25  1  0  0  0
 25 26  1  0  0  0
 26 27  1  0  0  0
 27 29  1  0  0  0
 29 30  1  0  0  0
 30 31  1  0  0  0
 31 32  1  0  0  0
 21 22  2  0  0  0
 22 23  1  0  0  0
 14  2  1  0  0  0
 22 16  1  0  0  0
 12  4  1  0  0  0
 12  7  1  0  0  0
  6 15  1  0  0  0
 27 28  1  0  0  0
M  END
> <minimizedAffinity>
8.93705

> <CNNscore>
0.3786816895

> <CNNaffinity>
7.8591146469

> <CNN_VS>
2.9761028290

> <CNNaffinity_variance>
0.5182709694

$$$$
[H]c1c([H])c(OC([H])([H])C([H])([H])N([H])C([H])([H])C([H])([H])C([H])([H])F)c(F)c([C@]2([H])c3c(c4c([H])c([H])c([H])c([H])c4n3[H])C([H])([H])[C@@]([H])(C([H])([H])[H])N2C([H])([H])C([H])(F)F)c1F


 36 39  0  0  0  0  0  0  0  0999 V2000
   10.6996   45.9932  127.6299 C   0  0  0  0  0  0  0  0  0  0  0  0
   10.7552   45.0910  128.8454 C   0  0  0  0  0  0  0  0  0  0  0  0
    9.5030   44.3225  129.0370 C   0  0  0  0  0  0  0  0  0  0  0  0
    9.0477   44.2101  130.4460 C   0  0  0  0  0  0  0  0  0  0  0  0
    9.2245   45.3810  131.2164 C   0  0  0  0  0  0  0  0  0  0  0  0
    8.7697   45.0606  132.4144 N   0  0  0  0  0  0  0  0  0  0  0  0
    8.3236   43.8070  132.4774 C   0  0  0  0  0  0  0  0  0  0  0  0
    7.7762   43.0798  133.5130 C   0  0  0  0  0  0  0  0  0  0  0  0
    7.4082   41.7762  133.2460 C   0  0  0  0  0  0  0  0  0  0  0  0
    7.5745   41.1999  131.9891 C   0  0  0  0  0  0  0  0  0  0  0  0
    8.1243   41.9459  130.9676 C   0  0  0  0  0  0  0  0  0  0  0  0
    8.4861   43.2458  131.2512 C   0  0  0  0  0  0  0  0  0  0  0  0
    9.8427   46.4607  130.4087 C   0  0  0  0  0  0  0  0  0  0  0  0
   11.0786   45.9682  130.0359 N   0  0  0  0  0  0  0  0  0  0  0  0
    8.7859   45.7641  133.2134 H   0  0  0  0  0  0  0  0  0  0  0  0
    9.5788   47.8153  130.8271 C   0  0  0  0  0  0  0  0  0  0  0  0
   10.3082   48.4533  131.7918 C   0  0  0  0  0  0  0  0  0  0  0  0
   11.3855   47.9079  132.4112 F   0  0  0  0  0  0  0  0  0  0  0  0
    9.9798   49.7473  132.1394 C   0  0  0  0  0  0  0  0  0  0  0  0
    8.9358   50.4104  131.5355 C   0  0  0  0  0  0  0  0  0  0  0  0
    8.1858   49.7934  130.5593 C   0  0  0  0  0  0  0  0  0  0  0  0
    8.5390   48.4984  130.2335 C   0  0  0  0  0  0  0  0  0  0  0  0
    7.7643   47.9794  129.2124 F   0  0  0  0  0  0  0  0  0  0  0  0
    7.1308   50.4534  129.9440 O   0  0  0  0  0  0  0  0  0  0  0  0
    7.3864   51.1045  128.7172 C   0  0  0  0  0  0  0  0  0  0  0  0
    6.8227   52.5121  128.7046 C   0  0  0  0  0  0  0  0  0  0  0  0
    6.6562   53.0491  127.3905 N   0  0  0  0  0  0  0  0  0  0  0  0
    5.7001   53.3620  127.1838 H   0  0  0  0  0  0  0  0  0  0  0  0
    7.6515   54.0489  127.1251 C   0  0  0  0  0  0  0  0  0  0  0  0
    7.5556   54.5650  125.6946 C   0  0  0  0  0  0  0  0  0  0  0  0
    8.5204   53.8373  124.7928 C   0  0  0  0  0  0  0  0  0  0  0  0
    9.0066   54.6615  123.7964 F   0  0  0  0  0  0  0  0  0  0  0  0
   12.0050   45.2686  130.7376 C   0  0  0  0  0  0  0  0  0  0  0  0
   12.0837   44.8163  132.1037 C   0  0  0  0  0  0  0  0  0  0  0  0
   11.6107   43.5939  132.4714 F   0  0  0  0  0  0  0  0  0  0  0  0
   11.7179   45.7254  133.0810 F   0  0  0  0  0  0  0  0  0  0  0  0
  1  2  1  0  0  0
  2  3  1  0  0  0
  3  4  1  0  0  0
  4  5  2  0  0  0
  5  6  1  0  0  0
  6  7  1  0  0  0
  7  8  2  0  0  0
  8  9  1  0  0  0
  9 10  2  0  0  0
 10 11  1  0  0  0
 11 12  2  0  0  0
  5 13  1  0  0  0
 13 14  1  0  0  0
 14 33  1  0  0  0
 33 34  1  0  0  0
 34 35  1  0  0  0
 34 36  1  0  0  0
 13 16  1  0  0  0
 16 17  2  0  0  0
 17 18  1  0  0  0
 17 19  1  0  0  0
 19 20  2  0  0  0
 20 21  1  0  0  0
 21 24  1  0  0  0
 24 25  1  0  0  0
 25 26  1  0  0  0
 26 27  1  0  0  0
 27 29  1  0  0  0
 29 30  1  0  0  0
 30 31  1  0  0  0
 31 32  1  0  0  0
 21 22  2  0  0  0
 22 23  1  0  0  0
 14  2  1  0  0  0
 22 16  1  0  0  0
 12  4  1  0  0  0
 12  7  1  0  0  0
  6 15  1  0  0  0
 27 28  1  0  0  0
M  END
> <minimizedAffinity>
-0.30040

> <CNNscore>
0.3741321564

> <CNNaffinity>
7.5086770058

> <CNN_VS>
2.8092374802

> <CNNaffinity_variance>
0.1424494088

$$$$
[H]c1c([H])c(OC([H])([H])C([H])([H])N([H])C([H])([H])C([H])([H])C([H])([H])F)c(F)c([C@]2([H])c3c(c4c([H])c([H])c([H])c([H])c4n3[H])C([H])([H])[C@@]([H])(C([H])([H])[H])N2C([H])([H])C([H])(F)F)c1F


 36 39  0  0  0  0  0  0  0  0999 V2000
    9.0781   43.4188  133.9621 C   0  0  0  0  0  0  0  0  0  0  0  0
    9.6643   43.3148  132.5693 C   0  0  0  0  0  0  0  0  0  0  0  0
   11.1460   43.3208  132.5773 C   0  0  0  0  0  0  0  0  0  0  0  0
   11.7738   44.1238  131.4974 C   0  0  0  0  0  0  0  0  0  0  0  0
   11.1134   45.3386  131.2078 C   0  0  0  0  0  0  0  0  0  0  0  0
   11.8219   45.8758  130.2311 N   0  0  0  0  0  0  0  0  0  0  0  0
   12.8624   45.1235  129.8759 C   0  0  0  0  0  0  0  0  0  0  0  0
   13.8405   45.3039  128.9211 C   0  0  0  0  0  0  0  0  0  0  0  0
   14.7978   44.3164  128.8010 C   0  0  0  0  0  0  0  0  0  0  0  0
   14.7939   43.1766  129.6013 C   0  0  0  0  0  0  0  0  0  0  0  0
   13.8057   43.0167  130.5502 C   0  0  0  0  0  0  0  0  0  0  0  0
   12.8578   44.0123  130.6570 C   0  0  0  0  0  0  0  0  0  0  0  0
    9.9210   45.5148  132.0724 C   0  0  0  0  0  0  0  0  0  0  0  0
    9.0897   44.4568  131.7586 N   0  0  0  0  0  0  0  0  0  0  0  0
   11.5453   46.8104  129.8026 H   0  0  0  0  0  0  0  0  0  0  0  0
    9.4888   46.8696  132.3123 C   0  0  0  0  0  0  0  0  0  0  0  0
    9.1728   47.3424  133.5558 C   0  0  0  0  0  0  0  0  0  0  0  0
    9.2875   46.6134  134.6946 F   0  0  0  0  0  0  0  0  0  0  0  0
    8.7566   48.6505  133.6936 C   0  0  0  0  0  0  0  0  0  0  0  0
    8.6544   49.4900  132.6077 C   0  0  0  0  0  0  0  0  0  0  0  0
    8.9684   49.0415  131.3442 C   0  0  0  0  0  0  0  0  0  0  0  0
    9.3817   47.7276  131.2387 C   0  0  0  0  0  0  0  0  0  0  0  0
    9.7216   47.3820  129.9437 F   0  0  0  0  0  0  0  0  0  0  0  0
    8.8687   49.8801  130.2424 O   0  0  0  0  0  0  0  0  0  0  0  0
    7.5765   50.2629  129.8204 C   0  0  0  0  0  0  0  0  0  0  0  0
    7.2820   49.7771  128.4145 C   0  0  0  0  0  0  0  0  0  0  0  0
    6.9491   48.3887  128.3478 N   0  0  0  0  0  0  0  0  0  0  0  0
    7.5090   47.7933  128.9697 H   0  0  0  0  0  0  0  0  0  0  0  0
    5.5344   48.2018  128.5036 C   0  0  0  0  0  0  0  0  0  0  0  0
    5.2252   47.0835  129.4914 C   0  0  0  0  0  0  0  0  0  0  0  0
    6.4896   46.3960  129.9409 C   0  0  0  0  0  0  0  0  0  0  0  0
    6.4489   46.0839  131.2861 F   0  0  0  0  0  0  0  0  0  0  0  0
    8.7691   43.9030  130.5625 C   0  0  0  0  0  0  0  0  0  0  0  0
    8.7373   44.4046  129.2119 C   0  0  0  0  0  0  0  0  0  0  0  0
    8.0762   43.7378  128.2261 F   0  0  0  0  0  0  0  0  0  0  0  0
    9.9360   44.8573  128.6890 F   0  0  0  0  0  0  0  0  0  0  0  0
  1  2  1  0  0  0
  2  3  1  0  0  0
  3  4  1  0  0  0
  4  5  2  0  0  0
  5  6  1  0  0  0
  6  7  1  0  0  0
  7  8  2  0  0  0
  8  9  1  0  0  0
  9 10  2  0  0  0
 10 11  1  0  0  0
 11 12  2  0  0  0
  5 13  1  0  0  0
 13 14  1  0  0  0
 14 33  1  0  0  0
 33 34  1  0  0  0
 34 35  1  0  0  0
 34 36  1  0  0  0
 13 16  1  0  0  0
 16 17  2  0  0  0
 17 18  1  0  0  0
 17 19  1  0  0  0
 19 20  2  0  0  0
 20 21  1  0  0  0
 21 24  1  0  0  0
 24 25  1  0  0  0
 25 26  1  0  0  0
 26 27  1  0  0  0
 27 29  1  0  0  0
 29 30  1  0  0  0
 30 31  1  0  0  0
 31 32  1  0  0  0
 21 22  2  0  0  0
 22 23  1  0  0  0
 14  2  1  0  0  0
 22 16  1  0  0  0
 12  4  1  0  0  0
 12  7  1  0  0  0
  6 15  1  0  0  0
 27 28  1  0  0  0
M  END
> <minimizedAffinity>
2.64286

> <CNNscore>
0.3668654859

> <CNNaffinity>
7.8980951309

> <CNN_VS>
2.8975384235

> <CNNaffinity_variance>
0.2386605293

$$$$
[H]c1c([H])c(OC([H])([H])C([H])([H])N([H])C([H])([H])C([H])([H])C([H])([H])F)c(F)c([C@]2([H])c3c(c4c([H])c([H])c([H])c([H])c4n3[H])C([H])([H])[C@@]([H])(C([H])([H])[H])N2C([H])([H])C([H])(F)F)c1F


 36 39  0  0  0  0  0  0  0  0999 V2000
    9.3693   46.7586  135.1669 C   0  0  0  0  0  0  0  0  0  0  0  0
    9.5306   45.8054  134.0007 C   0  0  0  0  0  0  0  0  0  0  0  0
   10.9395   45.6877  133.5572 C   0  0  0  0  0  0  0  0  0  0  0  0
   11.1300   45.6445  132.0851 C   0  0  0  0  0  0  0  0  0  0  0  0
   10.2818   46.5078  131.3565 C   0  0  0  0  0  0  0  0  0  0  0  0
   10.6089   46.3045  130.0931 N   0  0  0  0  0  0  0  0  0  0  0  0
   11.5777   45.4013  129.9511 C   0  0  0  0  0  0  0  0  0  0  0  0
   12.2075   44.9009  128.8313 C   0  0  0  0  0  0  0  0  0  0  0  0
   13.1924   43.9538  129.0289 C   0  0  0  0  0  0  0  0  0  0  0  0
   13.5505   43.5082  130.2988 C   0  0  0  0  0  0  0  0  0  0  0  0
   12.9072   44.0226  131.4052 C   0  0  0  0  0  0  0  0  0  0  0  0
   11.9265   44.9674  131.1901 C   0  0  0  0  0  0  0  0  0  0  0  0
    9.3822   47.2604  132.2647 C   0  0  0  0  0  0  0  0  0  0  0  0
    8.6198   46.2964  132.8958 N   0  0  0  0  0  0  0  0  0  0  0  0
   10.1161   46.8279  129.3078 H   0  0  0  0  0  0  0  0  0  0  0  0
    8.8897   48.5281  131.7850 C   0  0  0  0  0  0  0  0  0  0  0  0
    9.3116   49.7292  132.2840 C   0  0  0  0  0  0  0  0  0  0  0  0
   10.2729   49.8591  133.2331 F   0  0  0  0  0  0  0  0  0  0  0  0
    8.7789   50.8952  131.7743 C   0  0  0  0  0  0  0  0  0  0  0  0
    7.8340   50.8761  130.7738 C   0  0  0  0  0  0  0  0  0  0  0  0
    7.3924   49.6812  130.2508 C   0  0  0  0  0  0  0  0  0  0  0  0
    7.9443   48.5316  130.7817 C   0  0  0  0  0  0  0  0  0  0  0  0
    7.4787   47.3861  130.1627 F   0  0  0  0  0  0  0  0  0  0  0  0
    6.4397   49.6509  129.2415 O   0  0  0  0  0  0  0  0  0  0  0  0
    6.1391   50.8631  128.5824 C   0  0  0  0  0  0  0  0  0  0  0  0
    7.1123   51.9617  128.9637 C   0  0  0  0  0  0  0  0  0  0  0  0
    6.8701   53.1987  128.2899 N   0  0  0  0  0  0  0  0  0  0  0  0
    7.1683   54.0282  128.8170 H   0  0  0  0  0  0  0  0  0  0  0  0
    7.3933   53.1556  126.9539 C   0  0  0  0  0  0  0  0  0  0  0  0
    7.4444   54.5449  126.3301 C   0  0  0  0  0  0  0  0  0  0  0  0
    8.5810   54.6524  125.3451 C   0  0  0  0  0  0  0  0  0  0  0  0
    8.2190   54.1841  124.0968 F   0  0  0  0  0  0  0  0  0  0  0  0
    8.0279   45.1751  132.4136 C   0  0  0  0  0  0  0  0  0  0  0  0
    8.5219   43.8757  132.0335 C   0  0  0  0  0  0  0  0  0  0  0  0
    8.3394   43.3912  130.7744 F   0  0  0  0  0  0  0  0  0  0  0  0
    8.2968   42.8406  132.9242 F   0  0  0  0  0  0  0  0  0  0  0  0
  1  2  1  0  0  0
  2  3  1  0  0  0
  3  4  1  0  0  0
  4  5  2  0  0  0
  5  6  1  0  0  0
  6  7  1  0  0  0
  7  8  2  0  0  0
  8  9  1  0  0  0
  9 10  2  0  0  0
 10 11  1  0  0  0
 11 12  2  0  0  0
  5 13  1  0  0  0
 13 14  1  0  0  0
 14 33  1  0  0  0
 33 34  1  0  0  0
 34 35  1  0  0  0
 34 36  1  0  0  0
 13 16  1  0  0  0
 16 17  2  0  0  0
 17 18  1  0  0  0
 17 19  1  0  0  0
 19 20  2  0  0  0
 20 21  1  0  0  0
 21 24  1  0  0  0
 24 25  1  0  0  0
 25 26  1  0  0  0
 26 27  1  0  0  0
 27 29  1  0  0  0
 29 30  1  0  0  0
 30 31  1  0  0  0
 31 32  1  0  0  0
 21 22  2  0  0  0
 22 23  1  0  0  0
 14  2  1  0  0  0
 22 16  1  0  0  0
 12  4  1  0  0  0
 12  7  1  0  0  0
  6 15  1  0  0  0
 27 28  1  0  0  0
M  END
> <minimizedAffinity>
-1.91216

> <CNNscore>
0.3667601347

> <CNNaffinity>
7.6697478294

> <CNN_VS>
2.8129577637

> <CNNaffinity_variance>
0.2570731938

$$$$
[H]c1c([H])c(OC([H])([H])C([H])([H])N([H])C([H])([H])C([H])([H])C([H])([H])F)c(F)c([C@]2([H])c3c(c4c([H])c([H])c([H])c([H])c4n3[H])C([H])([H])[C@@]([H])(C([H])([H])[H])N2C([H])([H])C([H])(F)F)c1F


 36 39  0  0  0  0  0  0  0  0999 V2000
   13.1706   44.8848  133.9331 C   0  0  0  0  0  0  0  0  0  0  0  0
   12.1964   44.1048  133.0746 C   0  0  0  0  0  0  0  0  0  0  0  0
   12.3930   44.3538  131.6273 C   0  0  0  0  0  0  0  0  0  0  0  0
   11.1409   44.4903  130.8406 C   0  0  0  0  0  0  0  0  0  0  0  0
   10.1093   45.1995  131.4951 C   0  0  0  0  0  0  0  0  0  0  0  0
    9.1064   45.1931  130.6356 N   0  0  0  0  0  0  0  0  0  0  0  0
    9.4011   44.5526  129.5054 C   0  0  0  0  0  0  0  0  0  0  0  0
    8.6607   44.3143  128.3670 C   0  0  0  0  0  0  0  0  0  0  0  0
    9.2705   43.6039  127.3523 C   0  0  0  0  0  0  0  0  0  0  0  0
   10.5789   43.1377  127.4542 C   0  0  0  0  0  0  0  0  0  0  0  0
   11.3012   43.3876  128.6024 C   0  0  0  0  0  0  0  0  0  0  0  0
   10.6773   44.0984  129.6056 C   0  0  0  0  0  0  0  0  0  0  0  0
   10.5400   45.6399  132.8446 C   0  0  0  0  0  0  0  0  0  0  0  0
   10.8028   44.4733  133.5366 N   0  0  0  0  0  0  0  0  0  0  0  0
    8.1788   45.6594  130.8716 H   0  0  0  0  0  0  0  0  0  0  0  0
    9.8786   46.7995  133.3898 C   0  0  0  0  0  0  0  0  0  0  0  0
    9.2492   46.7971  134.6037 C   0  0  0  0  0  0  0  0  0  0  0  0
    9.2300   45.7320  135.4445 F   0  0  0  0  0  0  0  0  0  0  0  0
    8.6309   47.9489  135.0445 C   0  0  0  0  0  0  0  0  0  0  0  0
    8.6355   49.1003  134.2905 C   0  0  0  0  0  0  0  0  0  0  0  0
    9.2636   49.1323  133.0654 C   0  0  0  0  0  0  0  0  0  0  0  0
    9.8732   47.9638  132.6518 C   0  0  0  0  0  0  0  0  0  0  0  0
   10.5182   48.1047  131.4368 F   0  0  0  0  0  0  0  0  0  0  0  0
    9.2740   50.2884  132.2971 O   0  0  0  0  0  0  0  0  0  0  0  0
    9.0847   50.1556  130.9039 C   0  0  0  0  0  0  0  0  0  0  0  0
    7.6129   50.1488  130.5390 C   0  0  0  0  0  0  0  0  0  0  0  0
    7.3695   49.9095  129.1511 N   0  0  0  0  0  0  0  0  0  0  0  0
    7.7704   50.6197  128.5269 H   0  0  0  0  0  0  0  0  0  0  0  0
    7.7400   48.5682  128.7986 C   0  0  0  0  0  0  0  0  0  0  0  0
    6.8525   47.5434  129.4943 C   0  0  0  0  0  0  0  0  0  0  0  0
    5.4590   47.5575  128.9187 C   0  0  0  0  0  0  0  0  0  0  0  0
    4.6073   46.7316  129.6266 F   0  0  0  0  0  0  0  0  0  0  0  0
   10.1316   43.2952  133.5800 C   0  0  0  0  0  0  0  0  0  0  0  0
    8.7959   42.8986  133.2118 C   0  0  0  0  0  0  0  0  0  0  0  0
    8.5288   42.3683  131.9868 F   0  0  0  0  0  0  0  0  0  0  0  0
    7.7773   43.7819  133.5240 F   0  0  0  0  0  0  0  0  0  0  0  0
  1  2  1  0  0  0
  2  3  1  0  0  0
  3  4  1  0  0  0
  4  5  2  0  0  0
  5  6  1  0  0  0
  6  7  1  0  0  0
  7  8  2  0  0  0
  8  9  1  0  0  0
  9 10  2  0  0  0
 10 11  1  0  0  0
 11 12  2  0  0  0
  5 13  1  0  0  0
 13 14  1  0  0  0
 14 33  1  0  0  0
 33 34  1  0  0  0
 34 35  1  0  0  0
 34 36  1  0  0  0
 13 16  1  0  0  0
 16 17  2  0  0  0
 17 18  1  0  0  0
 17 19  1  0  0  0
 19 20  2  0  0  0
 20 21  1  0  0  0
 21 24  1  0  0  0
 24 25  1  0  0  0
 25 26  1  0  0  0
 26 27  1  0  0  0
 27 29  1  0  0  0
 29 30  1  0  0  0
 30 31  1  0  0  0
 31 32  1  0  0  0
 21 22  2  0  0  0
 22 23  1  0  0  0
 14  2  1  0  0  0
 22 16  1  0  0  0
 12  4  1  0  0  0
 12  7  1  0  0  0
  6 15  1  0  0  0
 27 28  1  0  0  0
M  END
> <minimizedAffinity>
-3.81795

> <CNNscore>
0.3511163592

> <CNNaffinity>
8.0749006271

> <CNN_VS>
2.8352296352

> <CNNaffinity_variance>
0.2747052312

$$$$
[H]c1c([H])c(OC([H])([H])C([H])([H])N([H])C([H])([H])C([H])([H])C([H])([H])F)c(F)c([C@]2([H])c3c(c4c([H])c([H])c([H])c([H])c4n3[H])C([H])([H])[C@@]([H])(C([H])([H])[H])N2C([H])([H])C([H])(F)F)c1F


 36 39  0  0  0  0  0  0  0  0999 V2000
   10.0581   41.6359  131.3410 C   0  0  0  0  0  0  0  0  0  0  0  0
   10.6703   42.6418  132.2939 C   0  0  0  0  0  0  0  0  0  0  0  0
    9.6673   43.2396  133.2062 C   0  0  0  0  0  0  0  0  0  0  0  0
    9.8271   44.6970  133.4422 C   0  0  0  0  0  0  0  0  0  0  0  0
   10.2027   45.4401  132.3010 C   0  0  0  0  0  0  0  0  0  0  0  0
   10.2950   46.6851  132.7324 N   0  0  0  0  0  0  0  0  0  0  0  0
   10.0152   46.8026  134.0295 C   0  0  0  0  0  0  0  0  0  0  0  0
    9.9909   47.8979  134.8664 C   0  0  0  0  0  0  0  0  0  0  0  0
    9.6538   47.6782  136.1871 C   0  0  0  0  0  0  0  0  0  0  0  0
    9.3476   46.4101  136.6746 C   0  0  0  0  0  0  0  0  0  0  0  0
    9.3782   45.3284  135.8195 C   0  0  0  0  0  0  0  0  0  0  0  0
    9.7165   45.5654  134.5041 C   0  0  0  0  0  0  0  0  0  0  0  0
   10.3545   44.5577  131.1182 C   0  0  0  0  0  0  0  0  0  0  0  0
   11.3721   43.6840  131.4498 N   0  0  0  0  0  0  0  0  0  0  0  0
   10.5735   47.4744  132.0744 H   0  0  0  0  0  0  0  0  0  0  0  0
   10.1718   45.1697  129.8253 C   0  0  0  0  0  0  0  0  0  0  0  0
   11.0638   45.0253  128.7991 C   0  0  0  0  0  0  0  0  0  0  0  0
   12.1758   44.2503  128.8660 F   0  0  0  0  0  0  0  0  0  0  0  0
   10.8163   45.6557  127.5973 C   0  0  0  0  0  0  0  0  0  0  0  0
    9.6907   46.4249  127.4080 C   0  0  0  0  0  0  0  0  0  0  0  0
    8.7741   46.5858  128.4230 C   0  0  0  0  0  0  0  0  0  0  0  0
    9.0500   45.9425  129.6138 C   0  0  0  0  0  0  0  0  0  0  0  0
    8.0527   46.1205  130.5551 F   0  0  0  0  0  0  0  0  0  0  0  0
    7.6357   47.3595  128.2424 O   0  0  0  0  0  0  0  0  0  0  0  0
    6.6964   47.4058  129.2960 C   0  0  0  0  0  0  0  0  0  0  0  0
    5.6247   48.4481  129.0425 C   0  0  0  0  0  0  0  0  0  0  0  0
    6.0225   49.7744  129.3967 N   0  0  0  0  0  0  0  0  0  0  0  0
    5.2462   50.4450  129.4481 H   0  0  0  0  0  0  0  0  0  0  0  0
    6.8382   49.7574  130.5778 C   0  0  0  0  0  0  0  0  0  0  0  0
    8.1726   50.4547  130.3439 C   0  0  0  0  0  0  0  0  0  0  0  0
    9.2910   49.7295  131.0488 C   0  0  0  0  0  0  0  0  0  0  0  0
   10.0261   48.9536  130.1734 F   0  0  0  0  0  0  0  0  0  0  0  0
   12.5559   43.8955  132.0775 C   0  0  0  0  0  0  0  0  0  0  0  0
   12.9202   44.1747  133.4436 C   0  0  0  0  0  0  0  0  0  0  0  0
   12.4060   43.4489  134.4743 F   0  0  0  0  0  0  0  0  0  0  0  0
   12.9307   45.5052  133.8242 F   0  0  0  0  0  0  0  0  0  0  0  0
  1  2  1  0  0  0
  2  3  1  0  0  0
  3  4  1  0  0  0
  4  5  2  0  0  0
  5  6  1  0  0  0
  6  7  1  0  0  0
  7  8  2  0  0  0
  8  9  1  0  0  0
  9 10  2  0  0  0
 10 11  1  0  0  0
 11 12  2  0  0  0
  5 13  1  0  0  0
 13 14  1  0  0  0
 14 33  1  0  0  0
 33 34  1  0  0  0
 34 35  1  0  0  0
 34 36  1  0  0  0
 13 16  1  0  0  0
 16 17  2  0  0  0
 17 18  1  0  0  0
 17 19  1  0  0  0
 19 20  2  0  0  0
 20 21  1  0  0  0
 21 24  1  0  0  0
 24 25  1  0  0  0
 25 26  1  0  0  0
 26 27  1  0  0  0
 27 29  1  0  0  0
 29 30  1  0  0  0
 30 31  1  0  0  0
 31 32  1  0  0  0
 21 22  2  0  0  0
 22 23  1  0  0  0
 14  2  1  0  0  0
 22 16  1  0  0  0
 12  4  1  0  0  0
 12  7  1  0  0  0
  6 15  1  0  0  0
 27 28  1  0  0  0
M  END
> <minimizedAffinity>
0.48505

> <CNNscore>
0.3316569328

> <CNNaffinity>
7.9620389938

> <CNN_VS>
2.6406655312

> <CNNaffinity_variance>
0.2838586867

$$$$
[H]c1c([H])c(OC([H])([H])C([H])([H])N([H])C([H])([H])C([H])([H])C([H])([H])F)c(F)c([C@]2([H])c3c(c4c([H])c([H])c([H])c([H])c4n3[H])C([H])([H])[C@@]([H])(C([H])([H])[H])N2C([H])([H])C([H])(F)F)c1F


 36 39  0  0  0  0  0  0  0  0999 V2000
    8.6722   43.6934  128.0940 C   0  0  0  0  0  0  0  0  0  0  0  0
    9.6651   44.1557  129.1403 C   0  0  0  0  0  0  0  0  0  0  0  0
    9.3723   43.6001  130.4824 C   0  0  0  0  0  0  0  0  0  0  0  0
    9.5448   44.5557  131.6059 C   0  0  0  0  0  0  0  0  0  0  0  0
    9.1111   45.8717  131.3307 C   0  0  0  0  0  0  0  0  0  0  0  0
    9.3609   46.5416  132.4414 N   0  0  0  0  0  0  0  0  0  0  0  0
    9.9074   45.7815  133.3891 C   0  0  0  0  0  0  0  0  0  0  0  0
   10.3172   46.0708  134.6733 C   0  0  0  0  0  0  0  0  0  0  0  0
   10.8545   45.0374  135.4144 C   0  0  0  0  0  0  0  0  0  0  0  0
   10.9865   43.7480  134.9048 C   0  0  0  0  0  0  0  0  0  0  0  0
   10.5699   43.4810  133.6173 C   0  0  0  0  0  0  0  0  0  0  0  0
   10.0356   44.5242  132.8912 C   0  0  0  0  0  0  0  0  0  0  0  0
    8.5816   45.9791  129.9492 C   0  0  0  0  0  0  0  0  0  0  0  0
    9.6499   45.6693  129.1296 N   0  0  0  0  0  0  0  0  0  0  0  0
    9.1363   47.5794  132.5183 H   0  0  0  0  0  0  0  0  0  0  0  0
    7.6203   47.0255  129.7030 C   0  0  0  0  0  0  0  0  0  0  0  0
    6.2689   46.8210  129.7429 C   0  0  0  0  0  0  0  0  0  0  0  0
    5.6915   45.6382  130.0734 F   0  0  0  0  0  0  0  0  0  0  0  0
    5.4196   47.8767  129.4832 C   0  0  0  0  0  0  0  0  0  0  0  0
    5.9026   49.1310  129.1869 C   0  0  0  0  0  0  0  0  0  0  0  0
    7.2587   49.3664  129.1422 C   0  0  0  0  0  0  0  0  0  0  0  0
    8.0827   48.2898  129.4065 C   0  0  0  0  0  0  0  0  0  0  0  0
    9.4225   48.6315  129.3876 F   0  0  0  0  0  0  0  0  0  0  0  0
    7.7561   50.6277  128.8443 O   0  0  0  0  0  0  0  0  0  0  0  0
    6.8333   51.6912  128.7356 C   0  0  0  0  0  0  0  0  0  0  0  0
    7.4481   52.8953  128.0489 C   0  0  0  0  0  0  0  0  0  0  0  0
    6.5749   53.5241  127.1081 N   0  0  0  0  0  0  0  0  0  0  0  0
    5.6396   53.7315  127.4784 H   0  0  0  0  0  0  0  0  0  0  0  0
    7.2143   54.6612  126.5092 C   0  0  0  0  0  0  0  0  0  0  0  0
    8.4925   54.2630  125.7816 C   0  0  0  0  0  0  0  0  0  0  0  0
    8.4158   54.6241  124.3196 C   0  0  0  0  0  0  0  0  0  0  0  0
    8.0332   53.5440  123.5478 F   0  0  0  0  0  0  0  0  0  0  0  0
   10.9565   46.0274  129.1992 C   0  0  0  0  0  0  0  0  0  0  0  0
   12.1793   45.2910  129.3975 C   0  0  0  0  0  0  0  0  0  0  0  0
   12.4950   44.2221  128.6158 F   0  0  0  0  0  0  0  0  0  0  0  0
   12.5089   44.9745  130.7039 F   0  0  0  0  0  0  0  0  0  0  0  0
  1  2  1  0  0  0
  2  3  1  0  0  0
  3  4  1  0  0  0
  4  5  2  0  0  0
  5  6  1  0  0  0
  6  7  1  0  0  0
  7  8  2  0  0  0
  8  9  1  0  0  0
  9 10  2  0  0  0
 10 11  1  0  0  0
 11 12  2  0  0  0
  5 13  1  0  0  0
 13 14  1  0  0  0
 14 33  1  0  0  0
 33 34  1  0  0  0
 34 35  1  0  0  0
 34 36  1  0  0  0
 13 16  1  0  0  0
 16 17  2  0  0  0
 17 18  1  0  0  0
 17 19  1  0  0  0
 19 20  2  0  0  0
 20 21  1  0  0  0
 21 24  1  0  0  0
 24 25  1  0  0  0
 25 26  1  0  0  0
 26 27  1  0  0  0
 27 29  1  0  0  0
 29 30  1  0  0  0
 30 31  1  0  0  0
 31 32  1  0  0  0
 21 22  2  0  0  0
 22 23  1  0  0  0
 14  2  1  0  0  0
 22 16  1  0  0  0
 12  4  1  0  0  0
 12  7  1  0  0  0
  6 15  1  0  0  0
 27 28  1  0  0  0
M  END
> <minimizedAffinity>
-3.54415

> <CNNscore>
0.2939668000

> <CNNaffinity>
7.5588722229

> <CNN_VS>
2.2220575809

> <CNNaffinity_variance>
0.1651206315

$$$$
[H]Oc1c([H])c([H])c([C@]2([H])C(=O)c3c(c([H])c(O[H])c([H])c3C([H])([H])[H])O[C@]2([H])c2c([H])c([H])c(OC([H])([H])C([H])([H])N3C([H])([H])C([H])([H])C([H])([H])C([H])([H])C3([H])[H])c([H])c2[H])c([H])c1[H]


 37 41  0  0  0  0  0  0  0  0999 V2000
    9.6679   49.5530  131.4959 C   0  0  0  0  0  0  0  0  0  0  0  0
    8.6145   49.0093  130.6173 C   0  0  0  0  0  0  0  0  0  0  0  0
    7.3870   49.6222  130.4534 C   0  0  0  0  0  0  0  0  0  0  0  0
    6.4376   49.0600  129.6086 C   0  0  0  0  0  0  0  0  0  0  0  0
    5.2235   49.7112  129.4782 O   0  0  0  0  0  0  0  0  0  0  0  0
    6.7009   47.8911  128.9241 C   0  0  0  0  0  0  0  0  0  0  0  0
    7.9151   47.2793  129.0820 C   0  0  0  0  0  0  0  0  0  0  0  0
    8.1791   46.0954  128.3878 O   0  0  0  0  0  0  0  0  0  0  0  0
    9.2194   45.2126  128.9277 C   0  0  0  0  0  0  0  0  0  0  0  0
   10.3984   46.0813  129.0421 C   0  0  0  0  0  0  0  0  0  0  0  0
   10.1417   47.1416  130.0542 C   0  0  0  0  0  0  0  0  0  0  0  0
   10.9231   47.4498  130.9615 O   0  0  0  0  0  0  0  0  0  0  0  0
    8.8706   47.8400  129.9294 C   0  0  0  0  0  0  0  0  0  0  0  0
    5.0500   50.5605  129.9850 H   0  0  0  0  0  0  0  0  0  0  0  0
   11.7191   45.4936  129.0501 C   0  0  0  0  0  0  0  0  0  0  0  0
   12.2387   44.9599  130.2008 C   0  0  0  0  0  0  0  0  0  0  0  0
   13.5040   44.3845  130.2448 C   0  0  0  0  0  0  0  0  0  0  0  0
   14.2674   44.3381  129.1253 C   0  0  0  0  0  0  0  0  0  0  0  0
   15.5310   43.7632  129.1687 O   0  0  0  0  0  0  0  0  0  0  0  0
   13.7456   44.8802  127.9477 C   0  0  0  0  0  0  0  0  0  0  0  0
   12.4799   45.4537  127.9116 C   0  0  0  0  0  0  0  0  0  0  0  0
   16.0826   43.7381  128.3285 H   0  0  0  0  0  0  0  0  0  0  0  0
    8.7104   44.5097  130.0847 C   0  0  0  0  0  0  0  0  0  0  0  0
    8.2262   45.0855  131.2217 C   0  0  0  0  0  0  0  0  0  0  0  0
    7.7523   44.3492  132.2847 C   0  0  0  0  0  0  0  0  0  0  0  0
    7.7456   42.9426  132.2458 C   0  0  0  0  0  0  0  0  0  0  0  0
    8.2274   42.3728  131.1126 C   0  0  0  0  0  0  0  0  0  0  0  0
    8.7029   43.1267  130.0480 C   0  0  0  0  0  0  0  0  0  0  0  0
    7.2626   42.2491  133.3243 O   0  0  0  0  0  0  0  0  0  0  0  0
    7.8826   41.6562  134.3928 C   0  0  0  0  0  0  0  0  0  0  0  0
    9.3629   41.5861  134.4384 C   0  0  0  0  0  0  0  0  0  0  0  0
   10.0772   42.7950  134.1822 N   0  0  0  0  0  0  0  0  0  0  0  0
   10.5735   43.5057  135.3060 C   0  0  0  0  0  0  0  0  0  0  0  0
   10.7455   44.9868  134.9588 C   0  0  0  0  0  0  0  0  0  0  0  0
   11.0061   45.1711  133.4816 C   0  0  0  0  0  0  0  0  0  0  0  0
   11.8090   43.9909  133.0031 C   0  0  0  0  0  0  0  0  0  0  0  0
   11.0079   42.7014  133.0853 C   0  0  0  0  0  0  0  0  0  0  0  0
  1  2  1  0  0  0
  2  3  2  0  0  0
  3  4  1  0  0  0
  4  5  1  0  0  0
  4  6  2  0  0  0
  6  7  1  0  0  0
  7  8  1  0  0  0
  8  9  1  0  0  0
  9 10  1  0  0  0
 10 11  1  0  0  0
 11 12  2  0  0  0
 11 13  1  0  0  0
 10 15  1  0  0  0
 15 16  2  0  0  0
 16 17  1  0  0  0
 17 18  2  0  0  0
 18 19  1  0  0  0
 18 20  1  0  0  0
 20 21  2  0  0  0
  9 23  1  0  0  0
 23 24  2  0  0  0
 24 25  1  0  0  0
 25 26  2  0  0  0
 26 29  1  0  0  0
 29 30  1  0  0  0
 30 31  1  0  0  0
 31 32  1  0  0  0
 32 33  1  0  0  0
 33 34  1  0  0  0
 34 35  1  0  0  0
 35 36  1  0  0  0
 36 37  1  0  0  0
 26 27  1  0  0  0
 27 28  2  0  0  0
 13  2  1  0  0  0
 21 15  1  0  0  0
 28 23  1  0  0  0
 13  7  2  0  0  0
 37 32  1  0  0  0
  5 14  1  0  0  0
 19 22  1  0  0  0
M  END
> <minimizedAffinity>
7.17178

> <CNNscore>
0.5005513430

> <CNNaffinity>
7.8633513451

> <CNN_VS>
3.9360110760

> <CNNaffinity_variance>
0.3724626601

$$$$
[H]Oc1c([H])c([H])c([C@]2([H])C(=O)c3c(c([H])c(O[H])c([H])c3C([H])([H])[H])O[C@]2([H])c2c([H])c([H])c(OC([H])([H])C([H])([H])N3C([H])([H])C([H])([H])C([H])([H])C([H])([H])C3([H])[H])c([H])c2[H])c([H])c1[H]


 37 41  0  0  0  0  0  0  0  0999 V2000
    6.6169   42.1525  131.1676 C   0  0  0  0  0  0  0  0  0  0  0  0
    7.2328   41.8298  132.4690 C   0  0  0  0  0  0  0  0  0  0  0  0
    6.5368   41.2204  133.4954 C   0  0  0  0  0  0  0  0  0  0  0  0
    7.1759   40.9408  134.6974 C   0  0  0  0  0  0  0  0  0  0  0  0
    6.4360   40.3301  135.6947 O   0  0  0  0  0  0  0  0  0  0  0  0
    8.5043   41.2631  134.8858 C   0  0  0  0  0  0  0  0  0  0  0  0
    9.1993   41.8666  133.8728 C   0  0  0  0  0  0  0  0  0  0  0  0
   10.5446   42.1920  134.0665 O   0  0  0  0  0  0  0  0  0  0  0  0
   11.1129   43.2487  133.2217 C   0  0  0  0  0  0  0  0  0  0  0  0
   10.8261   42.8016  131.8522 C   0  0  0  0  0  0  0  0  0  0  0  0
    9.3551   42.7917  131.6275 C   0  0  0  0  0  0  0  0  0  0  0  0
    8.7924   43.2815  130.6414 O   0  0  0  0  0  0  0  0  0  0  0  0
    8.5615   42.1494  132.6650 C   0  0  0  0  0  0  0  0  0  0  0  0
    5.4701   40.1039  135.5392 H   0  0  0  0  0  0  0  0  0  0  0  0
   11.6384   43.2860  130.7590 C   0  0  0  0  0  0  0  0  0  0  0  0
   12.9984   43.3927  130.8938 C   0  0  0  0  0  0  0  0  0  0  0  0
   13.8109   43.8522  129.8630 C   0  0  0  0  0  0  0  0  0  0  0  0
   13.2630   44.2121  128.6761 C   0  0  0  0  0  0  0  0  0  0  0  0
   14.0742   44.6707  127.6463 O   0  0  0  0  0  0  0  0  0  0  0  0
   11.8772   44.1067  128.5302 C   0  0  0  0  0  0  0  0  0  0  0  0
   11.0714   43.6466  129.5653 C   0  0  0  0  0  0  0  0  0  0  0  0
   13.6497   44.9332  126.7735 H   0  0  0  0  0  0  0  0  0  0  0  0
   10.6555   44.5408  133.6830 C   0  0  0  0  0  0  0  0  0  0  0  0
   10.7783   45.0272  134.9507 C   0  0  0  0  0  0  0  0  0  0  0  0
   10.3210   46.2737  135.3166 C   0  0  0  0  0  0  0  0  0  0  0  0
    9.6946   47.1186  134.3819 C   0  0  0  0  0  0  0  0  0  0  0  0
    9.5746   46.6318  133.1211 C   0  0  0  0  0  0  0  0  0  0  0  0
   10.0395   45.3728  132.7652 C   0  0  0  0  0  0  0  0  0  0  0  0
    9.2569   48.3520  134.7879 O   0  0  0  0  0  0  0  0  0  0  0  0
    8.6840   49.3966  134.1109 C   0  0  0  0  0  0  0  0  0  0  0  0
    7.7955   49.1253  132.9553 C   0  0  0  0  0  0  0  0  0  0  0  0
    8.4124   49.0293  131.6718 N   0  0  0  0  0  0  0  0  0  0  0  0
    7.6933   48.3473  130.6559 C   0  0  0  0  0  0  0  0  0  0  0  0
    8.6601   47.8022  129.6013 C   0  0  0  0  0  0  0  0  0  0  0  0
    9.9130   48.6441  129.5272 C   0  0  0  0  0  0  0  0  0  0  0  0
    9.5270   50.0727  129.8040 C   0  0  0  0  0  0  0  0  0  0  0  0
    9.0383   50.2514  131.2325 C   0  0  0  0  0  0  0  0  0  0  0  0
  1  2  1  0  0  0
  2  3  2  0  0  0
  3  4  1  0  0  0
  4  5  1  0  0  0
  4  6  2  0  0  0
  6  7  1  0  0  0
  7  8  1  0  0  0
  8  9  1  0  0  0
  9 10  1  0  0  0
 10 11  1  0  0  0
 11 12  2  0  0  0
 11 13  1  0  0  0
 10 15  1  0  0  0
 15 16  2  0  0  0
 16 17  1  0  0  0
 17 18  2  0  0  0
 18 19  1  0  0  0
 18 20  1  0  0  0
 20 21  2  0  0  0
  9 23  1  0  0  0
 23 24  2  0  0  0
 24 25  1  0  0  0
 25 26  2  0  0  0
 26 29  1  0  0  0
 29 30  1  0  0  0
 30 31  1  0  0  0
 31 32  1  0  0  0
 32 33  1  0  0  0
 33 34  1  0  0  0
 34 35  1  0  0  0
 35 36  1  0  0  0
 36 37  1  0  0  0
 26 27  1  0  0  0
 27 28  2  0  0  0
 13  2  1  0  0  0
 21 15  1  0  0  0
 28 23  1  0  0  0
 13  7  2  0  0  0
 37 32  1  0  0  0
  5 14  1  0  0  0
 19 22  1  0  0  0
M  END
> <minimizedAffinity>
23.40010

> <CNNscore>
0.4284088016

> <CNNaffinity>
7.4807815552

> <CNN_VS>
3.2048325539

> <CNNaffinity_variance>
1.5434672832

$$$$
[H]Oc1c([H])c([H])c([C@]2([H])C(=O)c3c(c([H])c(O[H])c([H])c3C([H])([H])[H])O[C@]2([H])c2c([H])c([H])c(OC([H])([H])C([H])([H])N3C([H])([H])C([H])([H])C([H])([H])C([H])([H])C3([H])[H])c([H])c2[H])c([H])c1[H]


 37 41  0  0  0  0  0  0  0  0999 V2000
    7.8076   43.0677  131.7473 C   0  0  0  0  0  0  0  0  0  0  0  0
    8.1579   44.0936  132.7484 C   0  0  0  0  0  0  0  0  0  0  0  0
    7.3558   44.3822  133.8359 C   0  0  0  0  0  0  0  0  0  0  0  0
    7.7438   45.3592  134.7448 C   0  0  0  0  0  0  0  0  0  0  0  0
    6.9064   45.6118  135.8172 O   0  0  0  0  0  0  0  0  0  0  0  0
    8.9259   46.0518  134.5799 C   0  0  0  0  0  0  0  0  0  0  0  0
    9.7249   45.7703  133.5049 C   0  0  0  0  0  0  0  0  0  0  0  0
   10.9214   46.4735  133.3402 O   0  0  0  0  0  0  0  0  0  0  0  0
   11.4879   46.5366  131.9880 C   0  0  0  0  0  0  0  0  0  0  0  0
   11.5931   45.1293  131.5807 C   0  0  0  0  0  0  0  0  0  0  0  0
   10.2319   44.5383  131.4685 C   0  0  0  0  0  0  0  0  0  0  0  0
    9.8348   43.8679  130.5084 O   0  0  0  0  0  0  0  0  0  0  0  0
    9.3389   44.7909  132.5899 C   0  0  0  0  0  0  0  0  0  0  0  0
    6.0498   45.0980  135.9200 H   0  0  0  0  0  0  0  0  0  0  0  0
   12.5421   44.7521  130.5576 C   0  0  0  0  0  0  0  0  0  0  0  0
   13.8069   44.3449  130.8947 C   0  0  0  0  0  0  0  0  0  0  0  0
   14.7447   43.9725  129.9377 C   0  0  0  0  0  0  0  0  0  0  0  0
   14.4205   44.0048  128.6215 C   0  0  0  0  0  0  0  0  0  0  0  0
   15.3567   43.6327  127.6655 O   0  0  0  0  0  0  0  0  0  0  0  0
   13.1332   44.4190  128.2690 C   0  0  0  0  0  0  0  0  0  0  0  0
   12.2012   44.7897  129.2314 C   0  0  0  0  0  0  0  0  0  0  0  0
   15.0981   43.6633  126.6944 H   0  0  0  0  0  0  0  0  0  0  0  0
   10.7362   47.4783  131.1879 C   0  0  0  0  0  0  0  0  0  0  0  0
   10.3699   47.3083  129.8857 C   0  0  0  0  0  0  0  0  0  0  0  0
    9.6478   48.2504  129.1872 C   0  0  0  0  0  0  0  0  0  0  0  0
    9.2472   49.4539  129.7963 C   0  0  0  0  0  0  0  0  0  0  0  0
    9.6127   49.6195  131.0925 C   0  0  0  0  0  0  0  0  0  0  0  0
   10.3414   48.6620  131.7854 C   0  0  0  0  0  0  0  0  0  0  0  0
    8.5276   50.3625  129.0655 O   0  0  0  0  0  0  0  0  0  0  0  0
    7.2528   50.8483  129.1946 C   0  0  0  0  0  0  0  0  0  0  0  0
    6.2172   50.0268  129.8662 C   0  0  0  0  0  0  0  0  0  0  0  0
    6.3349   48.6095  129.7453 N   0  0  0  0  0  0  0  0  0  0  0  0
    6.3983   47.8589  130.9482 C   0  0  0  0  0  0  0  0  0  0  0  0
    7.1105   46.5264  130.7009 C   0  0  0  0  0  0  0  0  0  0  0  0
    6.9425   46.0793  129.2671 C   0  0  0  0  0  0  0  0  0  0  0  0
    5.5808   46.5213  128.8016 C   0  0  0  0  0  0  0  0  0  0  0  0
    5.4784   48.0368  128.7370 C   0  0  0  0  0  0  0  0  0  0  0  0
  1  2  1  0  0  0
  2  3  2  0  0  0
  3  4  1  0  0  0
  4  5  1  0  0  0
  4  6  2  0  0  0
  6  7  1  0  0  0
  7  8  1  0  0  0
  8  9  1  0  0  0
  9 10  1  0  0  0
 10 11  1  0  0  0
 11 12  2  0  0  0
 11 13  1  0  0  0
 10 15  1  0  0  0
 15 16  2  0  0  0
 16 17  1  0  0  0
 17 18  2  0  0  0
 18 19  1  0  0  0
 18 20  1  0  0  0
 20 21  2  0  0  0
  9 23  1  0  0  0
 23 24  2  0  0  0
 24 25  1  0  0  0
 25 26  2  0  0  0
 26 29  1  0  0  0
 29 30  1  0  0  0
 30 31  1  0  0  0
 31 32  1  0  0  0
 32 33  1  0  0  0
 33 34  1  0  0  0
 34 35  1  0  0  0
 35 36  1  0  0  0
 36 37  1  0  0  0
 26 27  1  0  0  0
 27 28  2  0  0  0
 13  2  1  0  0  0
 21 15  1  0  0  0
 28 23  1  0  0  0
 13  7  2  0  0  0
 37 32  1  0  0  0
  5 14  1  0  0  0
 19 22  1  0  0  0
M  END
> <minimizedAffinity>
11.29579

> <CNNscore>
0.4013463259

> <CNNaffinity>
7.3407721519

> <CNN_VS>
2.9461920261

> <CNNaffinity_variance>
0.5429619551

$$$$
[H]Oc1c([H])c([H])c([C@]2([H])C(=O)c3c(c([H])c(O[H])c([H])c3C([H])([H])[H])O[C@]2([H])c2c([H])c([H])c(OC([H])([H])C([H])([H])N3C([H])([H])C([H])([H])C([H])([H])C([H])([H])C3([H])[H])c([H])c2[H])c([H])c1[H]


 37 41  0  0  0  0  0  0  0  0999 V2000
    7.7224   42.1783  129.8476 C   0  0  0  0  0  0  0  0  0  0  0  0
    7.9257   42.2073  131.3087 C   0  0  0  0  0  0  0  0  0  0  0  0
    6.9895   41.7264  132.2040 C   0  0  0  0  0  0  0  0  0  0  0  0
    7.2427   41.7807  133.5694 C   0  0  0  0  0  0  0  0  0  0  0  0
    6.2739   41.2868  134.4253 O   0  0  0  0  0  0  0  0  0  0  0  0
    8.4223   42.3101  134.0513 C   0  0  0  0  0  0  0  0  0  0  0  0
    9.3538   42.7878  133.1696 C   0  0  0  0  0  0  0  0  0  0  0  0
   10.5476   43.3237  133.6605 O   0  0  0  0  0  0  0  0  0  0  0  0
   11.2761   44.2577  132.7943 C   0  0  0  0  0  0  0  0  0  0  0  0
   11.4584   43.5122  131.5418 C   0  0  0  0  0  0  0  0  0  0  0  0
   10.1334   43.2595  130.9132 C   0  0  0  0  0  0  0  0  0  0  0  0
    9.8716   43.4627  129.7219 O   0  0  0  0  0  0  0  0  0  0  0  0
    9.1034   42.7358  131.7984 C   0  0  0  0  0  0  0  0  0  0  0  0
    5.4213   40.9060  134.0558 H   0  0  0  0  0  0  0  0  0  0  0  0
   12.5342   43.8742  130.6467 C   0  0  0  0  0  0  0  0  0  0  0  0
   12.2822   44.5942  129.5078 C   0  0  0  0  0  0  0  0  0  0  0  0
   13.2923   44.9620  128.6255 C   0  0  0  0  0  0  0  0  0  0  0  0
   14.5765   44.6084  128.8789 C   0  0  0  0  0  0  0  0  0  0  0  0
   15.5856   44.9758  127.9981 O   0  0  0  0  0  0  0  0  0  0  0  0
   14.8422   43.8739  130.0377 C   0  0  0  0  0  0  0  0  0  0  0  0
   13.8272   43.5100  130.9149 C   0  0  0  0  0  0  0  0  0  0  0  0
   16.5317   44.7043  128.2027 H   0  0  0  0  0  0  0  0  0  0  0  0
   10.6113   45.5421  132.7940 C   0  0  0  0  0  0  0  0  0  0  0  0
    9.4160   45.8245  133.3859 C   0  0  0  0  0  0  0  0  0  0  0  0
    8.8447   47.0771  133.3477 C   0  0  0  0  0  0  0  0  0  0  0  0
    9.4798   48.1430  132.6841 C   0  0  0  0  0  0  0  0  0  0  0  0
   10.6695   47.8587  132.0968 C   0  0  0  0  0  0  0  0  0  0  0  0
   11.2345   46.5912  132.1421 C   0  0  0  0  0  0  0  0  0  0  0  0
    8.8776   49.3737  132.6729 O   0  0  0  0  0  0  0  0  0  0  0  0
    8.7363   50.3229  131.6947 C   0  0  0  0  0  0  0  0  0  0  0  0
    7.9391   50.0170  130.4826 C   0  0  0  0  0  0  0  0  0  0  0  0
    7.7874   48.6405  130.1368 N   0  0  0  0  0  0  0  0  0  0  0  0
    6.5444   48.2455  129.5773 C   0  0  0  0  0  0  0  0  0  0  0  0
    6.3038   46.7544  129.8278 C   0  0  0  0  0  0  0  0  0  0  0  0
    7.6116   46.0071  129.9518 C   0  0  0  0  0  0  0  0  0  0  0  0
    8.6062   46.6599  129.0293 C   0  0  0  0  0  0  0  0  0  0  0  0
    8.9377   48.0743  129.4777 C   0  0  0  0  0  0  0  0  0  0  0  0
  1  2  1  0  0  0
  2  3  2  0  0  0
  3  4  1  0  0  0
  4  5  1  0  0  0
  4  6  2  0  0  0
  6  7  1  0  0  0
  7  8  1  0  0  0
  8  9  1  0  0  0
  9 10  1  0  0  0
 10 11  1  0  0  0
 11 12  2  0  0  0
 11 13  1  0  0  0
 10 15  1  0  0  0
 15 16  2  0  0  0
 16 17  1  0  0  0
 17 18  2  0  0  0
 18 19  1  0  0  0
 18 20  1  0  0  0
 20 21  2  0  0  0
  9 23  1  0  0  0
 23 24  2  0  0  0
 24 25  1  0  0  0
 25 26  2  0  0  0
 26 29  1  0  0  0
 29 30  1  0  0  0
 30 31  1  0  0  0
 31 32  1  0  0  0
 32 33  1  0  0  0
 33 34  1  0  0  0
 34 35  1  0  0  0
 35 36  1  0  0  0
 36 37  1  0  0  0
 26 27  1  0  0  0
 27 28  2  0  0  0
 13  2  1  0  0  0
 21 15  1  0  0  0
 28 23  1  0  0  0
 13  7  2  0  0  0
 37 32  1  0  0  0
  5 14  1  0  0  0
 19 22  1  0  0  0
M  END
> <minimizedAffinity>
8.89058

> <CNNscore>
0.4003353119

> <CNNaffinity>
7.4878334999

> <CNN_VS>
2.9976441860

> <CNNaffinity_variance>
0.4624622464

$$$$
[H]Oc1c([H])c([H])c([C@]2([H])C(=O)c3c(c([H])c(O[H])c([H])c3C([H])([H])[H])O[C@]2([H])c2c([H])c([H])c(OC([H])([H])C([H])([H])N3C([H])([H])C([H])([H])C([H])([H])C([H])([H])C3([H])[H])c([H])c2[H])c([H])c1[H]


 37 41  0  0  0  0  0  0  0  0999 V2000
   13.8503   45.7802  133.5407 C   0  0  0  0  0  0  0  0  0  0  0  0
   12.9786   46.8719  134.0157 C   0  0  0  0  0  0  0  0  0  0  0  0
   13.1862   47.5273  135.2143 C   0  0  0  0  0  0  0  0  0  0  0  0
   12.3296   48.5498  135.6039 C   0  0  0  0  0  0  0  0  0  0  0  0
   12.5792   49.1751  136.8130 O   0  0  0  0  0  0  0  0  0  0  0  0
   11.2666   48.9261  134.8085 C   0  0  0  0  0  0  0  0  0  0  0  0
   11.0558   48.2809  133.6200 C   0  0  0  0  0  0  0  0  0  0  0  0
    9.9783   48.6639  132.8164 O   0  0  0  0  0  0  0  0  0  0  0  0
    9.4729   47.6820  131.8502 C   0  0  0  0  0  0  0  0  0  0  0  0
   10.6601   47.3068  131.0708 C   0  0  0  0  0  0  0  0  0  0  0  0
   11.6353   46.6075  131.9510 C   0  0  0  0  0  0  0  0  0  0  0  0
   12.2020   45.5460  131.6665 O   0  0  0  0  0  0  0  0  0  0  0  0
   11.9129   47.2537  133.2254 C   0  0  0  0  0  0  0  0  0  0  0  0
   13.3573   48.8869  137.3785 H   0  0  0  0  0  0  0  0  0  0  0  0
   10.4981   46.7687  129.7389 C   0  0  0  0  0  0  0  0  0  0  0  0
   11.2535   45.7047  129.3192 C   0  0  0  0  0  0  0  0  0  0  0  0
   11.1227   45.1598  128.0464 C   0  0  0  0  0  0  0  0  0  0  0  0
   10.2249   45.6811  127.1743 C   0  0  0  0  0  0  0  0  0  0  0  0
   10.0938   45.1371  125.9031 O   0  0  0  0  0  0  0  0  0  0  0  0
    9.4509   46.7663  127.5938 C   0  0  0  0  0  0  0  0  0  0  0  0
    9.5873   47.3055  128.8678 C   0  0  0  0  0  0  0  0  0  0  0  0
    9.4230   45.5372  125.2701 H   0  0  0  0  0  0  0  0  0  0  0  0
    8.6984   46.6736  132.5394 C   0  0  0  0  0  0  0  0  0  0  0  0
    7.5770   46.0618  132.0631 C   0  0  0  0  0  0  0  0  0  0  0  0
    6.8923   45.1036  132.7771 C   0  0  0  0  0  0  0  0  0  0  0  0
    7.3263   44.7042  134.0546 C   0  0  0  0  0  0  0  0  0  0  0  0
    8.4430   45.3145  134.5254 C   0  0  0  0  0  0  0  0  0  0  0  0
    9.1240   46.2797  133.7955 C   0  0  0  0  0  0  0  0  0  0  0  0
    6.6169   43.7455  134.7292 O   0  0  0  0  0  0  0  0  0  0  0  0
    6.6026   42.3779  134.6448 C   0  0  0  0  0  0  0  0  0  0  0  0
    6.9429   41.7165  133.3622 C   0  0  0  0  0  0  0  0  0  0  0  0
    8.1008   42.1909  132.6754 N   0  0  0  0  0  0  0  0  0  0  0  0
    9.3615   41.9295  133.2725 C   0  0  0  0  0  0  0  0  0  0  0  0
   10.3903   42.9624  132.8047 C   0  0  0  0  0  0  0  0  0  0  0  0
   10.0392   43.4961  131.4351 C   0  0  0  0  0  0  0  0  0  0  0  0
    9.4023   42.3785  130.6529 C   0  0  0  0  0  0  0  0  0  0  0  0
    8.0654   41.9706  131.2512 C   0  0  0  0  0  0  0  0  0  0  0  0
  1  2  1  0  0  0
  2  3  2  0  0  0
  3  4  1  0  0  0
  4  5  1  0  0  0
  4  6  2  0  0  0
  6  7  1  0  0  0
  7  8  1  0  0  0
  8  9  1  0  0  0
  9 10  1  0  0  0
 10 11  1  0  0  0
 11 12  2  0  0  0
 11 13  1  0  0  0
 10 15  1  0  0  0
 15 16  2  0  0  0
 16 17  1  0  0  0
 17 18  2  0  0  0
 18 19  1  0  0  0
 18 20  1  0  0  0
 20 21  2  0  0  0
  9 23  1  0  0  0
 23 24  2  0  0  0
 24 25  1  0  0  0
 25 26  2  0  0  0
 26 29  1  0  0  0
 29 30  1  0  0  0
 30 31  1  0  0  0
 31 32  1  0  0  0
 32 33  1  0  0  0
 33 34  1  0  0  0
 34 35  1  0  0  0
 35 36  1  0  0  0
 36 37  1  0  0  0
 26 27  1  0  0  0
 27 28  2  0  0  0
 13  2  1  0  0  0
 21 15  1  0  0  0
 28 23  1  0  0  0
 13  7  2  0  0  0
 37 32  1  0  0  0
  5 14  1  0  0  0
 19 22  1  0  0  0
M  END
> <minimizedAffinity>
29.65943

> <CNNscore>
0.3821865916

> <CNNaffinity>
7.0724706650

> <CNN_VS>
2.7030034065

> <CNNaffinity_variance>
1.4115834236

$$$$
[H]Oc1c([H])c([H])c([C@]2([H])C(=O)c3c(c([H])c(O[H])c([H])c3C([H])([H])[H])O[C@]2([H])c2c([H])c([H])c(OC([H])([H])C([H])([H])N3C([H])([H])C([H])([H])C([H])([H])C([H])([H])C3([H])[H])c([H])c2[H])c([H])c1[H]


 37 41  0  0  0  0  0  0  0  0999 V2000
    8.8986   50.3669  129.3647 C   0  0  0  0  0  0  0  0  0  0  0  0
    7.6865   49.5259  129.3932 C   0  0  0  0  0  0  0  0  0  0  0  0
    6.4098   50.0541  129.4065 C   0  0  0  0  0  0  0  0  0  0  0  0
    5.3083   49.2071  129.4310 C   0  0  0  0  0  0  0  0  0  0  0  0
    4.0507   49.7844  129.4439 O   0  0  0  0  0  0  0  0  0  0  0  0
    5.4679   47.8365  129.4417 C   0  0  0  0  0  0  0  0  0  0  0  0
    6.7300   47.3072  129.4284 C   0  0  0  0  0  0  0  0  0  0  0  0
    6.8887   45.9187  129.4395 O   0  0  0  0  0  0  0  0  0  0  0  0
    8.1676   45.3882  129.9254 C   0  0  0  0  0  0  0  0  0  0  0  0
    9.1722   46.0701  129.0988 C   0  0  0  0  0  0  0  0  0  0  0  0
    9.1530   47.5292  129.3908 C   0  0  0  0  0  0  0  0  0  0  0  0
   10.1584   48.2138  129.6134 O   0  0  0  0  0  0  0  0  0  0  0  0
    7.8382   48.1538  129.4043 C   0  0  0  0  0  0  0  0  0  0  0  0
    3.9546   50.7840  129.4366 H   0  0  0  0  0  0  0  0  0  0  0  0
   10.4747   45.4694  128.9190 C   0  0  0  0  0  0  0  0  0  0  0  0
   11.5324   45.8480  129.7044 C   0  0  0  0  0  0  0  0  0  0  0  0
   12.7982   45.2900  129.5613 C   0  0  0  0  0  0  0  0  0  0  0  0
   13.0177   44.3382  128.6208 C   0  0  0  0  0  0  0  0  0  0  0  0
   14.2816   43.7805  128.4777 O   0  0  0  0  0  0  0  0  0  0  0  0
   11.9449   43.9466  127.8155 C   0  0  0  0  0  0  0  0  0  0  0  0
   10.6825   44.5090  127.9645 C   0  0  0  0  0  0  0  0  0  0  0  0
   14.4252   43.0763  127.7747 H   0  0  0  0  0  0  0  0  0  0  0  0
    8.2178   45.4815  131.3678 C   0  0  0  0  0  0  0  0  0  0  0  0
    7.9928   44.4615  132.2439 C   0  0  0  0  0  0  0  0  0  0  0  0
    8.0630   44.6249  133.6096 C   0  0  0  0  0  0  0  0  0  0  0  0
    8.3760   45.8750  134.1745 C   0  0  0  0  0  0  0  0  0  0  0  0
    8.6001   46.8879  133.2998 C   0  0  0  0  0  0  0  0  0  0  0  0
    8.5257   46.7100  131.9247 C   0  0  0  0  0  0  0  0  0  0  0  0
    8.4380   45.9928  135.5382 O   0  0  0  0  0  0  0  0  0  0  0  0
    9.4899   46.0081  136.4162 C   0  0  0  0  0  0  0  0  0  0  0  0
   10.5737   45.0051  136.2831 C   0  0  0  0  0  0  0  0  0  0  0  0
   11.0840   44.7723  134.9706 N   0  0  0  0  0  0  0  0  0  0  0  0
   11.9580   45.7519  134.4312 C   0  0  0  0  0  0  0  0  0  0  0  0
   11.9245   45.7028  132.9014 C   0  0  0  0  0  0  0  0  0  0  0  0
   11.5727   44.3174  132.4105 C   0  0  0  0  0  0  0  0  0  0  0  0
   12.1634   43.3221  133.3733 C   0  0  0  0  0  0  0  0  0  0  0  0
   11.5078   43.4135  134.7419 C   0  0  0  0  0  0  0  0  0  0  0  0
  1  2  1  0  0  0
  2  3  2  0  0  0
  3  4  1  0  0  0
  4  5  1  0  0  0
  4  6  2  0  0  0
  6  7  1  0  0  0
  7  8  1  0  0  0
  8  9  1  0  0  0
  9 10  1  0  0  0
 10 11  1  0  0  0
 11 12  2  0  0  0
 11 13  1  0  0  0
 10 15  1  0  0  0
 15 16  2  0  0  0
 16 17  1  0  0  0
 17 18  2  0  0  0
 18 19  1  0  0  0
 18 20  1  0  0  0
 20 21  2  0  0  0
  9 23  1  0  0  0
 23 24  2  0  0  0
 24 25  1  0  0  0
 25 26  2  0  0  0
 26 29  1  0  0  0
 29 30  1  0  0  0
 30 31  1  0  0  0
 31 32  1  0  0  0
 32 33  1  0  0  0
 33 34  1  0  0  0
 34 35  1  0  0  0
 35 36  1  0  0  0
 36 37  1  0  0  0
 26 27  1  0  0  0
 27 28  2  0  0  0
 13  2  1  0  0  0
 21 15  1  0  0  0
 28 23  1  0  0  0
 13  7  2  0  0  0
 37 32  1  0  0  0
  5 14  1  0  0  0
 19 22  1  0  0  0
M  END
> <minimizedAffinity>
2.81536

> <CNNscore>
0.3665746450

> <CNNaffinity>
7.5392656326

> <CNN_VS>
2.7637035847

> <CNNaffinity_variance>
0.5327433348

$$$$
[H]Oc1c([H])c([H])c([C@]2([H])C(=O)c3c(c([H])c(O[H])c([H])c3C([H])([H])[H])O[C@]2([H])c2c([H])c([H])c(OC([H])([H])C([H])([H])N3C([H])([H])C([H])([H])C([H])([H])C([H])([H])C3([H])[H])c([H])c2[H])c([H])c1[H]


 37 41  0  0  0  0  0  0  0  0999 V2000
   11.9913   47.7014  133.4201 C   0  0  0  0  0  0  0  0  0  0  0  0
   10.9703   46.7581  133.9151 C   0  0  0  0  0  0  0  0  0  0  0  0
   11.2142   45.8600  134.9364 C   0  0  0  0  0  0  0  0  0  0  0  0
   10.2085   44.9989  135.3585 C   0  0  0  0  0  0  0  0  0  0  0  0
   10.5020   44.1177  136.3844 O   0  0  0  0  0  0  0  0  0  0  0  0
    8.9599   45.0250  134.7715 C   0  0  0  0  0  0  0  0  0  0  0  0
    8.7120   45.9125  133.7595 C   0  0  0  0  0  0  0  0  0  0  0  0
    7.4467   45.9367  133.1666 O   0  0  0  0  0  0  0  0  0  0  0  0
    7.3453   46.4914  131.8119 C   0  0  0  0  0  0  0  0  0  0  0  0
    7.9455   47.8270  131.9289 C   0  0  0  0  0  0  0  0  0  0  0  0
    9.3923   47.6981  132.2526 C   0  0  0  0  0  0  0  0  0  0  0  0
   10.2981   48.3097  131.6743 O   0  0  0  0  0  0  0  0  0  0  0  0
    9.7189   46.7782  133.3325 C   0  0  0  0  0  0  0  0  0  0  0  0
   11.4167   44.1130  136.7988 H   0  0  0  0  0  0  0  0  0  0  0  0
    7.5908   48.8542  130.9758 C   0  0  0  0  0  0  0  0  0  0  0  0
    8.2453   50.0586  130.9716 C   0  0  0  0  0  0  0  0  0  0  0  0
    7.9325   51.0684  130.0679 C   0  0  0  0  0  0  0  0  0  0  0  0
    6.9516   50.8786  129.1514 C   0  0  0  0  0  0  0  0  0  0  0  0
    6.6390   51.8867  128.2486 O   0  0  0  0  0  0  0  0  0  0  0  0
    6.2789   49.6537  129.1488 C   0  0  0  0  0  0  0  0  0  0  0  0
    6.5972   48.6491  130.0553 C   0  0  0  0  0  0  0  0  0  0  0  0
    5.9085   51.7277  127.5764 H   0  0  0  0  0  0  0  0  0  0  0  0
    7.8591   45.5370  130.8543 C   0  0  0  0  0  0  0  0  0  0  0  0
    7.9736   45.7347  129.5103 C   0  0  0  0  0  0  0  0  0  0  0  0
    8.4784   44.7777  128.6581 C   0  0  0  0  0  0  0  0  0  0  0  0
    8.9075   43.5288  129.1441 C   0  0  0  0  0  0  0  0  0  0  0  0
    8.7928   43.3357  130.4823 C   0  0  0  0  0  0  0  0  0  0  0  0
    8.2815   44.3087  131.3306 C   0  0  0  0  0  0  0  0  0  0  0  0
    9.4057   42.6065  128.2617 O   0  0  0  0  0  0  0  0  0  0  0  0
   10.4751   42.6328  127.4053 C   0  0  0  0  0  0  0  0  0  0  0  0
   11.4488   43.7485  127.4784 C   0  0  0  0  0  0  0  0  0  0  0  0
   11.7993   44.2188  128.7796 N   0  0  0  0  0  0  0  0  0  0  0  0
   13.1479   44.0506  129.1886 C   0  0  0  0  0  0  0  0  0  0  0  0
   13.2346   44.0154  130.7167 C   0  0  0  0  0  0  0  0  0  0  0  0
   12.1048   44.8002  131.3425 C   0  0  0  0  0  0  0  0  0  0  0  0
   11.7983   45.9671  130.4419 C   0  0  0  0  0  0  0  0  0  0  0  0
   11.2407   45.5075  129.1042 C   0  0  0  0  0  0  0  0  0  0  0  0
  1  2  1  0  0  0
  2  3  2  0  0  0
  3  4  1  0  0  0
  4  5  1  0  0  0
  4  6  2  0  0  0
  6  7  1  0  0  0
  7  8  1  0  0  0
  8  9  1  0  0  0
  9 10  1  0  0  0
 10 11  1  0  0  0
 11 12  2  0  0  0
 11 13  1  0  0  0
 10 15  1  0  0  0
 15 16  2  0  0  0
 16 17  1  0  0  0
 17 18  2  0  0  0
 18 19  1  0  0  0
 18 20  1  0  0  0
 20 21  2  0  0  0
  9 23  1  0  0  0
 23 24  2  0  0  0
 24 25  1  0  0  0
 25 26  2  0  0  0
 26 29  1  0  0  0
 29 30  1  0  0  0
 30 31  1  0  0  0
 31 32  1  0  0  0
 32 33  1  0  0  0
 33 34  1  0  0  0
 34 35  1  0  0  0
 35 36  1  0  0  0
 36 37  1  0  0  0
 26 27  1  0  0  0
 27 28  2  0  0  0
 13  2  1  0  0  0
 21 15  1  0  0  0
 28 23  1  0  0  0
 13  7  2  0  0  0
 37 32  1  0  0  0
  5 14  1  0  0  0
 19 22  1  0  0  0
M  END
> <minimizedAffinity>
2.89009

> <CNNscore>
0.3566257358

> <CNNaffinity>
7.5018796921

> <CNN_VS>
2.6753633022

> <CNNaffinity_variance>
0.2331256568

$$$$
[H]Oc1c([H])c([H])c([C@]2([H])C(=O)c3c(c([H])c(O[H])c([H])c3C([H])([H])[H])O[C@]2([H])c2c([H])c([H])c(OC([H])([H])C([H])([H])N3C([H])([H])C([H])([H])C([H])([H])C([H])([H])C3([H])[H])c([H])c2[H])c([H])c1[H]


 37 41  0  0  0  0  0  0  0  0999 V2000
   12.2282   43.0413  133.0528 C   0  0  0  0  0  0  0  0  0  0  0  0
   10.7683   43.2157  133.1773 C   0  0  0  0  0  0  0  0  0  0  0  0
    9.8699   42.1929  132.9408 C   0  0  0  0  0  0  0  0  0  0  0  0
    8.5060   42.4214  133.0778 C   0  0  0  0  0  0  0  0  0  0  0  0
    7.6468   41.3654  132.8296 O   0  0  0  0  0  0  0  0  0  0  0  0
    8.0286   43.6617  133.4493 C   0  0  0  0  0  0  0  0  0  0  0  0
    8.9135   44.6789  133.6851 C   0  0  0  0  0  0  0  0  0  0  0  0
    8.4272   45.9341  134.0611 O   0  0  0  0  0  0  0  0  0  0  0  0
    9.2920   47.0945  133.8188 C   0  0  0  0  0  0  0  0  0  0  0  0
   10.5507   46.7461  134.4910 C   0  0  0  0  0  0  0  0  0  0  0  0
   11.1720   45.5758  133.8135 C   0  0  0  0  0  0  0  0  0  0  0  0
   12.3600   45.5085  133.4773 O   0  0  0  0  0  0  0  0  0  0  0  0
   10.2832   44.4539  133.5483 C   0  0  0  0  0  0  0  0  0  0  0  0
    8.0129   40.4702  132.5595 H   0  0  0  0  0  0  0  0  0  0  0  0
   11.4508   47.7974  134.9086 C   0  0  0  0  0  0  0  0  0  0  0  0
   11.2662   49.0859  134.4791 C   0  0  0  0  0  0  0  0  0  0  0  0
   12.1104   50.1225  134.8624 C   0  0  0  0  0  0  0  0  0  0  0  0
   13.1573   49.8749  135.6876 C   0  0  0  0  0  0  0  0  0  0  0  0
   14.0005   50.9098  136.0708 O   0  0  0  0  0  0  0  0  0  0  0  0
   13.3531   48.5638  136.1300 C   0  0  0  0  0  0  0  0  0  0  0  0
   12.5050   47.5329  135.7425 C   0  0  0  0  0  0  0  0  0  0  0  0
   14.7717   50.7069  136.6831 H   0  0  0  0  0  0  0  0  0  0  0  0
    9.2790   47.4269  132.4112 C   0  0  0  0  0  0  0  0  0  0  0  0
    9.9958   48.4233  131.8178 C   0  0  0  0  0  0  0  0  0  0  0  0
    9.9357   48.6789  130.4658 C   0  0  0  0  0  0  0  0  0  0  0  0
    9.1170   47.9094  129.6188 C   0  0  0  0  0  0  0  0  0  0  0  0
    8.4056   46.9182  130.2124 C   0  0  0  0  0  0  0  0  0  0  0  0
    8.4747   46.6711  131.5770 C   0  0  0  0  0  0  0  0  0  0  0  0
    9.0892   48.1961  128.2792 O   0  0  0  0  0  0  0  0  0  0  0  0
    8.0747   48.2041  127.3582 C   0  0  0  0  0  0  0  0  0  0  0  0
    6.6743   48.0098  127.8047 C   0  0  0  0  0  0  0  0  0  0  0  0
    6.1493   48.9652  128.7261 N   0  0  0  0  0  0  0  0  0  0  0  0
    5.0036   48.5848  129.4725 C   0  0  0  0  0  0  0  0  0  0  0  0
    4.2260   49.8274  129.9141 C   0  0  0  0  0  0  0  0  0  0  0  0
    5.1435   51.0201  130.0548 C   0  0  0  0  0  0  0  0  0  0  0  0
    6.4786   50.5214  130.5398 C   0  0  0  0  0  0  0  0  0  0  0  0
    7.1580   49.6454  129.4994 C   0  0  0  0  0  0  0  0  0  0  0  0
  1  2  1  0  0  0
  2  3  2  0  0  0
  3  4  1  0  0  0
  4  5  1  0  0  0
  4  6  2  0  0  0
  6  7  1  0  0  0
  7  8  1  0  0  0
  8  9  1  0  0  0
  9 10  1  0  0  0
 10 11  1  0  0  0
 11 12  2  0  0  0
 11 13  1  0  0  0
 10 15  1  0  0  0
 15 16  2  0  0  0
 16 17  1  0  0  0
 17 18  2  0  0  0
 18 19  1  0  0  0
 18 20  1  0  0  0
 20 21  2  0  0  0
  9 23  1  0  0  0
 23 24  2  0  0  0
 24 25  1  0  0  0
 25 26  2  0  0  0
 26 29  1  0  0  0
 29 30  1  0  0  0
 30 31  1  0  0  0
 31 32  1  0  0  0
 32 33  1  0  0  0
 33 34  1  0  0  0
 34 35  1  0  0  0
 35 36  1  0  0  0
 36 37  1  0  0  0
 26 27  1  0  0  0
 27 28  2  0  0  0
 13  2  1  0  0  0
 21 15  1  0  0  0
 28 23  1  0  0  0
 13  7  2  0  0  0
 37 32  1  0  0  0
  5 14  1  0  0  0
 19 22  1  0  0  0
M  END
> <minimizedAffinity>
23.47072

> <CNNscore>
0.3452067077

> <CNNaffinity>
7.4158186913

> <CNN_VS>
2.5599904060

> <CNNaffinity_variance>
1.4342784882

$$$$
[H]Oc1c([H])c([H])c([C@]2([H])C(=O)c3c(c([H])c(O[H])c([H])c3C([H])([H])[H])O[C@]2([H])c2c([H])c([H])c(OC([H])([H])C([H])([H])N3C([H])([H])C([H])([H])C([H])([H])C([H])([H])C3([H])[H])c([H])c2[H])c([H])c1[H]


 37 41  0  0  0  0  0  0  0  0999 V2000
    9.4050   43.5447  128.9141 C   0  0  0  0  0  0  0  0  0  0  0  0
   10.5770   44.4097  129.1497 C   0  0  0  0  0  0  0  0  0  0  0  0
   11.8762   43.9446  129.0790 C   0  0  0  0  0  0  0  0  0  0  0  0
   12.9375   44.8117  129.3095 C   0  0  0  0  0  0  0  0  0  0  0  0
   14.2199   44.2980  129.2274 O   0  0  0  0  0  0  0  0  0  0  0  0
   12.7154   46.1401  129.6097 C   0  0  0  0  0  0  0  0  0  0  0  0
   11.4308   46.6069  129.6809 C   0  0  0  0  0  0  0  0  0  0  0  0
   11.2088   47.9528  129.9854 O   0  0  0  0  0  0  0  0  0  0  0  0
    9.9005   48.3127  130.5441 C   0  0  0  0  0  0  0  0  0  0  0  0
    8.9393   47.7831  129.5678 C   0  0  0  0  0  0  0  0  0  0  0  0
    9.0211   46.2974  129.5411 C   0  0  0  0  0  0  0  0  0  0  0  0
    8.0452   45.5397  129.5889 O   0  0  0  0  0  0  0  0  0  0  0  0
   10.3627   45.7399  129.4508 C   0  0  0  0  0  0  0  0  0  0  0  0
   14.3616   43.3283  129.0085 H   0  0  0  0  0  0  0  0  0  0  0  0
    7.6133   48.3536  129.4909 C   0  0  0  0  0  0  0  0  0  0  0  0
    6.6226   47.7242  128.7829 C   0  0  0  0  0  0  0  0  0  0  0  0
    5.3355   48.2425  128.6895 C   0  0  0  0  0  0  0  0  0  0  0  0
    5.0264   49.4073  129.3108 C   0  0  0  0  0  0  0  0  0  0  0  0
    3.7409   49.9250  129.2180 O   0  0  0  0  0  0  0  0  0  0  0  0
    6.0306   50.0557  130.0346 C   0  0  0  0  0  0  0  0  0  0  0  0
    7.3149   49.5315  130.1235 C   0  0  0  0  0  0  0  0  0  0  0  0
    3.5306   50.7900  129.6853 H   0  0  0  0  0  0  0  0  0  0  0  0
    9.8352   47.9096  131.9316 C   0  0  0  0  0  0  0  0  0  0  0  0
    8.8329   48.2097  132.8056 C   0  0  0  0  0  0  0  0  0  0  0  0
    8.8368   47.7857  134.1159 C   0  0  0  0  0  0  0  0  0  0  0  0
    9.8948   47.0086  134.6226 C   0  0  0  0  0  0  0  0  0  0  0  0
   10.8904   46.7111  133.7499 C   0  0  0  0  0  0  0  0  0  0  0  0
   10.8746   47.1454  132.4312 C   0  0  0  0  0  0  0  0  0  0  0  0
    9.8574   46.6057  135.9317 O   0  0  0  0  0  0  0  0  0  0  0  0
    9.8881   45.3671  136.5171 C   0  0  0  0  0  0  0  0  0  0  0  0
   10.8962   44.3717  136.0800 C   0  0  0  0  0  0  0  0  0  0  0  0
   10.8838   43.9984  134.7024 N   0  0  0  0  0  0  0  0  0  0  0  0
   12.0470   43.3659  134.1913 C   0  0  0  0  0  0  0  0  0  0  0  0
   12.1424   43.5815  132.6786 C   0  0  0  0  0  0  0  0  0  0  0  0
   10.7717   43.7662  132.0694 C   0  0  0  0  0  0  0  0  0  0  0  0
    9.8038   42.9090  132.8406 C   0  0  0  0  0  0  0  0  0  0  0  0
    9.6471   43.3952  134.2726 C   0  0  0  0  0  0  0  0  0  0  0  0
  1  2  1  0  0  0
  2  3  2  0  0  0
  3  4  1  0  0  0
  4  5  1  0  0  0
  4  6  2  0  0  0
  6  7  1  0  0  0
  7  8  1  0  0  0
  8  9  1  0  0  0
  9 10  1  0  0  0
 10 11  1  0  0  0
 11 12  2  0  0  0
 11 13  1  0  0  0
 10 15  1  0  0  0
 15 16  2  0  0  0
 16 17  1  0  0  0
 17 18  2  0  0  0
 18 19  1  0  0  0
 18 20  1  0  0  0
 20 21  2  0  0  0
  9 23  1  0  0  0
 23 24  2  0  0  0
 24 25  1  0  0  0
 25 26  2  0  0  0
 26 29  1  0  0  0
 29 30  1  0  0  0
 30 31  1  0  0  0
 31 32  1  0  0  0
 32 33  1  0  0  0
 33 34  1  0  0  0
 34 35  1  0  0  0
 35 36  1  0  0  0
 36 37  1  0  0  0
 26 27  1  0  0  0
 27 28  2  0  0  0
 13  2  1  0  0  0
 21 15  1  0  0  0
 28 23  1  0  0  0
 13  7  2  0  0  0
 37 32  1  0  0  0
  5 14  1  0  0  0
 19 22  1  0  0  0
M  END
> <minimizedAffinity>
2.62895

> <CNNscore>
0.3385012448

> <CNNaffinity>
7.5894165039

> <CNN_VS>
2.5690269470

> <CNNaffinity_variance>
0.2016374618

$$$$
[H]OC([H])([H])C(F)(F)C([H])([H])N1[C@]([H])(c2c([H])c([H])c(OC([H])([H])C([H])([H])N([H])C([H])([H])C([H])([H])C([H])([H])F)c([H])c2OC([H])([H])[H])c2c(c3c([H])c([H])c([H])c([H])c3n2[H])C([H])([H])[C@@]1([H])C([H])([H])[H]


 39 42  0  0  0  0  0  0  0  0999 V2000
   10.6491   46.2877  131.4773 C   0  0  0  0  0  0  0  0  0  0  0  0
   10.1046   45.1404  132.2617 N   0  0  0  0  0  0  0  0  0  0  0  0
   11.1744   44.6246  133.0517 C   0  0  0  0  0  0  0  0  0  0  0  0
   10.9571   44.9062  134.5436 C   0  0  0  0  0  0  0  0  0  0  0  0
   12.5751   45.1240  132.6500 C   0  0  0  0  0  0  0  0  0  0  0  0
   12.6405   45.0240  131.1640 C   0  0  0  0  0  0  0  0  0  0  0  0
   11.5605   45.6544  130.5191 C   0  0  0  0  0  0  0  0  0  0  0  0
   11.7340   45.4807  129.2061 N   0  0  0  0  0  0  0  0  0  0  0  0
   12.8634   44.7782  129.0143 C   0  0  0  0  0  0  0  0  0  0  0  0
   13.5134   44.3235  127.8669 C   0  0  0  0  0  0  0  0  0  0  0  0
   14.6873   43.6118  127.9655 C   0  0  0  0  0  0  0  0  0  0  0  0
   15.2441   43.3335  129.2009 C   0  0  0  0  0  0  0  0  0  0  0  0
   14.6248   43.7690  130.3552 C   0  0  0  0  0  0  0  0  0  0  0  0
   13.4504   44.4795  130.2156 C   0  0  0  0  0  0  0  0  0  0  0  0
   11.0748   45.8460  128.4734 H   0  0  0  0  0  0  0  0  0  0  0  0
    9.3564   48.3532  131.6127 C   0  0  0  0  0  0  0  0  0  0  0  0
    8.3636   49.1794  131.1752 C   0  0  0  0  0  0  0  0  0  0  0  0
    7.5671   48.8752  130.0573 C   0  0  0  0  0  0  0  0  0  0  0  0
    7.8690   47.6623  129.4276 C   0  0  0  0  0  0  0  0  0  0  0  0
    8.8743   46.8476  129.8884 C   0  0  0  0  0  0  0  0  0  0  0  0
    9.6349   47.1701  130.9803 C   0  0  0  0  0  0  0  0  0  0  0  0
   10.0297   50.1023  133.2129 C   0  0  0  0  0  0  0  0  0  0  0  0
   10.0691   48.7741  132.7326 O   0  0  0  0  0  0  0  0  0  0  0  0
    6.6196   49.6846  129.6526 O   0  0  0  0  0  0  0  0  0  0  0  0
    5.6389   50.3950  129.2375 C   0  0  0  0  0  0  0  0  0  0  0  0
    5.9645   51.9003  129.1314 C   0  0  0  0  0  0  0  0  0  0  0  0
    7.1098   52.1597  128.3125 N   0  0  0  0  0  0  0  0  0  0  0  0
    7.0274   51.5312  127.4706 H   0  0  0  0  0  0  0  0  0  0  0  0
    7.2167   53.5131  127.8403 C   0  0  0  0  0  0  0  0  0  0  0  0
    7.4974   53.5696  126.3540 C   0  0  0  0  0  0  0  0  0  0  0  0
    6.6944   54.6447  125.6988 C   0  0  0  0  0  0  0  0  0  0  0  0
    6.8150   54.5194  124.3231 F   0  0  0  0  0  0  0  0  0  0  0  0
    9.5369   44.2458  131.3033 C   0  0  0  0  0  0  0  0  0  0  0  0
    8.3561   43.4347  131.6244 C   0  0  0  0  0  0  0  0  0  0  0  0
    7.2685   44.3953  131.5804 F   0  0  0  0  0  0  0  0  0  0  0  0
    8.2537   42.9076  132.8689 F   0  0  0  0  0  0  0  0  0  0  0  0
    7.9035   42.3862  130.6369 C   0  0  0  0  0  0  0  0  0  0  0  0
    8.7237   42.3561  129.4904 O   0  0  0  0  0  0  0  0  0  0  0  0
    9.1207   43.2742  129.3698 H   0  0  0  0  0  0  0  0  0  0  0  0
 22 23  1  0  0  0
 23 16  1  0  0  0
 16 17  2  0  0  0
 17 18  1  0  0  0
 18 24  1  0  0  0
 24 25  1  0  0  0
 25 26  1  0  0  0
 26 27  1  0  0  0
 27 29  1  0  0  0
 29 30  1  0  0  0
 30 31  1  0  0  0
 31 32  1  0  0  0
 18 19  2  0  0  0
 19 20  1  0  0  0
 20 21  2  0  0  0
 21  1  1  0  0  0
  1  2  1  0  0  0
  2 33  1  0  0  0
 33 34  1  0  0  0
 34 35  1  0  0  0
 34 36  1  0  0  0
 34 37  1  0  0  0
 37 38  1  0  0  0
  2  3  1  0  0  0
  3  4  1  0  0  0
  3  5  1  0  0  0
  5  6  1  0  0  0
  6  7  2  0  0  0
  7  8  1  0  0  0
  8  9  1  0  0  0
  9 10  2  0  0  0
 10 11  1  0  0  0
 11 12  2  0  0  0
 12 13  1  0  0  0
 13 14  2  0  0  0
 21 16  1  0  0  0
  7  1  1  0  0  0
 14  9  1  0  0  0
 14  6  1  0  0  0
 27 28  1  0  0  0
 38 39  1  0  0  0
  8 15  1  0  0  0
M  END
> <minimizedAffinity>
5.25013

> <CNNscore>
0.4451492131

> <CNNaffinity>
7.6692719460

> <CNN_VS>
3.4139704704

> <CNNaffinity_variance>
0.6956099272

$$$$
[H]OC([H])([H])C(F)(F)C([H])([H])N1[C@]([H])(c2c([H])c([H])c(OC([H])([H])C([H])([H])N([H])C([H])([H])C([H])([H])C([H])([H])F)c([H])c2OC([H])([H])[H])c2c(c3c([H])c([H])c([H])c([H])c3n2[H])C([H])([H])[C@@]1([H])C([H])([H])[H]


 39 42  0  0  0  0  0  0  0  0999 V2000
   10.8613   46.7702  131.9911 C   0  0  0  0  0  0  0  0  0  0  0  0
   11.1889   46.6287  133.4405 N   0  0  0  0  0  0  0  0  0  0  0  0
   12.2862   45.7224  133.5380 C   0  0  0  0  0  0  0  0  0  0  0  0
   13.5673   46.4377  133.9843 C   0  0  0  0  0  0  0  0  0  0  0  0
   12.5831   44.9249  132.2540 C   0  0  0  0  0  0  0  0  0  0  0  0
   11.2656   44.4375  131.7547 C   0  0  0  0  0  0  0  0  0  0  0  0
   10.3088   45.4613  131.6286 C   0  0  0  0  0  0  0  0  0  0  0  0
    9.1830   44.8920  131.1893 N   0  0  0  0  0  0  0  0  0  0  0  0
    9.4015   43.5746  131.0393 C   0  0  0  0  0  0  0  0  0  0  0  0
    8.5910   42.5218  130.6145 C   0  0  0  0  0  0  0  0  0  0  0  0
    9.0876   41.2398  130.5528 C   0  0  0  0  0  0  0  0  0  0  0  0
   10.3966   40.9702  130.9102 C   0  0  0  0  0  0  0  0  0  0  0  0
   11.2239   41.9903  131.3354 C   0  0  0  0  0  0  0  0  0  0  0  0
   10.6901   43.2615  131.3835 C   0  0  0  0  0  0  0  0  0  0  0  0
    8.2924   45.4187  131.0040 H   0  0  0  0  0  0  0  0  0  0  0  0
    9.5152   48.1154  130.4634 C   0  0  0  0  0  0  0  0  0  0  0  0
    8.8234   49.2488  130.1526 C   0  0  0  0  0  0  0  0  0  0  0  0
    8.6625   50.3078  131.0633 C   0  0  0  0  0  0  0  0  0  0  0  0
    9.2648   50.1120  132.3114 C   0  0  0  0  0  0  0  0  0  0  0  0
    9.9567   48.9609  132.5995 C   0  0  0  0  0  0  0  0  0  0  0  0
   10.0967   47.9450  131.6922 C   0  0  0  0  0  0  0  0  0  0  0  0
    8.4631   46.5984  128.8310 C   0  0  0  0  0  0  0  0  0  0  0  0
    9.5995   47.1444  129.4688 O   0  0  0  0  0  0  0  0  0  0  0  0
    7.9917   51.3872  130.7448 O   0  0  0  0  0  0  0  0  0  0  0  0
    7.2744   52.3836  130.3821 C   0  0  0  0  0  0  0  0  0  0  0  0
    6.1340   52.0066  129.4122 C   0  0  0  0  0  0  0  0  0  0  0  0
    6.5705   51.1412  128.3587 N   0  0  0  0  0  0  0  0  0  0  0  0
    5.7023   50.8048  127.8652 H   0  0  0  0  0  0  0  0  0  0  0  0
    7.4169   51.7663  127.3794 C   0  0  0  0  0  0  0  0  0  0  0  0
    7.1329   53.2477  127.2541 C   0  0  0  0  0  0  0  0  0  0  0  0
    7.6934   53.7939  125.9824 C   0  0  0  0  0  0  0  0  0  0  0  0
    8.7644   54.6218  126.2832 F   0  0  0  0  0  0  0  0  0  0  0  0
    9.9759   46.2250  134.0781 C   0  0  0  0  0  0  0  0  0  0  0  0
    9.9011   44.9818  134.8554 C   0  0  0  0  0  0  0  0  0  0  0  0
    9.6723   45.4482  136.2110 F   0  0  0  0  0  0  0  0  0  0  0  0
   11.0196   44.2252  134.9726 F   0  0  0  0  0  0  0  0  0  0  0  0
    8.7327   44.0524  134.6302 C   0  0  0  0  0  0  0  0  0  0  0  0
    7.8111   44.5826  133.7042 O   0  0  0  0  0  0  0  0  0  0  0  0
    7.8812   45.5871  133.7384 H   0  0  0  0  0  0  0  0  0  0  0  0
 22 23  1  0  0  0
 23 16  1  0  0  0
 16 17  2  0  0  0
 17 18  1  0  0  0
 18 24  1  0  0  0
 24 25  1  0  0  0
 25 26  1  0  0  0
 26 27  1  0  0  0
 27 29  1  0  0  0
 29 30  1  0  0  0
 30 31  1  0  0  0
 31 32  1  0  0  0
 18 19  2  0  0  0
 19 20  1  0  0  0
 20 21  2  0  0  0
 21  1  1  0  0  0
  1  2  1  0  0  0
  2 33  1  0  0  0
 33 34  1  0  0  0
 34 35  1  0  0  0
 34 36  1  0  0  0
 34 37  1  0  0  0
 37 38  1  0  0  0
  2  3  1  0  0  0
  3  4  1  0  0  0
  3  5  1  0  0  0
  5  6  1  0  0  0
  6  7  2  0  0  0
  7  8  1  0  0  0
  8  9  1  0  0  0
  9 10  2  0  0  0
 10 11  1  0  0  0
 11 12  2  0  0  0
 12 13  1  0  0  0
 13 14  2  0  0  0
 21 16  1  0  0  0
  7  1  1  0  0  0
 14  9  1  0  0  0
 14  6  1  0  0  0
 27 28  1  0  0  0
 38 39  1  0  0  0
  8 15  1  0  0  0
M  END
> <minimizedAffinity>
8.30813

> <CNNscore>
0.4069789052

> <CNNaffinity>
7.8571066856

> <CNN_VS>
3.1976766586

> <CNNaffinity_variance>
1.7047386169

$$$$
[H]OC([H])([H])C(F)(F)C([H])([H])N1[C@]([H])(c2c([H])c([H])c(OC([H])([H])C([H])([H])N([H])C([H])([H])C([H])([H])C([H])([H])F)c([H])c2OC([H])([H])[H])c2c(c3c([H])c([H])c([H])c([H])c3n2[H])C([H])([H])[C@@]1([H])C([H])([H])[H]


 39 42  0  0  0  0  0  0  0  0999 V2000
   10.1057   47.1665  131.2036 C   0  0  0  0  0  0  0  0  0  0  0  0
   10.0924   47.1868  132.6961 N   0  0  0  0  0  0  0  0  0  0  0  0
   11.2150   46.4258  133.1379 C   0  0  0  0  0  0  0  0  0  0  0  0
   12.2814   47.3202  133.7822 C   0  0  0  0  0  0  0  0  0  0  0  0
   11.8810   45.5628  132.0495 C   0  0  0  0  0  0  0  0  0  0  0  0
   10.7709   44.8851  131.3208 C   0  0  0  0  0  0  0  0  0  0  0  0
    9.7797   45.7763  130.8704 C   0  0  0  0  0  0  0  0  0  0  0  0
    8.8484   45.0450  130.2521 N   0  0  0  0  0  0  0  0  0  0  0  0
    9.2184   43.7540  130.3001 C   0  0  0  0  0  0  0  0  0  0  0  0
    8.6337   42.5821  129.8202 C   0  0  0  0  0  0  0  0  0  0  0  0
    9.2484   41.3659  130.0128 C   0  0  0  0  0  0  0  0  0  0  0  0
   10.4546   41.2815  130.6848 C   0  0  0  0  0  0  0  0  0  0  0  0
   11.0586   42.4231  131.1725 C   0  0  0  0  0  0  0  0  0  0  0  0
   10.4122   43.6231  130.9594 C   0  0  0  0  0  0  0  0  0  0  0  0
    7.9819   45.4470  129.8135 H   0  0  0  0  0  0  0  0  0  0  0  0
    9.3061   49.4717  131.1584 C   0  0  0  0  0  0  0  0  0  0  0  0
    8.5345   50.4650  130.6313 C   0  0  0  0  0  0  0  0  0  0  0  0
    7.7171   50.2677  129.5046 C   0  0  0  0  0  0  0  0  0  0  0  0
    7.7544   48.9770  128.9647 C   0  0  0  0  0  0  0  0  0  0  0  0
    8.5401   47.9937  129.5147 C   0  0  0  0  0  0  0  0  0  0  0  0
    9.3274   48.2150  130.6129 C   0  0  0  0  0  0  0  0  0  0  0  0
    9.6811   50.7954  133.2029 C   0  0  0  0  0  0  0  0  0  0  0  0
   10.0680   49.8012  132.2765 O   0  0  0  0  0  0  0  0  0  0  0  0
    6.9851   51.2369  129.0131 O   0  0  0  0  0  0  0  0  0  0  0  0
    6.3508   52.2415  128.5365 C   0  0  0  0  0  0  0  0  0  0  0  0
    7.2712   53.3556  127.9936 C   0  0  0  0  0  0  0  0  0  0  0  0
    6.8262   53.8732  126.7353 N   0  0  0  0  0  0  0  0  0  0  0  0
    6.0017   54.4968  126.9400 H   0  0  0  0  0  0  0  0  0  0  0  0
    7.8027   54.6559  126.0282 C   0  0  0  0  0  0  0  0  0  0  0  0
    8.2807   53.9583  124.7729 C   0  0  0  0  0  0  0  0  0  0  0  0
    7.7869   54.6596  123.5505 C   0  0  0  0  0  0  0  0  0  0  0  0
    6.4616   54.3116  123.3381 F   0  0  0  0  0  0  0  0  0  0  0  0
    8.8060   46.6999  133.0824 C   0  0  0  0  0  0  0  0  0  0  0  0
    8.6434   45.8143  134.2419 C   0  0  0  0  0  0  0  0  0  0  0  0
    7.2550   46.0081  134.6187 F   0  0  0  0  0  0  0  0  0  0  0  0
    9.3176   46.1100  135.3799 F   0  0  0  0  0  0  0  0  0  0  0  0
    8.7177   44.3208  134.0325 C   0  0  0  0  0  0  0  0  0  0  0  0
   10.0128   43.8202  134.2774 O   0  0  0  0  0  0  0  0  0  0  0  0
   10.6702   44.5629  134.1004 H   0  0  0  0  0  0  0  0  0  0  0  0
 22 23  1  0  0  0
 23 16  1  0  0  0
 16 17  2  0  0  0
 17 18  1  0  0  0
 18 24  1  0  0  0
 24 25  1  0  0  0
 25 26  1  0  0  0
 26 27  1  0  0  0
 27 29  1  0  0  0
 29 30  1  0  0  0
 30 31  1  0  0  0
 31 32  1  0  0  0
 18 19  2  0  0  0
 19 20  1  0  0  0
 20 21  2  0  0  0
 21  1  1  0  0  0
  1  2  1  0  0  0
  2 33  1  0  0  0
 33 34  1  0  0  0
 34 35  1  0  0  0
 34 36  1  0  0  0
 34 37  1  0  0  0
 37 38  1  0  0  0
  2  3  1  0  0  0
  3  4  1  0  0  0
  3  5  1  0  0  0
  5  6  1  0  0  0
  6  7  2  0  0  0
  7  8  1  0  0  0
  8  9  1  0  0  0
  9 10  2  0  0  0
 10 11  1  0  0  0
 11 12  2  0  0  0
 12 13  1  0  0  0
 13 14  2  0  0  0
 21 16  1  0  0  0
  7  1  1  0  0  0
 14  9  1  0  0  0
 14  6  1  0  0  0
 27 28  1  0  0  0
 38 39  1  0  0  0
  8 15  1  0  0  0
M  END
> <minimizedAffinity>
-0.44241

> <CNNscore>
0.3871890903

> <CNNaffinity>
7.4792127609

> <CNN_VS>
2.8958694935

> <CNNaffinity_variance>
0.3457016945

$$$$
[H]OC([H])([H])C(F)(F)C([H])([H])N1[C@]([H])(c2c([H])c([H])c(OC([H])([H])C([H])([H])N([H])C([H])([H])C([H])([H])C([H])([H])F)c([H])c2OC([H])([H])[H])c2c(c3c([H])c([H])c([H])c([H])c3n2[H])C([H])([H])[C@@]1([H])C([H])([H])[H]


 39 42  0  0  0  0  0  0  0  0999 V2000
   10.1741   45.2869  130.6902 C   0  0  0  0  0  0  0  0  0  0  0  0
   11.4380   45.6700  131.3859 N   0  0  0  0  0  0  0  0  0  0  0  0
   12.2478   44.4983  131.4639 C   0  0  0  0  0  0  0  0  0  0  0  0
   13.4791   44.6052  130.5558 C   0  0  0  0  0  0  0  0  0  0  0  0
   11.5125   43.1812  131.1521 C   0  0  0  0  0  0  0  0  0  0  0  0
   10.2239   43.2387  131.8996 C   0  0  0  0  0  0  0  0  0  0  0  0
    9.4945   44.4166  131.6548 C   0  0  0  0  0  0  0  0  0  0  0  0
    8.3803   44.3459  132.3882 N   0  0  0  0  0  0  0  0  0  0  0  0
    8.3897   43.1865  133.0677 C   0  0  0  0  0  0  0  0  0  0  0  0
    7.4926   42.6062  133.9644 C   0  0  0  0  0  0  0  0  0  0  0  0
    7.7599   41.3766  134.5217 C   0  0  0  0  0  0  0  0  0  0  0  0
    8.9206   40.6937  134.2051 C   0  0  0  0  0  0  0  0  0  0  0  0
    9.8289   41.2415  133.3215 C   0  0  0  0  0  0  0  0  0  0  0  0
    9.5256   42.4751  132.7835 C   0  0  0  0  0  0  0  0  0  0  0  0
    7.6412   45.0931  132.4068 H   0  0  0  0  0  0  0  0  0  0  0  0
    9.6512   46.8110  128.8573 C   0  0  0  0  0  0  0  0  0  0  0  0
    9.0098   47.9013  128.3480 C   0  0  0  0  0  0  0  0  0  0  0  0
    8.1173   48.6756  129.1100 C   0  0  0  0  0  0  0  0  0  0  0  0
    7.9364   48.2440  130.4291 C   0  0  0  0  0  0  0  0  0  0  0  0
    8.5948   47.1422  130.9181 C   0  0  0  0  0  0  0  0  0  0  0  0
    9.4586   46.4062  130.1520 C   0  0  0  0  0  0  0  0  0  0  0  0
   10.5090   44.7272  127.8596 C   0  0  0  0  0  0  0  0  0  0  0  0
   10.5094   46.1336  127.9948 O   0  0  0  0  0  0  0  0  0  0  0  0
    7.5098   49.7184  128.6001 O   0  0  0  0  0  0  0  0  0  0  0  0
    6.9146   50.7762  128.1932 C   0  0  0  0  0  0  0  0  0  0  0  0
    6.8205   51.8854  129.2628 C   0  0  0  0  0  0  0  0  0  0  0  0
    7.1144   53.1840  128.7369 N   0  0  0  0  0  0  0  0  0  0  0  0
    8.0760   53.4397  129.0841 H   0  0  0  0  0  0  0  0  0  0  0  0
    7.1317   53.2613  127.3017 C   0  0  0  0  0  0  0  0  0  0  0  0
    7.4487   54.6599  126.8176 C   0  0  0  0  0  0  0  0  0  0  0  0
    8.2599   54.6210  125.5645 C   0  0  0  0  0  0  0  0  0  0  0  0
    7.8005   53.5856  124.7647 F   0  0  0  0  0  0  0  0  0  0  0  0
   11.0398   46.2484  132.6300 C   0  0  0  0  0  0  0  0  0  0  0  0
   11.5517   45.7356  133.9069 C   0  0  0  0  0  0  0  0  0  0  0  0
   12.2233   46.8859  134.4841 F   0  0  0  0  0  0  0  0  0  0  0  0
   12.5230   44.7906  133.8804 F   0  0  0  0  0  0  0  0  0  0  0  0
   10.5663   45.3591  134.9871 C   0  0  0  0  0  0  0  0  0  0  0  0
    9.3365   46.0315  134.8333 O   0  0  0  0  0  0  0  0  0  0  0  0
    9.5158   46.8981  134.3516 H   0  0  0  0  0  0  0  0  0  0  0  0
 22 23  1  0  0  0
 23 16  1  0  0  0
 16 17  2  0  0  0
 17 18  1  0  0  0
 18 24  1  0  0  0
 24 25  1  0  0  0
 25 26  1  0  0  0
 26 27  1  0  0  0
 27 29  1  0  0  0
 29 30  1  0  0  0
 30 31  1  0  0  0
 31 32  1  0  0  0
 18 19  2  0  0  0
 19 20  1  0  0  0
 20 21  2  0  0  0
 21  1  1  0  0  0
  1  2  1  0  0  0
  2 33  1  0  0  0
 33 34  1  0  0  0
 34 35  1  0  0  0
 34 36  1  0  0  0
 34 37  1  0  0  0
 37 38  1  0  0  0
  2  3  1  0  0  0
  3  4  1  0  0  0
  3  5  1  0  0  0
  5  6  1  0  0  0
  6  7  2  0  0  0
  7  8  1  0  0  0
  8  9  1  0  0  0
  9 10  2  0  0  0
 10 11  1  0  0  0
 11 12  2  0  0  0
 12 13  1  0  0  0
 13 14  2  0  0  0
 21 16  1  0  0  0
  7  1  1  0  0  0
 14  9  1  0  0  0
 14  6  1  0  0  0
 27 28  1  0  0  0
 38 39  1  0  0  0
  8 15  1  0  0  0
M  END
> <minimizedAffinity>
5.09331

> <CNNscore>
0.3613781333

> <CNNaffinity>
7.4530272484

> <CNN_VS>
2.6933610439

> <CNNaffinity_variance>
0.7949640155

$$$$
[H]OC([H])([H])C(F)(F)C([H])([H])N1[C@]([H])(c2c([H])c([H])c(OC([H])([H])C([H])([H])N([H])C([H])([H])C([H])([H])C([H])([H])F)c([H])c2OC([H])([H])[H])c2c(c3c([H])c([H])c([H])c([H])c3n2[H])C([H])([H])[C@@]1([H])C([H])([H])[H]


 39 42  0  0  0  0  0  0  0  0999 V2000
   10.7748   46.4152  131.8680 C   0  0  0  0  0  0  0  0  0  0  0  0
   10.8165   46.4290  133.3600 N   0  0  0  0  0  0  0  0  0  0  0  0
   11.9364   45.6400  133.7576 C   0  0  0  0  0  0  0  0  0  0  0  0
   13.0463   46.5065  134.3656 C   0  0  0  0  0  0  0  0  0  0  0  0
   12.5417   44.7668  132.6422 C   0  0  0  0  0  0  0  0  0  0  0  0
   11.3901   44.1185  131.9522 C   0  0  0  0  0  0  0  0  0  0  0  0
   10.4043   45.0346  131.5417 C   0  0  0  0  0  0  0  0  0  0  0  0
    9.4341   44.3280  130.9554 N   0  0  0  0  0  0  0  0  0  0  0  0
    9.7753   43.0285  130.9850 C   0  0  0  0  0  0  0  0  0  0  0  0
    9.1461   41.8727  130.5224 C   0  0  0  0  0  0  0  0  0  0  0  0
    9.7387   40.6417  130.6879 C   0  0  0  0  0  0  0  0  0  0  0  0
   10.9664   40.5262  131.3148 C   0  0  0  0  0  0  0  0  0  0  0  0
   11.6144   41.6511  131.7844 C   0  0  0  0  0  0  0  0  0  0  0  0
   10.9890   42.8668  131.5995 C   0  0  0  0  0  0  0  0  0  0  0  0
    8.5618   44.7520  130.5503 H   0  0  0  0  0  0  0  0  0  0  0  0
    9.5470   47.4285  130.0183 C   0  0  0  0  0  0  0  0  0  0  0  0
    8.8475   48.4589  129.4627 C   0  0  0  0  0  0  0  0  0  0  0  0
    8.5480   49.6358  130.1711 C   0  0  0  0  0  0  0  0  0  0  0  0
    9.0209   49.6708  131.4880 C   0  0  0  0  0  0  0  0  0  0  0  0
    9.7235   48.6194  132.0241 C   0  0  0  0  0  0  0  0  0  0  0  0
   10.0002   47.4843  131.3101 C   0  0  0  0  0  0  0  0  0  0  0  0
   10.8477   46.2506  128.2881 C   0  0  0  0  0  0  0  0  0  0  0  0
    9.7757   46.3209  129.2058 O   0  0  0  0  0  0  0  0  0  0  0  0
    7.8725   50.6130  129.6185 O   0  0  0  0  0  0  0  0  0  0  0  0
    7.1294   51.5203  129.1053 C   0  0  0  0  0  0  0  0  0  0  0  0
    5.6990   51.0396  128.7794 C   0  0  0  0  0  0  0  0  0  0  0  0
    5.3398   49.8536  129.4964 N   0  0  0  0  0  0  0  0  0  0  0  0
    4.3282   49.9618  129.7712 H   0  0  0  0  0  0  0  0  0  0  0  0
    5.4614   48.6358  128.7426 C   0  0  0  0  0  0  0  0  0  0  0  0
    5.1627   47.4177  129.5901 C   0  0  0  0  0  0  0  0  0  0  0  0
    6.3446   46.5070  129.6525 C   0  0  0  0  0  0  0  0  0  0  0  0
    6.5717   46.1568  130.9748 F   0  0  0  0  0  0  0  0  0  0  0  0
    9.5341   45.9705  133.7914 C   0  0  0  0  0  0  0  0  0  0  0  0
    8.8338   46.6101  134.9120 C   0  0  0  0  0  0  0  0  0  0  0  0
    7.6749   45.7589  135.1118 F   0  0  0  0  0  0  0  0  0  0  0  0
    8.2883   47.8356  134.7177 F   0  0  0  0  0  0  0  0  0  0  0  0
    9.4824   46.6010  136.2754 C   0  0  0  0  0  0  0  0  0  0  0  0
   10.0856   45.3591  136.5614 O   0  0  0  0  0  0  0  0  0  0  0  0
    9.5968   44.6499  136.0387 H   0  0  0  0  0  0  0  0  0  0  0  0
 22 23  1  0  0  0
 23 16  1  0  0  0
 16 17  2  0  0  0
 17 18  1  0  0  0
 18 24  1  0  0  0
 24 25  1  0  0  0
 25 26  1  0  0  0
 26 27  1  0  0  0
 27 29  1  0  0  0
 29 30  1  0  0  0
 30 31  1  0  0  0
 31 32  1  0  0  0
 18 19  2  0  0  0
 19 20  1  0  0  0
 20 21  2  0  0  0
 21  1  1  0  0  0
  1  2  1  0  0  0
  2 33  1  0  0  0
 33 34  1  0  0  0
 34 35  1  0  0  0
 34 36  1  0  0  0
 34 37  1  0  0  0
 37 38  1  0  0  0
  2  3  1  0  0  0
  3  4  1  0  0  0
  3  5  1  0  0  0
  5  6  1  0  0  0
  6  7  2  0  0  0
  7  8  1  0  0  0
  8  9  1  0  0  0
  9 10  2  0  0  0
 10 11  1  0  0  0
 11 12  2  0  0  0
 12 13  1  0  0  0
 13 14  2  0  0  0
 21 16  1  0  0  0
  7  1  1  0  0  0
 14  9  1  0  0  0
 14  6  1  0  0  0
 27 28  1  0  0  0
 38 39  1  0  0  0
  8 15  1  0  0  0
M  END
> <minimizedAffinity>
3.40231

> <CNNscore>
0.3485144079

> <CNNaffinity>
7.6886701584

> <CNN_VS>
2.6796123981

> <CNNaffinity_variance>
0.3932527900

$$$$
[H]OC([H])([H])C(F)(F)C([H])([H])N1[C@]([H])(c2c([H])c([H])c(OC([H])([H])C([H])([H])N([H])C([H])([H])C([H])([H])C([H])([H])F)c([H])c2OC([H])([H])[H])c2c(c3c([H])c([H])c([H])c([H])c3n2[H])C([H])([H])[C@@]1([H])C([H])([H])[H]


 39 42  0  0  0  0  0  0  0  0999 V2000
   10.1582   46.9758  130.3845 C   0  0  0  0  0  0  0  0  0  0  0  0
   10.0774   46.4848  131.7918 N   0  0  0  0  0  0  0  0  0  0  0  0
   11.1787   45.6010  131.9936 C   0  0  0  0  0  0  0  0  0  0  0  0
   12.2151   46.2045  132.9496 C   0  0  0  0  0  0  0  0  0  0  0  0
   11.8929   45.1517  130.7048 C   0  0  0  0  0  0  0  0  0  0  0  0
   10.8166   44.7816  129.7420 C   0  0  0  0  0  0  0  0  0  0  0  0
    9.8471   45.7886  129.5821 C   0  0  0  0  0  0  0  0  0  0  0  0
    8.9444   45.3275  128.7121 N   0  0  0  0  0  0  0  0  0  0  0  0
    9.3115   44.0922  128.3311 C   0  0  0  0  0  0  0  0  0  0  0  0
    8.7487   43.1643  127.4547 C   0  0  0  0  0  0  0  0  0  0  0  0
    9.3536   41.9460  127.2454 C   0  0  0  0  0  0  0  0  0  0  0  0
   10.5282   41.6180  127.8983 C   0  0  0  0  0  0  0  0  0  0  0  0
   11.1099   42.5144  128.7724 C   0  0  0  0  0  0  0  0  0  0  0  0
   10.4742   43.7250  128.9556 C   0  0  0  0  0  0  0  0  0  0  0  0
    8.0988   45.8688  128.4012 H   0  0  0  0  0  0  0  0  0  0  0  0
    9.5544   49.2662  130.9715 C   0  0  0  0  0  0  0  0  0  0  0  0
    8.8132   50.3967  130.7909 C   0  0  0  0  0  0  0  0  0  0  0  0
    7.8583   50.5166  129.7660 C   0  0  0  0  0  0  0  0  0  0  0  0
    7.7252   49.3903  128.9458 C   0  0  0  0  0  0  0  0  0  0  0  0
    8.4839   48.2635  129.1491 C   0  0  0  0  0  0  0  0  0  0  0  0
    9.4077   48.1752  130.1559 C   0  0  0  0  0  0  0  0  0  0  0  0
   10.0964   49.5921  133.3533 C   0  0  0  0  0  0  0  0  0  0  0  0
   10.4644   49.2796  132.0255 O   0  0  0  0  0  0  0  0  0  0  0  0
    7.1584   51.6131  129.6089 O   0  0  0  0  0  0  0  0  0  0  0  0
    6.3961   52.6268  129.4353 C   0  0  0  0  0  0  0  0  0  0  0  0
    6.4385   53.1964  128.0011 C   0  0  0  0  0  0  0  0  0  0  0  0
    7.5394   52.6892  127.2394 N   0  0  0  0  0  0  0  0  0  0  0  0
    7.1912   51.8273  126.7430 H   0  0  0  0  0  0  0  0  0  0  0  0
    8.0482   53.5928  126.2439 C   0  0  0  0  0  0  0  0  0  0  0  0
    6.9411   54.3934  125.5926 C   0  0  0  0  0  0  0  0  0  0  0  0
    7.1612   54.5109  124.1203 C   0  0  0  0  0  0  0  0  0  0  0  0
    8.0940   53.5623  123.7291 F   0  0  0  0  0  0  0  0  0  0  0  0
    8.7747   45.9156  131.9333 C   0  0  0  0  0  0  0  0  0  0  0  0
    8.5113   44.8488  132.9068 C   0  0  0  0  0  0  0  0  0  0  0  0
    7.5583   45.4557  133.8183 F   0  0  0  0  0  0  0  0  0  0  0  0
    9.5184   44.4589  133.7259 F   0  0  0  0  0  0  0  0  0  0  0  0
    7.7791   43.6104  132.4485 C   0  0  0  0  0  0  0  0  0  0  0  0
    8.2807   43.1276  131.2224 O   0  0  0  0  0  0  0  0  0  0  0  0
    8.6734   43.9077  130.7200 H   0  0  0  0  0  0  0  0  0  0  0  0
 22 23  1  0  0  0
 23 16  1  0  0  0
 16 17  2  0  0  0
 17 18  1  0  0  0
 18 24  1  0  0  0
 24 25  1  0  0  0
 25 26  1  0  0  0
 26 27  1  0  0  0
 27 29  1  0  0  0
 29 30  1  0  0  0
 30 31  1  0  0  0
 31 32  1  0  0  0
 18 19  2  0  0  0
 19 20  1  0  0  0
 20 21  2  0  0  0
 21  1  1  0  0  0
  1  2  1  0  0  0
  2 33  1  0  0  0
 33 34  1  0  0  0
 34 35  1  0  0  0
 34 36  1  0  0  0
 34 37  1  0  0  0
 37 38  1  0  0  0
  2  3  1  0  0  0
  3  4  1  0  0  0
  3  5  1  0  0  0
  5  6  1  0  0  0
  6  7  2  0  0  0
  7  8  1  0  0  0
  8  9  1  0  0  0
  9 10  2  0  0  0
 10 11  1  0  0  0
 11 12  2  0  0  0
 12 13  1  0  0  0
 13 14  2  0  0  0
 21 16  1  0  0  0
  7  1  1  0  0  0
 14  9  1  0  0  0
 14  6  1  0  0  0
 27 28  1  0  0  0
 38 39  1  0  0  0
  8 15  1  0  0  0
M  END
> <minimizedAffinity>
7.19190

> <CNNscore>
0.3454748094

> <CNNaffinity>
7.2924003601

> <CNN_VS>
2.5193405151

> <CNNaffinity_variance>
0.2430895865

$$$$
[H]OC([H])([H])C(F)(F)C([H])([H])N1[C@]([H])(c2c([H])c([H])c(OC([H])([H])C([H])([H])N([H])C([H])([H])C([H])([H])C([H])([H])F)c([H])c2OC([H])([H])[H])c2c(c3c([H])c([H])c([H])c([H])c3n2[H])C([H])([H])[C@@]1([H])C([H])([H])[H]


 39 42  0  0  0  0  0  0  0  0999 V2000
   10.4522   46.6323  131.2721 C   0  0  0  0  0  0  0  0  0  0  0  0
   10.6363   46.6885  132.7524 N   0  0  0  0  0  0  0  0  0  0  0  0
   11.7689   45.8804  133.0671 C   0  0  0  0  0  0  0  0  0  0  0  0
   12.9531   46.7328  133.5396 C   0  0  0  0  0  0  0  0  0  0  0  0
   12.2429   44.9583  131.9278 C   0  0  0  0  0  0  0  0  0  0  0  0
   11.0148   44.3227  131.3707 C   0  0  0  0  0  0  0  0  0  0  0  0
   10.0177   45.2537  131.0264 C   0  0  0  0  0  0  0  0  0  0  0  0
    8.9786   44.5577  130.5571 N   0  0  0  0  0  0  0  0  0  0  0  0
    9.2882   43.2506  130.5955 C   0  0  0  0  0  0  0  0  0  0  0  0
    8.5889   42.0999  130.2314 C   0  0  0  0  0  0  0  0  0  0  0  0
    9.1635   40.8581  130.3791 C   0  0  0  0  0  0  0  0  0  0  0  0
   10.4421   40.7266  130.8905 C   0  0  0  0  0  0  0  0  0  0  0  0
   11.1600   41.8461  131.2608 C   0  0  0  0  0  0  0  0  0  0  0  0
   10.5506   43.0730  131.0974 C   0  0  0  0  0  0  0  0  0  0  0  0
    8.0825   44.9941  130.2230 H   0  0  0  0  0  0  0  0  0  0  0  0
    8.9145   47.5500  129.6142 C   0  0  0  0  0  0  0  0  0  0  0  0
    8.1878   48.5778  129.0894 C   0  0  0  0  0  0  0  0  0  0  0  0
    8.1506   49.8534  129.6793 C   0  0  0  0  0  0  0  0  0  0  0  0
    8.9143   49.9896  130.8443 C   0  0  0  0  0  0  0  0  0  0  0  0
    9.6380   48.9385  131.3524 C   0  0  0  0  0  0  0  0  0  0  0  0
    9.6550   47.7059  130.7564 C   0  0  0  0  0  0  0  0  0  0  0  0
    7.6649   45.7948  128.4181 C   0  0  0  0  0  0  0  0  0  0  0  0
    8.8646   46.3384  128.9296 O   0  0  0  0  0  0  0  0  0  0  0  0
    7.4436   50.8265  129.1596 O   0  0  0  0  0  0  0  0  0  0  0  0
    6.6730   51.7189  128.6612 C   0  0  0  0  0  0  0  0  0  0  0  0
    7.4264   52.9338  128.0783 C   0  0  0  0  0  0  0  0  0  0  0  0
    6.5480   53.8866  127.4701 N   0  0  0  0  0  0  0  0  0  0  0  0
    6.3464   54.6199  128.1996 H   0  0  0  0  0  0  0  0  0  0  0  0
    7.0895   54.5526  126.3171 C   0  0  0  0  0  0  0  0  0  0  0  0
    8.2806   53.8122  125.7478 C   0  0  0  0  0  0  0  0  0  0  0  0
    8.7626   54.4604  124.4918 C   0  0  0  0  0  0  0  0  0  0  0  0
    7.6859   54.6362  123.6359 F   0  0  0  0  0  0  0  0  0  0  0  0
    9.3897   46.2789  133.3174 C   0  0  0  0  0  0  0  0  0  0  0  0
    8.8196   46.9654  134.4831 C   0  0  0  0  0  0  0  0  0  0  0  0
    9.5561   46.3986  135.5983 F   0  0  0  0  0  0  0  0  0  0  0  0
    7.5270   46.7200  134.8087 F   0  0  0  0  0  0  0  0  0  0  0  0
    9.0676   48.4455  134.6488 C   0  0  0  0  0  0  0  0  0  0  0  0
   10.4391   48.7609  134.5617 O   0  0  0  0  0  0  0  0  0  0  0  0
   10.9621   47.9496  134.8504 H   0  0  0  0  0  0  0  0  0  0  0  0
 22 23  1  0  0  0
 23 16  1  0  0  0
 16 17  2  0  0  0
 17 18  1  0  0  0
 18 24  1  0  0  0
 24 25  1  0  0  0
 25 26  1  0  0  0
 26 27  1  0  0  0
 27 29  1  0  0  0
 29 30  1  0  0  0
 30 31  1  0  0  0
 31 32  1  0  0  0
 18 19  2  0  0  0
 19 20  1  0  0  0
 20 21  2  0  0  0
 21  1  1  0  0  0
  1  2  1  0  0  0
  2 33  1  0  0  0
 33 34  1  0  0  0
 34 35  1  0  0  0
 34 36  1  0  0  0
 34 37  1  0  0  0
 37 38  1  0  0  0
  2  3  1  0  0  0
  3  4  1  0  0  0
  3  5  1  0  0  0
  5  6  1  0  0  0
  6  7  2  0  0  0
  7  8  1  0  0  0
  8  9  1  0  0  0
  9 10  2  0  0  0
 10 11  1  0  0  0
 11 12  2  0  0  0
 12 13  1  0  0  0
 13 14  2  0  0  0
 21 16  1  0  0  0
  7  1  1  0  0  0
 14  9  1  0  0  0
 14  6  1  0  0  0
 27 28  1  0  0  0
 38 39  1  0  0  0
  8 15  1  0  0  0
M  END
> <minimizedAffinity>
3.26360

> <CNNscore>
0.3312678635

> <CNNaffinity>
7.3490171432

> <CNN_VS>
2.4344933033

> <CNNaffinity_variance>
0.6770207286

$$$$
[H]OC([H])([H])C(F)(F)C([H])([H])N1[C@]([H])(c2c([H])c([H])c(OC([H])([H])C([H])([H])N([H])C([H])([H])C([H])([H])C([H])([H])F)c([H])c2OC([H])([H])[H])c2c(c3c([H])c([H])c([H])c([H])c3n2[H])C([H])([H])[C@@]1([H])C([H])([H])[H]


 39 42  0  0  0  0  0  0  0  0999 V2000
    9.6786   47.5514  131.9518 C   0  0  0  0  0  0  0  0  0  0  0  0
    8.8043   46.6203  132.7244 N   0  0  0  0  0  0  0  0  0  0  0  0
    9.6232   45.9939  133.7102 C   0  0  0  0  0  0  0  0  0  0  0  0
    9.2629   46.4681  135.1235 C   0  0  0  0  0  0  0  0  0  0  0  0
   11.1390   46.1679  133.4984 C   0  0  0  0  0  0  0  0  0  0  0  0
   11.3891   45.9008  132.0531 C   0  0  0  0  0  0  0  0  0  0  0  0
   10.5638   46.6563  131.2001 C   0  0  0  0  0  0  0  0  0  0  0  0
   10.8792   46.3146  129.9478 N   0  0  0  0  0  0  0  0  0  0  0  0
   11.8543   45.3909  129.9904 C   0  0  0  0  0  0  0  0  0  0  0  0
   12.5498   44.7006  128.9977 C   0  0  0  0  0  0  0  0  0  0  0  0
   13.5254   43.7900  129.3338 C   0  0  0  0  0  0  0  0  0  0  0  0
   13.8346   43.5414  130.6591 C   0  0  0  0  0  0  0  0  0  0  0  0
   13.1638   44.2078  131.6649 C   0  0  0  0  0  0  0  0  0  0  0  0
   12.1932   45.1129  131.2884 C   0  0  0  0  0  0  0  0  0  0  0  0
   10.4188   46.7210  129.0948 H   0  0  0  0  0  0  0  0  0  0  0  0
    8.2428   48.2432  130.1037 C   0  0  0  0  0  0  0  0  0  0  0  0
    7.5813   49.1981  129.3893 C   0  0  0  0  0  0  0  0  0  0  0  0
    7.5798   50.5536  129.7626 C   0  0  0  0  0  0  0  0  0  0  0  0
    8.3071   50.8493  130.9213 C   0  0  0  0  0  0  0  0  0  0  0  0
    8.9650   49.8689  131.6230 C   0  0  0  0  0  0  0  0  0  0  0  0
    8.9485   48.5556  131.2358 C   0  0  0  0  0  0  0  0  0  0  0  0
    7.1190   46.4926  128.7826 C   0  0  0  0  0  0  0  0  0  0  0  0
    8.1635   46.9387  129.6230 O   0  0  0  0  0  0  0  0  0  0  0  0
    6.9355   51.4546  129.0628 O   0  0  0  0  0  0  0  0  0  0  0  0
    6.3259   52.3998  128.4516 C   0  0  0  0  0  0  0  0  0  0  0  0
    7.2729   53.4471  127.8275 C   0  0  0  0  0  0  0  0  0  0  0  0
    6.7039   54.0912  126.6826 N   0  0  0  0  0  0  0  0  0  0  0  0
    6.4541   55.0708  126.9804 H   0  0  0  0  0  0  0  0  0  0  0  0
    7.5825   54.1884  125.5491 C   0  0  0  0  0  0  0  0  0  0  0  0
    6.8515   54.6573  124.3095 C   0  0  0  0  0  0  0  0  0  0  0  0
    7.3757   53.9744  123.0893 C   0  0  0  0  0  0  0  0  0  0  0  0
    8.3239   53.0378  123.4718 F   0  0  0  0  0  0  0  0  0  0  0  0
    8.2033   45.7562  131.7585 C   0  0  0  0  0  0  0  0  0  0  0  0
    8.4153   44.3041  131.7991 C   0  0  0  0  0  0  0  0  0  0  0  0
    7.4052   43.8446  132.7351 F   0  0  0  0  0  0  0  0  0  0  0  0
    9.5691   43.8346  132.3333 F   0  0  0  0  0  0  0  0  0  0  0  0
    8.1092   43.4895  130.5652 C   0  0  0  0  0  0  0  0  0  0  0  0
    8.9121   43.8721  129.4712 O   0  0  0  0  0  0  0  0  0  0  0  0
    9.1698   44.8377  129.5992 H   0  0  0  0  0  0  0  0  0  0  0  0
 22 23  1  0  0  0
 23 16  1  0  0  0
 16 17  2  0  0  0
 17 18  1  0  0  0
 18 24  1  0  0  0
 24 25  1  0  0  0
 25 26  1  0  0  0
 26 27  1  0  0  0
 27 29  1  0  0  0
 29 30  1  0  0  0
 30 31  1  0  0  0
 31 32  1  0  0  0
 18 19  2  0  0  0
 19 20  1  0  0  0
 20 21  2  0  0  0
 21  1  1  0  0  0
  1  2  1  0  0  0
  2 33  1  0  0  0
 33 34  1  0  0  0
 34 35  1  0  0  0
 34 36  1  0  0  0
 34 37  1  0  0  0
 37 38  1  0  0  0
  2  3  1  0  0  0
  3  4  1  0  0  0
  3  5  1  0  0  0
  5  6  1  0  0  0
  6  7  2  0  0  0
  7  8  1  0  0  0
  8  9  1  0  0  0
  9 10  2  0  0  0
 10 11  1  0  0  0
 11 12  2  0  0  0
 12 13  1  0  0  0
 13 14  2  0  0  0
 21 16  1  0  0  0
  7  1  1  0  0  0
 14  9  1  0  0  0
 14  6  1  0  0  0
 27 28  1  0  0  0
 38 39  1  0  0  0
  8 15  1  0  0  0
M  END
> <minimizedAffinity>
-1.22372

> <CNNscore>
0.3010450602

> <CNNaffinity>
7.2854356766

> <CNN_VS>
2.1932444572

> <CNNaffinity_variance>
0.0725349784

$$$$
[H]OC([H])([H])C(F)(F)C([H])([H])N1[C@]([H])(c2c([H])c([H])c(OC([H])([H])C([H])([H])N([H])C([H])([H])C([H])([H])C([H])([H])F)c([H])c2OC([H])([H])[H])c2c(c3c([H])c([H])c([H])c([H])c3n2[H])C([H])([H])[C@@]1([H])C([H])([H])[H]


 39 42  0  0  0  0  0  0  0  0999 V2000
   10.6344   46.3056  131.7131 C   0  0  0  0  0  0  0  0  0  0  0  0
   10.0955   45.1232  132.4477 N   0  0  0  0  0  0  0  0  0  0  0  0
   11.1796   44.5498  133.1762 C   0  0  0  0  0  0  0  0  0  0  0  0
   11.0090   44.7498  134.6872 C   0  0  0  0  0  0  0  0  0  0  0  0
   12.5756   45.0526  132.7623 C   0  0  0  0  0  0  0  0  0  0  0  0
   12.5972   45.0355  131.2717 C   0  0  0  0  0  0  0  0  0  0  0  0
   11.5088   45.7152  130.6949 C   0  0  0  0  0  0  0  0  0  0  0  0
   11.6424   45.6134  129.3696 N   0  0  0  0  0  0  0  0  0  0  0  0
   12.7555   44.9081  129.1060 C   0  0  0  0  0  0  0  0  0  0  0  0
   13.3659   44.5102  127.9166 C   0  0  0  0  0  0  0  0  0  0  0  0
   14.5314   43.7788  127.9410 C   0  0  0  0  0  0  0  0  0  0  0  0
   15.1190   43.4242  129.1421 C   0  0  0  0  0  0  0  0  0  0  0  0
   14.5391   43.8021  130.3366 C   0  0  0  0  0  0  0  0  0  0  0  0
   13.3719   44.5346  130.2712 C   0  0  0  0  0  0  0  0  0  0  0  0
   10.9681   46.0280  128.6780 H   0  0  0  0  0  0  0  0  0  0  0  0
    9.0023   48.0539  132.1979 C   0  0  0  0  0  0  0  0  0  0  0  0
    8.0044   48.9033  131.8205 C   0  0  0  0  0  0  0  0  0  0  0  0
    7.5467   48.9868  130.4937 C   0  0  0  0  0  0  0  0  0  0  0  0
    8.1911   48.1340  129.5902 C   0  0  0  0  0  0  0  0  0  0  0  0
    9.1936   47.2873  129.9960 C   0  0  0  0  0  0  0  0  0  0  0  0
    9.6196   47.2277  131.2959 C   0  0  0  0  0  0  0  0  0  0  0  0
   10.6204   48.5154  133.9984 C   0  0  0  0  0  0  0  0  0  0  0  0
    9.3587   48.0704  133.5440 O   0  0  0  0  0  0  0  0  0  0  0  0
    6.5878   49.8119  130.1522 O   0  0  0  0  0  0  0  0  0  0  0  0
    5.6805   50.6071  129.7242 C   0  0  0  0  0  0  0  0  0  0  0  0
    4.5851   49.9075  128.8911 C   0  0  0  0  0  0  0  0  0  0  0  0
    3.4303   50.7311  128.6973 N   0  0  0  0  0  0  0  0  0  0  0  0
    3.7184   51.7161  128.9370 H   0  0  0  0  0  0  0  0  0  0  0  0
    2.9165   50.7391  127.3549 C   0  0  0  0  0  0  0  0  0  0  0  0
    1.6446   51.5523  127.2445 C   0  0  0  0  0  0  0  0  0  0  0  0
    1.7670   52.5947  126.1822 C   0  0  0  0  0  0  0  0  0  0  0  0
    2.6715   53.5584  126.6014 F   0  0  0  0  0  0  0  0  0  0  0  0
    9.4877   44.2914  131.4579 C   0  0  0  0  0  0  0  0  0  0  0  0
    8.0771   43.8967  131.5563 C   0  0  0  0  0  0  0  0  0  0  0  0
    7.8032   43.3078  130.2580 F   0  0  0  0  0  0  0  0  0  0  0  0
    7.1398   44.8704  131.6589 F   0  0  0  0  0  0  0  0  0  0  0  0
    7.6975   42.7844  132.5041 C   0  0  0  0  0  0  0  0  0  0  0  0
    8.7529   42.4583  133.3802 O   0  0  0  0  0  0  0  0  0  0  0  0
    9.6191   42.6919  132.9218 H   0  0  0  0  0  0  0  0  0  0  0  0
 22 23  1  0  0  0
 23 16  1  0  0  0
 16 17  2  0  0  0
 17 18  1  0  0  0
 18 24  1  0  0  0
 24 25  1  0  0  0
 25 26  1  0  0  0
 26 27  1  0  0  0
 27 29  1  0  0  0
 29 30  1  0  0  0
 30 31  1  0  0  0
 31 32  1  0  0  0
 18 19  2  0  0  0
 19 20  1  0  0  0
 20 21  2  0  0  0
 21  1  1  0  0  0
  1  2  1  0  0  0
  2 33  1  0  0  0
 33 34  1  0  0  0
 34 35  1  0  0  0
 34 36  1  0  0  0
 34 37  1  0  0  0
 37 38  1  0  0  0
  2  3  1  0  0  0
  3  4  1  0  0  0
  3  5  1  0  0  0
  5  6  1  0  0  0
  6  7  2  0  0  0
  7  8  1  0  0  0
  8  9  1  0  0  0
  9 10  2  0  0  0
 10 11  1  0  0  0
 11 12  2  0  0  0
 12 13  1  0  0  0
 13 14  2  0  0  0
 21 16  1  0  0  0
  7  1  1  0  0  0
 14  9  1  0  0  0
 14  6  1  0  0  0
 27 28  1  0  0  0
 38 39  1  0  0  0
  8 15  1  0  0  0
M  END
> <minimizedAffinity>
8.16883

> <CNNscore>
0.3001390398

> <CNNaffinity>
7.3634133339

> <CNN_VS>
2.2100477219

> <CNNaffinity_variance>
0.5698843002

$$$$
[H]Oc1c([H])c([H])c(/C(=C(/c2c([H])c([H])c([H])c([H])c2[H])c2c([H])c([H])c(OC([H])([H])C([H])([H])N(C([H])([H])[H])C([H])([H])[H])c([H])c2[H])C([H])([H])C([H])([H])[H])c([H])c1[H]


 30 32  0  0  0  0  0  0  0  0999 V2000
   10.2013   44.0724  132.0721 C   0  0  0  0  0  0  0  0  0  0  0  0
   10.1719   45.1393  132.8487 C   0  0  0  0  0  0  0  0  0  0  0  0
   10.1417   44.1369  130.6239 C   0  0  0  0  0  0  0  0  0  0  0  0
    9.1300   43.6819  129.8309 C   0  0  0  0  0  0  0  0  0  0  0  0
    9.1885   43.7864  128.4408 C   0  0  0  0  0  0  0  0  0  0  0  0
   10.2812   44.3597  127.8311 C   0  0  0  0  0  0  0  0  0  0  0  0
   10.3413   44.4643  126.4465 O   0  0  0  0  0  0  0  0  0  0  0  0
   11.3046   44.8214  128.6447 C   0  0  0  0  0  0  0  0  0  0  0  0
   11.2637   44.7258  130.0134 C   0  0  0  0  0  0  0  0  0  0  0  0
   11.1638   44.8915  126.0423 H   0  0  0  0  0  0  0  0  0  0  0  0
   10.3082   45.0103  134.3138 C   0  0  0  0  0  0  0  0  0  0  0  0
    9.6362   45.8235  135.1709 C   0  0  0  0  0  0  0  0  0  0  0  0
    9.7204   45.6435  136.5684 C   0  0  0  0  0  0  0  0  0  0  0  0
   10.4973   44.6269  137.0759 C   0  0  0  0  0  0  0  0  0  0  0  0
   11.1818   43.7985  136.2457 C   0  0  0  0  0  0  0  0  0  0  0  0
   11.0805   43.9971  134.8960 C   0  0  0  0  0  0  0  0  0  0  0  0
    9.8606   46.4212  132.2435 C   0  0  0  0  0  0  0  0  0  0  0  0
    8.5852   46.6264  131.7673 C   0  0  0  0  0  0  0  0  0  0  0  0
    8.1832   47.8149  131.1408 C   0  0  0  0  0  0  0  0  0  0  0  0
    9.1293   48.8064  131.0104 C   0  0  0  0  0  0  0  0  0  0  0  0
   10.3960   48.5964  131.4877 C   0  0  0  0  0  0  0  0  0  0  0  0
   10.7898   47.3986  132.1149 C   0  0  0  0  0  0  0  0  0  0  0  0
    8.8153   50.0329  130.3912 O   0  0  0  0  0  0  0  0  0  0  0  0
    7.4617   50.2853  130.0010 C   0  0  0  0  0  0  0  0  0  0  0  0
    7.1535   49.5259  128.7585 C   0  0  0  0  0  0  0  0  0  0  0  0
    5.8332   48.9875  128.7248 N   0  0  0  0  0  0  0  0  0  0  0  0
    5.8379   47.5432  128.8205 C   0  0  0  0  0  0  0  0  0  0  0  0
    4.9474   49.5070  129.7139 C   0  0  0  0  0  0  0  0  0  0  0  0
   11.5174   42.0280  131.8846 C   0  0  0  0  0  0  0  0  0  0  0  0
   10.3770   42.6986  132.6951 C   0  0  0  0  0  0  0  0  0  0  0  0
 29 30  1  0  0  0
 30  1  1  0  0  0
  1  2  2  0  0  0
  2 11  1  0  0  0
 11 12  2  0  0  0
 12 13  1  0  0  0
 13 14  2  0  0  0
 14 15  1  0  0  0
 15 16  2  0  0  0
  2 17  1  0  0  0
 17 18  2  0  0  0
 18 19  1  0  0  0
 19 20  2  0  0  0
 20 23  1  0  0  0
 23 24  1  0  0  0
 24 25  1  0  0  0
 25 26  1  0  0  0
 26 27  1  0  0  0
 26 28  1  0  0  0
 20 21  1  0  0  0
 21 22  2  0  0  0
  1  3  1  0  0  0
  3  4  2  0  0  0
  4  5  1  0  0  0
  5  6  2  0  0  0
  6  7  1  0  0  0
  6  8  1  0  0  0
  8  9  2  0  0  0
 16 11  1  0  0  0
 22 17  1  0  0  0
  9  3  1  0  0  0
  7 10  1  0  0  0
M  END
> <minimizedAffinity>
-0.48379

> <CNNscore>
0.4553744793

> <CNNaffinity>
7.9277143478

> <CNN_VS>
3.6100788116

> <CNNaffinity_variance>
0.6598894000

$$$$
[H]Oc1c([H])c([H])c(/C(=C(/c2c([H])c([H])c([H])c([H])c2[H])c2c([H])c([H])c(OC([H])([H])C([H])([H])N(C([H])([H])[H])C([H])([H])[H])c([H])c2[H])C([H])([H])C([H])([H])[H])c([H])c1[H]


 30 32  0  0  0  0  0  0  0  0999 V2000
   10.8371   44.1985  131.9161 C   0  0  0  0  0  0  0  0  0  0  0  0
   10.4948   45.1303  132.7860 C   0  0  0  0  0  0  0  0  0  0  0  0
   10.8066   44.3974  130.4793 C   0  0  0  0  0  0  0  0  0  0  0  0
   11.8215   44.8733  129.7028 C   0  0  0  0  0  0  0  0  0  0  0  0
   11.6721   45.0358  128.3250 C   0  0  0  0  0  0  0  0  0  0  0  0
   10.4832   44.7140  127.7109 C   0  0  0  0  0  0  0  0  0  0  0  0
   10.3325   44.8757  126.3387 O   0  0  0  0  0  0  0  0  0  0  0  0
    9.4570   44.2293  128.5074 C   0  0  0  0  0  0  0  0  0  0  0  0
    9.5866   44.0639  129.8638 C   0  0  0  0  0  0  0  0  0  0  0  0
    9.4412   44.6276  125.9308 H   0  0  0  0  0  0  0  0  0  0  0  0
   10.6162   44.8883  134.2381 C   0  0  0  0  0  0  0  0  0  0  0  0
    9.9177   45.6180  135.1475 C   0  0  0  0  0  0  0  0  0  0  0  0
    9.9887   45.3294  136.5274 C   0  0  0  0  0  0  0  0  0  0  0  0
   10.7800   44.2911  136.9635 C   0  0  0  0  0  0  0  0  0  0  0  0
   11.4911   43.5444  136.0799 C   0  0  0  0  0  0  0  0  0  0  0  0
   11.4019   43.8473  134.7488 C   0  0  0  0  0  0  0  0  0  0  0  0
    9.8652   46.3387  132.2863 C   0  0  0  0  0  0  0  0  0  0  0  0
   10.6557   47.4441  132.0656 C   0  0  0  0  0  0  0  0  0  0  0  0
   10.1490   48.6699  131.6104 C   0  0  0  0  0  0  0  0  0  0  0  0
    8.7936   48.7420  131.3806 C   0  0  0  0  0  0  0  0  0  0  0  0
    8.0130   47.6381  131.6005 C   0  0  0  0  0  0  0  0  0  0  0  0
    8.5317   46.4116  132.0585 C   0  0  0  0  0  0  0  0  0  0  0  0
    8.1967   49.9347  130.9250 O   0  0  0  0  0  0  0  0  0  0  0  0
    7.6855   49.9872  129.5893 C   0  0  0  0  0  0  0  0  0  0  0  0
    6.2708   49.5244  129.5807 C   0  0  0  0  0  0  0  0  0  0  0  0
    6.0396   48.3938  128.7425 N   0  0  0  0  0  0  0  0  0  0  0  0
    7.2771   47.8197  128.2588 C   0  0  0  0  0  0  0  0  0  0  0  0
    5.2569   47.3585  129.3330 C   0  0  0  0  0  0  0  0  0  0  0  0
   10.5567   41.7925  131.6345 C   0  0  0  0  0  0  0  0  0  0  0  0
   11.3609   42.8639  132.4171 C   0  0  0  0  0  0  0  0  0  0  0  0
 29 30  1  0  0  0
 30  1  1  0  0  0
  1  2  2  0  0  0
  2 11  1  0  0  0
 11 12  2  0  0  0
 12 13  1  0  0  0
 13 14  2  0  0  0
 14 15  1  0  0  0
 15 16  2  0  0  0
  2 17  1  0  0  0
 17 18  2  0  0  0
 18 19  1  0  0  0
 19 20  2  0  0  0
 20 23  1  0  0  0
 23 24  1  0  0  0
 24 25  1  0  0  0
 25 26  1  0  0  0
 26 27  1  0  0  0
 26 28  1  0  0  0
 20 21  1  0  0  0
 21 22  2  0  0  0
  1  3  1  0  0  0
  3  4  2  0  0  0
  4  5  1  0  0  0
  5  6  2  0  0  0
  6  7  1  0  0  0
  6  8  1  0  0  0
  8  9  2  0  0  0
 16 11  1  0  0  0
 22 17  1  0  0  0
  9  3  1  0  0  0
  7 10  1  0  0  0
M  END
> <minimizedAffinity>
-0.58122

> <CNNscore>
0.4361944795

> <CNNaffinity>
7.8082137108

> <CNN_VS>
3.4058997631

> <CNNaffinity_variance>
0.3738494813

$$$$
[H]Oc1c([H])c([H])c(/C(=C(/c2c([H])c([H])c([H])c([H])c2[H])c2c([H])c([H])c(OC([H])([H])C([H])([H])N(C([H])([H])[H])C([H])([H])[H])c([H])c2[H])C([H])([H])C([H])([H])[H])c([H])c1[H]


 30 32  0  0  0  0  0  0  0  0999 V2000
    9.3489   46.1451  129.1000 C   0  0  0  0  0  0  0  0  0  0  0  0
   10.1500   45.9877  130.1371 C   0  0  0  0  0  0  0  0  0  0  0  0
    8.1540   46.9675  129.1314 C   0  0  0  0  0  0  0  0  0  0  0  0
    6.8657   46.5268  129.2054 C   0  0  0  0  0  0  0  0  0  0  0  0
    5.7897   47.4151  129.2155 C   0  0  0  0  0  0  0  0  0  0  0  0
    6.0070   48.7726  129.1521 C   0  0  0  0  0  0  0  0  0  0  0  0
    4.9364   49.6589  129.1616 O   0  0  0  0  0  0  0  0  0  0  0  0
    7.3199   49.2123  129.0788 C   0  0  0  0  0  0  0  0  0  0  0  0
    8.3899   48.3526  129.0670 C   0  0  0  0  0  0  0  0  0  0  0  0
    5.1434   50.6473  129.1121 H   0  0  0  0  0  0  0  0  0  0  0  0
   11.3901   45.1938  130.0193 C   0  0  0  0  0  0  0  0  0  0  0  0
   12.1908   45.2730  128.9239 C   0  0  0  0  0  0  0  0  0  0  0  0
   13.4089   44.5630  128.8549 C   0  0  0  0  0  0  0  0  0  0  0  0
   13.7953   43.7741  129.9146 C   0  0  0  0  0  0  0  0  0  0  0  0
   13.0165   43.6731  131.0224 C   0  0  0  0  0  0  0  0  0  0  0  0
   11.8418   44.3733  131.0607 C   0  0  0  0  0  0  0  0  0  0  0  0
    9.7123   46.4914  131.4260 C   0  0  0  0  0  0  0  0  0  0  0  0
    8.7291   45.8005  132.0978 C   0  0  0  0  0  0  0  0  0  0  0  0
    8.2128   46.2116  133.3352 C   0  0  0  0  0  0  0  0  0  0  0  0
    8.7332   47.3635  133.8806 C   0  0  0  0  0  0  0  0  0  0  0  0
    9.7124   48.0453  133.2077 C   0  0  0  0  0  0  0  0  0  0  0  0
   10.2237   47.6242  131.9650 C   0  0  0  0  0  0  0  0  0  0  0  0
    8.2722   47.8532  135.1192 O   0  0  0  0  0  0  0  0  0  0  0  0
    8.8404   47.3321  136.3250 C   0  0  0  0  0  0  0  0  0  0  0  0
   10.1801   46.7531  136.0325 C   0  0  0  0  0  0  0  0  0  0  0  0
   10.1508   45.3614  135.7215 N   0  0  0  0  0  0  0  0  0  0  0  0
   11.1287   45.0144  134.7123 C   0  0  0  0  0  0  0  0  0  0  0  0
   10.3213   44.4927  136.8392 C   0  0  0  0  0  0  0  0  0  0  0  0
    9.2778   44.0174  127.9107 C   0  0  0  0  0  0  0  0  0  0  0  0
    9.7089   45.5013  127.7725 C   0  0  0  0  0  0  0  0  0  0  0  0
 29 30  1  0  0  0
 30  1  1  0  0  0
  1  2  2  0  0  0
  2 11  1  0  0  0
 11 12  2  0  0  0
 12 13  1  0  0  0
 13 14  2  0  0  0
 14 15  1  0  0  0
 15 16  2  0  0  0
  2 17  1  0  0  0
 17 18  2  0  0  0
 18 19  1  0  0  0
 19 20  2  0  0  0
 20 23  1  0  0  0
 23 24  1  0  0  0
 24 25  1  0  0  0
 25 26  1  0  0  0
 26 27  1  0  0  0
 26 28  1  0  0  0
 20 21  1  0  0  0
 21 22  2  0  0  0
  1  3  1  0  0  0
  3  4  2  0  0  0
  4  5  1  0  0  0
  5  6  2  0  0  0
  6  7  1  0  0  0
  6  8  1  0  0  0
  8  9  2  0  0  0
 16 11  1  0  0  0
 22 17  1  0  0  0
  9  3  1  0  0  0
  7 10  1  0  0  0
M  END
> <minimizedAffinity>
1.11700

> <CNNscore>
0.3970320523

> <CNNaffinity>
7.5435705185

> <CNN_VS>
2.9950392246

> <CNNaffinity_variance>
1.2654011250

$$$$
[H]Oc1c([H])c([H])c(/C(=C(/c2c([H])c([H])c([H])c([H])c2[H])c2c([H])c([H])c(OC([H])([H])C([H])([H])N(C([H])([H])[H])C([H])([H])[H])c([H])c2[H])C([H])([H])C([H])([H])[H])c([H])c1[H]


 30 32  0  0  0  0  0  0  0  0999 V2000
    9.7948   45.1234  131.8867 C   0  0  0  0  0  0  0  0  0  0  0  0
    9.4058   46.3280  132.2605 C   0  0  0  0  0  0  0  0  0  0  0  0
    9.9480   44.7284  130.4991 C   0  0  0  0  0  0  0  0  0  0  0  0
    9.1519   43.8639  129.8074 C   0  0  0  0  0  0  0  0  0  0  0  0
    9.4053   43.5471  128.4724 C   0  0  0  0  0  0  0  0  0  0  0  0
   10.4765   44.1080  127.8150 C   0  0  0  0  0  0  0  0  0  0  0  0
   10.7306   43.7932  126.4853 O   0  0  0  0  0  0  0  0  0  0  0  0
   11.2798   44.9872  128.5250 C   0  0  0  0  0  0  0  0  0  0  0  0
   11.0455   45.3094  129.8386 C   0  0  0  0  0  0  0  0  0  0  0  0
   11.5292   44.2282  126.0433 H   0  0  0  0  0  0  0  0  0  0  0  0
    9.3382   46.6892  133.6912 C   0  0  0  0  0  0  0  0  0  0  0  0
    8.5665   47.7158  134.1359 C   0  0  0  0  0  0  0  0  0  0  0  0
    8.4559   48.0050  135.5131 C   0  0  0  0  0  0  0  0  0  0  0  0
    9.1419   47.2356  136.4252 C   0  0  0  0  0  0  0  0  0  0  0  0
    9.9222   46.2038  136.0122 C   0  0  0  0  0  0  0  0  0  0  0  0
   10.0095   45.9472  134.6713 C   0  0  0  0  0  0  0  0  0  0  0  0
    8.9120   47.2371  131.2427 C   0  0  0  0  0  0  0  0  0  0  0  0
    9.6096   48.4014  131.0125 C   0  0  0  0  0  0  0  0  0  0  0  0
    9.2082   49.3624  130.0733 C   0  0  0  0  0  0  0  0  0  0  0  0
    8.0589   49.1021  129.3615 C   0  0  0  0  0  0  0  0  0  0  0  0
    7.3704   47.9410  129.5942 C   0  0  0  0  0  0  0  0  0  0  0  0
    7.7818   46.9825  130.5404 C   0  0  0  0  0  0  0  0  0  0  0  0
    7.5788   50.0129  128.3991 O   0  0  0  0  0  0  0  0  0  0  0  0
    6.7089   51.0692  128.8183 C   0  0  0  0  0  0  0  0  0  0  0  0
    7.3790   52.3802  128.6000 C   0  0  0  0  0  0  0  0  0  0  0  0
    6.8929   53.0939  127.4649 N   0  0  0  0  0  0  0  0  0  0  0  0
    6.7019   54.4994  127.7535 C   0  0  0  0  0  0  0  0  0  0  0  0
    7.6946   52.9743  126.2919 C   0  0  0  0  0  0  0  0  0  0  0  0
   11.5855   43.5983  132.5304 C   0  0  0  0  0  0  0  0  0  0  0  0
   10.1762   44.0997  132.9418 C   0  0  0  0  0  0  0  0  0  0  0  0
 29 30  1  0  0  0
 30  1  1  0  0  0
  1  2  2  0  0  0
  2 11  1  0  0  0
 11 12  2  0  0  0
 12 13  1  0  0  0
 13 14  2  0  0  0
 14 15  1  0  0  0
 15 16  2  0  0  0
  2 17  1  0  0  0
 17 18  2  0  0  0
 18 19  1  0  0  0
 19 20  2  0  0  0
 20 23  1  0  0  0
 23 24  1  0  0  0
 24 25  1  0  0  0
 25 26  1  0  0  0
 26 27  1  0  0  0
 26 28  1  0  0  0
 20 21  1  0  0  0
 21 22  2  0  0  0
  1  3  1  0  0  0
  3  4  2  0  0  0
  4  5  1  0  0  0
  5  6  2  0  0  0
  6  7  1  0  0  0
  6  8  1  0  0  0
  8  9  2  0  0  0
 16 11  1  0  0  0
 22 17  1  0  0  0
  9  3  1  0  0  0
  7 10  1  0  0  0
M  END
> <minimizedAffinity>
2.39376

> <CNNscore>
0.3963842988

> <CNNaffinity>
7.6390275955

> <CNN_VS>
3.0279905796

> <CNNaffinity_variance>
1.9112087488

$$$$
[H]Oc1c([H])c([H])c(/C(=C(/c2c([H])c([H])c([H])c([H])c2[H])c2c([H])c([H])c(OC([H])([H])C([H])([H])N(C([H])([H])[H])C([H])([H])[H])c([H])c2[H])C([H])([H])C([H])([H])[H])c([H])c1[H]


 30 32  0  0  0  0  0  0  0  0999 V2000
    8.8718   44.8248  131.2501 C   0  0  0  0  0  0  0  0  0  0  0  0
    9.8386   45.3657  131.9677 C   0  0  0  0  0  0  0  0  0  0  0  0
    7.9202   45.6014  130.4779 C   0  0  0  0  0  0  0  0  0  0  0  0
    6.6038   45.8002  130.7729 C   0  0  0  0  0  0  0  0  0  0  0  0
    5.7766   46.5594  129.9445 C   0  0  0  0  0  0  0  0  0  0  0  0
    6.2771   47.1332  128.7979 C   0  0  0  0  0  0  0  0  0  0  0  0
    5.4544   47.8894  127.9714 O   0  0  0  0  0  0  0  0  0  0  0  0
    7.6169   46.9276  128.5063 C   0  0  0  0  0  0  0  0  0  0  0  0
    8.4444   46.1831  129.3095 C   0  0  0  0  0  0  0  0  0  0  0  0
    5.8648   48.2908  127.1391 H   0  0  0  0  0  0  0  0  0  0  0  0
   10.8192   44.5168  132.6746 C   0  0  0  0  0  0  0  0  0  0  0  0
   11.7831   43.8278  132.0086 C   0  0  0  0  0  0  0  0  0  0  0  0
   12.7573   43.0773  132.7015 C   0  0  0  0  0  0  0  0  0  0  0  0
   12.7329   43.0396  134.0772 C   0  0  0  0  0  0  0  0  0  0  0  0
   11.7819   43.7162  134.7713 C   0  0  0  0  0  0  0  0  0  0  0  0
   10.8513   44.4354  134.0725 C   0  0  0  0  0  0  0  0  0  0  0  0
    9.8287   46.8041  132.1604 C   0  0  0  0  0  0  0  0  0  0  0  0
    8.9851   47.3300  133.1129 C   0  0  0  0  0  0  0  0  0  0  0  0
    8.8749   48.7053  133.3636 C   0  0  0  0  0  0  0  0  0  0  0  0
    9.6601   49.5458  132.6071 C   0  0  0  0  0  0  0  0  0  0  0  0
   10.4985   49.0160  131.6622 C   0  0  0  0  0  0  0  0  0  0  0  0
   10.6013   47.6330  131.4178 C   0  0  0  0  0  0  0  0  0  0  0  0
    9.6127   50.9427  132.7883 O   0  0  0  0  0  0  0  0  0  0  0  0
    8.8646   51.7364  131.8618 C   0  0  0  0  0  0  0  0  0  0  0  0
    8.4396   50.8903  130.7134 C   0  0  0  0  0  0  0  0  0  0  0  0
    7.1201   51.1692  130.2494 N   0  0  0  0  0  0  0  0  0  0  0  0
    7.0745   51.3135  128.8099 C   0  0  0  0  0  0  0  0  0  0  0  0
    6.1318   50.2202  130.6439 C   0  0  0  0  0  0  0  0  0  0  0  0
    9.0555   42.9814  129.6643 C   0  0  0  0  0  0  0  0  0  0  0  0
    8.7692   43.3127  131.1526 C   0  0  0  0  0  0  0  0  0  0  0  0
 29 30  1  0  0  0
 30  1  1  0  0  0
  1  2  2  0  0  0
  2 11  1  0  0  0
 11 12  2  0  0  0
 12 13  1  0  0  0
 13 14  2  0  0  0
 14 15  1  0  0  0
 15 16  2  0  0  0
  2 17  1  0  0  0
 17 18  2  0  0  0
 18 19  1  0  0  0
 19 20  2  0  0  0
 20 23  1  0  0  0
 23 24  1  0  0  0
 24 25  1  0  0  0
 25 26  1  0  0  0
 26 27  1  0  0  0
 26 28  1  0  0  0
 20 21  1  0  0  0
 21 22  2  0  0  0
  1  3  1  0  0  0
  3  4  2  0  0  0
  4  5  1  0  0  0
  5  6  2  0  0  0
  6  7  1  0  0  0
  6  8  1  0  0  0
  8  9  2  0  0  0
 16 11  1  0  0  0
 22 17  1  0  0  0
  9  3  1  0  0  0
  7 10  1  0  0  0
M  END
> <minimizedAffinity>
0.88958

> <CNNscore>
0.3899231553

> <CNNaffinity>
7.5244140625

> <CNN_VS>
2.9339432716

> <CNNaffinity_variance>
0.6269927621

$$$$
[H]Oc1c([H])c([H])c(/C(=C(/c2c([H])c([H])c([H])c([H])c2[H])c2c([H])c([H])c(OC([H])([H])C([H])([H])N(C([H])([H])[H])C([H])([H])[H])c([H])c2[H])C([H])([H])C([H])([H])[H])c([H])c1[H]


 30 32  0  0  0  0  0  0  0  0999 V2000
   10.1942   44.6214  132.0596 C   0  0  0  0  0  0  0  0  0  0  0  0
    9.8841   45.1619  130.8960 C   0  0  0  0  0  0  0  0  0  0  0  0
    9.9736   45.2832  133.3317 C   0  0  0  0  0  0  0  0  0  0  0  0
    8.8938   45.1312  134.1506 C   0  0  0  0  0  0  0  0  0  0  0  0
    8.7832   45.8341  135.3509 C   0  0  0  0  0  0  0  0  0  0  0  0
    9.7741   46.7058  135.7411 C   0  0  0  0  0  0  0  0  0  0  0  0
    9.6654   47.4070  136.9362 O   0  0  0  0  0  0  0  0  0  0  0  0
   10.8693   46.8531  134.9036 C   0  0  0  0  0  0  0  0  0  0  0  0
   10.9939   46.1704  133.7194 C   0  0  0  0  0  0  0  0  0  0  0  0
   10.4168   48.0374  137.1818 H   0  0  0  0  0  0  0  0  0  0  0  0
   10.0682   44.4066  129.6400 C   0  0  0  0  0  0  0  0  0  0  0  0
    9.0669   43.6666  129.0950 C   0  0  0  0  0  0  0  0  0  0  0  0
    9.2340   43.0075  127.8579 C   0  0  0  0  0  0  0  0  0  0  0  0
   10.4324   43.1134  127.1892 C   0  0  0  0  0  0  0  0  0  0  0  0
   11.4524   43.8442  127.7083 C   0  0  0  0  0  0  0  0  0  0  0  0
   11.2609   44.4721  128.9085 C   0  0  0  0  0  0  0  0  0  0  0  0
    9.4950   46.5598  130.8698 C   0  0  0  0  0  0  0  0  0  0  0  0
    8.3009   46.9167  131.4546 C   0  0  0  0  0  0  0  0  0  0  0  0
    7.8149   48.2322  131.4635 C   0  0  0  0  0  0  0  0  0  0  0  0
    8.5902   49.1915  130.8520 C   0  0  0  0  0  0  0  0  0  0  0  0
    9.7780   48.8299  130.2734 C   0  0  0  0  0  0  0  0  0  0  0  0
   10.2568   47.5056  130.2694 C   0  0  0  0  0  0  0  0  0  0  0  0
    8.1793   50.5390  130.8101 O   0  0  0  0  0  0  0  0  0  0  0  0
    7.1353   50.9170  129.9071 C   0  0  0  0  0  0  0  0  0  0  0  0
    7.0485   49.9215  128.8040 C   0  0  0  0  0  0  0  0  0  0  0  0
    5.7908   49.2532  128.7286 N   0  0  0  0  0  0  0  0  0  0  0  0
    5.9466   47.8146  128.6922 C   0  0  0  0  0  0  0  0  0  0  0  0
    4.8709   49.5859  129.7660 C   0  0  0  0  0  0  0  0  0  0  0  0
   12.2672   43.3731  132.3614 C   0  0  0  0  0  0  0  0  0  0  0  0
   10.7463   43.2073  132.1039 C   0  0  0  0  0  0  0  0  0  0  0  0
 29 30  1  0  0  0
 30  1  1  0  0  0
  1  2  2  0  0  0
  2 11  1  0  0  0
 11 12  2  0  0  0
 12 13  1  0  0  0
 13 14  2  0  0  0
 14 15  1  0  0  0
 15 16  2  0  0  0
  2 17  1  0  0  0
 17 18  2  0  0  0
 18 19  1  0  0  0
 19 20  2  0  0  0
 20 23  1  0  0  0
 23 24  1  0  0  0
 24 25  1  0  0  0
 25 26  1  0  0  0
 26 27  1  0  0  0
 26 28  1  0  0  0
 20 21  1  0  0  0
 21 22  2  0  0  0
  1  3  1  0  0  0
  3  4  2  0  0  0
  4  5  1  0  0  0
  5  6  2  0  0  0
  6  7  1  0  0  0
  6  8  1  0  0  0
  8  9  2  0  0  0
 16 11  1  0  0  0
 22 17  1  0  0  0
  9  3  1  0  0  0
  7 10  1  0  0  0
M  END
> <minimizedAffinity>
-0.75552

> <CNNscore>
0.3809182644

> <CNNaffinity>
7.6367063522

> <CNN_VS>
2.9089608192

> <CNNaffinity_variance>
0.3705875278

$$$$
[H]Oc1c([H])c([H])c(/C(=C(/c2c([H])c([H])c([H])c([H])c2[H])c2c([H])c([H])c(OC([H])([H])C([H])([H])N(C([H])([H])[H])C([H])([H])[H])c([H])c2[H])C([H])([H])C([H])([H])[H])c([H])c1[H]


 30 32  0  0  0  0  0  0  0  0999 V2000
    9.7828   47.4922  133.0776 C   0  0  0  0  0  0  0  0  0  0  0  0
   10.2954   46.3320  132.7124 C   0  0  0  0  0  0  0  0  0  0  0  0
    9.0701   48.3716  132.1699 C   0  0  0  0  0  0  0  0  0  0  0  0
    7.8530   48.1388  131.6009 C   0  0  0  0  0  0  0  0  0  0  0  0
    7.2679   49.0564  130.7275 C   0  0  0  0  0  0  0  0  0  0  0  0
    7.9132   50.2321  130.4182 C   0  0  0  0  0  0  0  0  0  0  0  0
    7.3320   51.1470  129.5481 O   0  0  0  0  0  0  0  0  0  0  0  0
    9.1494   50.4617  131.0025 C   0  0  0  0  0  0  0  0  0  0  0  0
    9.7397   49.5699  131.8629 C   0  0  0  0  0  0  0  0  0  0  0  0
    7.8428   51.9966  129.3489 H   0  0  0  0  0  0  0  0  0  0  0  0
   10.9477   45.4502  133.7018 C   0  0  0  0  0  0  0  0  0  0  0  0
   10.2294   44.7208  134.5958 C   0  0  0  0  0  0  0  0  0  0  0  0
   10.8617   43.8284  135.4883 C   0  0  0  0  0  0  0  0  0  0  0  0
   12.2310   43.6928  135.4557 C   0  0  0  0  0  0  0  0  0  0  0  0
   12.9766   44.4087  134.5750 C   0  0  0  0  0  0  0  0  0  0  0  0
   12.3359   45.2652  133.7221 C   0  0  0  0  0  0  0  0  0  0  0  0
   10.3290   46.0106  131.2975 C   0  0  0  0  0  0  0  0  0  0  0  0
   11.3973   45.2872  130.8170 C   0  0  0  0  0  0  0  0  0  0  0  0
   11.5449   44.9448  129.4651 C   0  0  0  0  0  0  0  0  0  0  0  0
   10.5592   45.3643  128.6005 C   0  0  0  0  0  0  0  0  0  0  0  0
    9.4981   46.0823  129.0853 C   0  0  0  0  0  0  0  0  0  0  0  0
    9.3596   46.4216  130.4451 C   0  0  0  0  0  0  0  0  0  0  0  0
   10.6263   45.0685  127.2242 O   0  0  0  0  0  0  0  0  0  0  0  0
   10.0800   43.8321  126.7539 C   0  0  0  0  0  0  0  0  0  0  0  0
    8.9899   43.3920  127.6669 C   0  0  0  0  0  0  0  0  0  0  0  0
    9.4542   42.8895  128.9183 N   0  0  0  0  0  0  0  0  0  0  0  0
    8.4404   42.9853  129.9469 C   0  0  0  0  0  0  0  0  0  0  0  0
    9.9432   41.5505  128.8836 C   0  0  0  0  0  0  0  0  0  0  0  0
    8.4783   47.5841  135.1358 C   0  0  0  0  0  0  0  0  0  0  0  0
    9.8667   47.9224  134.5317 C   0  0  0  0  0  0  0  0  0  0  0  0
 29 30  1  0  0  0
 30  1  1  0  0  0
  1  2  2  0  0  0
  2 11  1  0  0  0
 11 12  2  0  0  0
 12 13  1  0  0  0
 13 14  2  0  0  0
 14 15  1  0  0  0
 15 16  2  0  0  0
  2 17  1  0  0  0
 17 18  2  0  0  0
 18 19  1  0  0  0
 19 20  2  0  0  0
 20 23  1  0  0  0
 23 24  1  0  0  0
 24 25  1  0  0  0
 25 26  1  0  0  0
 26 27  1  0  0  0
 26 28  1  0  0  0
 20 21  1  0  0  0
 21 22  2  0  0  0
  1  3  1  0  0  0
  3  4  2  0  0  0
  4  5  1  0  0  0
  5  6  2  0  0  0
  6  7  1  0  0  0
  6  8  1  0  0  0
  8  9  2  0  0  0
 16 11  1  0  0  0
 22 17  1  0  0  0
  9  3  1  0  0  0
  7 10  1  0  0  0
M  END
> <minimizedAffinity>
0.44995

> <CNNscore>
0.3562553823

> <CNNaffinity>
7.5441694260

> <CNN_VS>
2.6876509190

> <CNNaffinity_variance>
0.9717350006

$$$$
[H]Oc1c([H])c([H])c(/C(=C(/c2c([H])c([H])c([H])c([H])c2[H])c2c([H])c([H])c(OC([H])([H])C([H])([H])N(C([H])([H])[H])C([H])([H])[H])c([H])c2[H])C([H])([H])C([H])([H])[H])c([H])c1[H]


 30 32  0  0  0  0  0  0  0  0999 V2000
    9.0088   48.4512  132.4877 C   0  0  0  0  0  0  0  0  0  0  0  0
    9.2471   47.1530  132.4797 C   0  0  0  0  0  0  0  0  0  0  0  0
    8.4815   49.1734  131.3452 C   0  0  0  0  0  0  0  0  0  0  0  0
    9.0892   49.3362  130.1354 C   0  0  0  0  0  0  0  0  0  0  0  0
    8.4889   50.0666  129.1092 C   0  0  0  0  0  0  0  0  0  0  0  0
    7.2540   50.6447  129.2965 C   0  0  0  0  0  0  0  0  0  0  0  0
    6.6547   51.3729  128.2755 O   0  0  0  0  0  0  0  0  0  0  0  0
    6.6422   50.4728  130.5288 C   0  0  0  0  0  0  0  0  0  0  0  0
    7.2187   49.7583  131.5492 C   0  0  0  0  0  0  0  0  0  0  0  0
    5.7478   51.7807  128.4583 H   0  0  0  0  0  0  0  0  0  0  0  0
    9.7171   46.4644  133.6991 C   0  0  0  0  0  0  0  0  0  0  0  0
    9.1120   46.6446  134.9027 C   0  0  0  0  0  0  0  0  0  0  0  0
    9.5265   45.9264  136.0450 C   0  0  0  0  0  0  0  0  0  0  0  0
   10.5631   45.0267  135.9417 C   0  0  0  0  0  0  0  0  0  0  0  0
   11.1887   44.8253  134.7534 C   0  0  0  0  0  0  0  0  0  0  0  0
   10.7647   45.5354  133.6637 C   0  0  0  0  0  0  0  0  0  0  0  0
    9.1737   46.4488  131.2128 C   0  0  0  0  0  0  0  0  0  0  0  0
    8.0153   45.7697  130.9089 C   0  0  0  0  0  0  0  0  0  0  0  0
    7.8457   45.0345  129.7268 C   0  0  0  0  0  0  0  0  0  0  0  0
    8.9038   45.0092  128.8465 C   0  0  0  0  0  0  0  0  0  0  0  0
   10.0530   45.6883  129.1542 C   0  0  0  0  0  0  0  0  0  0  0  0
   10.2134   46.4234  130.3447 C   0  0  0  0  0  0  0  0  0  0  0  0
    8.8237   44.2933  127.6351 O   0  0  0  0  0  0  0  0  0  0  0  0
    9.3429   42.9607  127.5823 C   0  0  0  0  0  0  0  0  0  0  0  0
   10.4650   42.8264  128.5511 C   0  0  0  0  0  0  0  0  0  0  0  0
   10.1027   42.1714  129.7651 N   0  0  0  0  0  0  0  0  0  0  0  0
   10.7889   42.7363  130.9075 C   0  0  0  0  0  0  0  0  0  0  0  0
    8.7038   42.1469  130.0400 C   0  0  0  0  0  0  0  0  0  0  0  0
   10.2454   50.3473  133.3944 C   0  0  0  0  0  0  0  0  0  0  0  0
    9.2215   49.2427  133.7663 C   0  0  0  0  0  0  0  0  0  0  0  0
 29 30  1  0  0  0
 30  1  1  0  0  0
  1  2  2  0  0  0
  2 11  1  0  0  0
 11 12  2  0  0  0
 12 13  1  0  0  0
 13 14  2  0  0  0
 14 15  1  0  0  0
 15 16  2  0  0  0
  2 17  1  0  0  0
 17 18  2  0  0  0
 18 19  1  0  0  0
 19 20  2  0  0  0
 20 23  1  0  0  0
 23 24  1  0  0  0
 24 25  1  0  0  0
 25 26  1  0  0  0
 26 27  1  0  0  0
 26 28  1  0  0  0
 20 21  1  0  0  0
 21 22  2  0  0  0
  1  3  1  0  0  0
  3  4  2  0  0  0
  4  5  1  0  0  0
  5  6  2  0  0  0
  6  7  1  0  0  0
  6  8  1  0  0  0
  8  9  2  0  0  0
 16 11  1  0  0  0
 22 17  1  0  0  0
  9  3  1  0  0  0
  7 10  1  0  0  0
M  END
> <minimizedAffinity>
0.00370

> <CNNscore>
0.3561672568

> <CNNaffinity>
7.2856621742

> <CNN_VS>
2.5949141979

> <CNNaffinity_variance>
0.6075838208

$$$$
[H]Oc1c([H])c([H])c(/C(=C(/c2c([H])c([H])c([H])c([H])c2[H])c2c([H])c([H])c(OC([H])([H])C([H])([H])N(C([H])([H])[H])C([H])([H])[H])c([H])c2[H])C([H])([H])C([H])([H])[H])c([H])c1[H]


 30 32  0  0  0  0  0  0  0  0999 V2000
    9.6976   45.8458  131.6912 C   0  0  0  0  0  0  0  0  0  0  0  0
    9.2992   46.0439  130.4486 C   0  0  0  0  0  0  0  0  0  0  0  0
    9.2620   46.6614  132.8092 C   0  0  0  0  0  0  0  0  0  0  0  0
    9.4252   48.0084  132.9449 C   0  0  0  0  0  0  0  0  0  0  0  0
    8.9744   48.6881  134.0771 C   0  0  0  0  0  0  0  0  0  0  0  0
    8.3456   48.0063  135.0939 C   0  0  0  0  0  0  0  0  0  0  0  0
    7.8963   48.6817  136.2225 O   0  0  0  0  0  0  0  0  0  0  0  0
    8.1821   46.6373  134.9472 C   0  0  0  0  0  0  0  0  0  0  0  0
    8.6200   45.9529  133.8409 C   0  0  0  0  0  0  0  0  0  0  0  0
    7.4410   48.1399  136.9448 H   0  0  0  0  0  0  0  0  0  0  0  0
    9.7237   45.1335  129.3656 C   0  0  0  0  0  0  0  0  0  0  0  0
   10.8933   45.3115  128.6964 C   0  0  0  0  0  0  0  0  0  0  0  0
   11.3205   44.3938  127.7126 C   0  0  0  0  0  0  0  0  0  0  0  0
   10.5400   43.2978  127.4225 C   0  0  0  0  0  0  0  0  0  0  0  0
    9.3656   43.0929  128.0727 C   0  0  0  0  0  0  0  0  0  0  0  0
    8.9778   43.9991  129.0215 C   0  0  0  0  0  0  0  0  0  0  0  0
    8.5547   47.2536  130.1505 C   0  0  0  0  0  0  0  0  0  0  0  0
    9.2414   48.4453  130.0902 C   0  0  0  0  0  0  0  0  0  0  0  0
    8.6193   49.6763  129.8368 C   0  0  0  0  0  0  0  0  0  0  0  0
    7.2566   49.6621  129.6420 C   0  0  0  0  0  0  0  0  0  0  0  0
    6.5795   48.4728  129.7016 C   0  0  0  0  0  0  0  0  0  0  0  0
    7.2139   47.2418  129.9574 C   0  0  0  0  0  0  0  0  0  0  0  0
    6.5473   50.8525  129.3845 O   0  0  0  0  0  0  0  0  0  0  0  0
    7.2796   52.0394  129.0633 C   0  0  0  0  0  0  0  0  0  0  0  0
    6.9945   52.4330  127.6564 C   0  0  0  0  0  0  0  0  0  0  0  0
    7.3461   53.7815  127.3528 N   0  0  0  0  0  0  0  0  0  0  0  0
    8.2217   53.8642  126.2032 C   0  0  0  0  0  0  0  0  0  0  0  0
    6.2408   54.6586  127.1479 C   0  0  0  0  0  0  0  0  0  0  0  0
    9.6490   43.5367  132.4738 C   0  0  0  0  0  0  0  0  0  0  0  0
   10.6027   44.6680  132.0075 C   0  0  0  0  0  0  0  0  0  0  0  0
 29 30  1  0  0  0
 30  1  1  0  0  0
  1  2  2  0  0  0
  2 11  1  0  0  0
 11 12  2  0  0  0
 12 13  1  0  0  0
 13 14  2  0  0  0
 14 15  1  0  0  0
 15 16  2  0  0  0
  2 17  1  0  0  0
 17 18  2  0  0  0
 18 19  1  0  0  0
 19 20  2  0  0  0
 20 23  1  0  0  0
 23 24  1  0  0  0
 24 25  1  0  0  0
 25 26  1  0  0  0
 26 27  1  0  0  0
 26 28  1  0  0  0
 20 21  1  0  0  0
 21 22  2  0  0  0
  1  3  1  0  0  0
  3  4  2  0  0  0
  4  5  1  0  0  0
  5  6  2  0  0  0
  6  7  1  0  0  0
  6  8  1  0  0  0
  8  9  2  0  0  0
 16 11  1  0  0  0
 22 17  1  0  0  0
  9  3  1  0  0  0
  7 10  1  0  0  0
M  END
> <minimizedAffinity>
-0.35394

> <CNNscore>
0.3320046961

> <CNNaffinity>
7.2507658005

> <CNN_VS>
2.4072883129

> <CNNaffinity_variance>
0.6406668425

$$$$
[H]Oc1c([H])c([H])c(/C(=C(\c2c([H])c([H])c([H])c([H])c2[H])C([H])([H])C([H])([H])[H])c2c([H])c([H])c(OC([H])([H])C([H])([H])C([H])([H])N([H])[H])c([H])c2[H])c([H])c1[H]


 31 33  0  0  0  0  0  0  0  0999 V2000
    9.5168   46.6929  132.3555 C   0  0  0  0  0  0  0  0  0  0  0  0
    9.0979   46.7367  131.1254 C   0  0  0  0  0  0  0  0  0  0  0  0
    9.3419   45.6615  130.1864 C   0  0  0  0  0  0  0  0  0  0  0  0
   10.3484   45.7302  129.2720 C   0  0  0  0  0  0  0  0  0  0  0  0
   10.5779   44.6822  128.3719 C   0  0  0  0  0  0  0  0  0  0  0  0
    9.7427   43.5729  128.4474 C   0  0  0  0  0  0  0  0  0  0  0  0
    9.9291   42.5111  127.5802 O   0  0  0  0  0  0  0  0  0  0  0  0
    8.7129   43.4837  129.3707 C   0  0  0  0  0  0  0  0  0  0  0  0
    8.5458   44.5518  130.2238 C   0  0  0  0  0  0  0  0  0  0  0  0
   10.5588   41.7464  127.8585 H   0  0  0  0  0  0  0  0  0  0  0  0
    8.3802   47.8838  130.5135 C   0  0  0  0  0  0  0  0  0  0  0  0
    7.2763   47.7813  129.7316 C   0  0  0  0  0  0  0  0  0  0  0  0
    6.6944   48.9015  129.2032 C   0  0  0  0  0  0  0  0  0  0  0  0
    7.1814   50.1945  129.4255 C   0  0  0  0  0  0  0  0  0  0  0  0
    8.3041   50.2804  130.2228 C   0  0  0  0  0  0  0  0  0  0  0  0
    8.8930   49.1566  130.7561 C   0  0  0  0  0  0  0  0  0  0  0  0
    6.5446   51.2918  128.8618 O   0  0  0  0  0  0  0  0  0  0  0  0
    7.0675   52.5688  128.7141 C   0  0  0  0  0  0  0  0  0  0  0  0
    7.1824   52.8210  127.2056 C   0  0  0  0  0  0  0  0  0  0  0  0
    7.4266   54.2941  126.9749 C   0  0  0  0  0  0  0  0  0  0  0  0
    6.7971   54.6541  125.7336 N   0  0  0  0  0  0  0  0  0  0  0  0
    5.9313   55.2225  125.9801 H   0  0  0  0  0  0  0  0  0  0  0  0
    7.4614   55.2715  125.2145 H   0  0  0  0  0  0  0  0  0  0  0  0
   10.3535   45.6291  132.9077 C   0  0  0  0  0  0  0  0  0  0  0  0
    9.8605   44.4430  133.4019 C   0  0  0  0  0  0  0  0  0  0  0  0
   10.6983   43.4715  133.9044 C   0  0  0  0  0  0  0  0  0  0  0  0
   12.0709   43.6391  133.9369 C   0  0  0  0  0  0  0  0  0  0  0  0
   12.5772   44.8232  133.4451 C   0  0  0  0  0  0  0  0  0  0  0  0
   11.7356   45.7903  132.9443 C   0  0  0  0  0  0  0  0  0  0  0  0
    8.7943   47.3553  134.6611 C   0  0  0  0  0  0  0  0  0  0  0  0
    9.2256   47.8340  133.3049 C   0  0  0  0  0  0  0  0  0  0  0  0
 30 31  1  0  0  0
 31  1  1  0  0  0
  1  2  2  0  0  0
  2  3  1  0  0  0
  3  4  2  0  0  0
  4  5  1  0  0  0
  5  6  2  0  0  0
  6  7  1  0  0  0
  6  8  1  0  0  0
  8  9  2  0  0  0
  2 11  1  0  0  0
 11 12  2  0  0  0
 12 13  1  0  0  0
 13 14  2  0  0  0
 14 17  1  0  0  0
 17 18  1  0  0  0
 18 19  1  0  0  0
 19 20  1  0  0  0
 20 21  1  0  0  0
 14 15  1  0  0  0
 15 16  2  0  0  0
  1 24  1  0  0  0
 24 25  2  0  0  0
 25 26  1  0  0  0
 26 27  2  0  0  0
 27 28  1  0  0  0
 28 29  2  0  0  0
  9  3  1  0  0  0
 16 11  1  0  0  0
 29 24  1  0  0  0
  7 10  1  0  0  0
 21 22  1  0  0  0
 21 23  1  0  0  0
M  END
> <minimizedAffinity>
-6.64066

> <CNNscore>
0.6148731112

> <CNNaffinity>
7.7193307877

> <CNN_VS>
4.7464089394

> <CNNaffinity_variance>
0.3341984451

$$$$
[H]Oc1c([H])c([H])c(/C(=C(\c2c([H])c([H])c([H])c([H])c2[H])C([H])([H])C([H])([H])[H])c2c([H])c([H])c(OC([H])([H])C([H])([H])C([H])([H])N([H])[H])c([H])c2[H])c([H])c1[H]


 31 33  0  0  0  0  0  0  0  0999 V2000
    9.5305   42.3303  132.0238 C   0  0  0  0  0  0  0  0  0  0  0  0
   10.0587   43.5184  132.0241 C   0  0  0  0  0  0  0  0  0  0  0  0
    9.5765   44.5791  132.8842 C   0  0  0  0  0  0  0  0  0  0  0  0
   10.2115   44.8974  134.0457 C   0  0  0  0  0  0  0  0  0  0  0  0
    9.7387   45.9281  134.8674 C   0  0  0  0  0  0  0  0  0  0  0  0
    8.6009   46.6121  134.4534 C   0  0  0  0  0  0  0  0  0  0  0  0
    8.0947   47.6391  135.2300 O   0  0  0  0  0  0  0  0  0  0  0  0
    7.9401   46.3035  133.2747 C   0  0  0  0  0  0  0  0  0  0  0  0
    8.4613   45.2781  132.5175 C   0  0  0  0  0  0  0  0  0  0  0  0
    8.4292   48.5982  135.0657 H   0  0  0  0  0  0  0  0  0  0  0  0
   11.1609   43.9575  131.1311 C   0  0  0  0  0  0  0  0  0  0  0  0
   11.0091   44.3289  129.8351 C   0  0  0  0  0  0  0  0  0  0  0  0
   12.0932   44.7065  129.0904 C   0  0  0  0  0  0  0  0  0  0  0  0
   13.3974   44.7363  129.5973 C   0  0  0  0  0  0  0  0  0  0  0  0
   13.5335   44.3559  130.9165 C   0  0  0  0  0  0  0  0  0  0  0  0
   12.4461   43.9751  131.6694 C   0  0  0  0  0  0  0  0  0  0  0  0
   14.4560   45.1305  128.7905 O   0  0  0  0  0  0  0  0  0  0  0  0
   15.0298   44.4002  127.7593 C   0  0  0  0  0  0  0  0  0  0  0  0
   16.1136   43.5224  128.3972 C   0  0  0  0  0  0  0  0  0  0  0  0
   15.5193   42.1712  128.7195 C   0  0  0  0  0  0  0  0  0  0  0  0
   16.5654   41.1922  128.6008 N   0  0  0  0  0  0  0  0  0  0  0  0
   16.8225   40.8939  129.5899 H   0  0  0  0  0  0  0  0  0  0  0  0
   16.1650   40.3670  128.1000 H   0  0  0  0  0  0  0  0  0  0  0  0
    8.3484   41.9497  132.7949 C   0  0  0  0  0  0  0  0  0  0  0  0
    7.0878   41.8259  132.2567 C   0  0  0  0  0  0  0  0  0  0  0  0
    6.0099   41.4565  133.0313 C   0  0  0  0  0  0  0  0  0  0  0  0
    6.1406   41.1926  134.3827 C   0  0  0  0  0  0  0  0  0  0  0  0
    7.3982   41.3136  134.9339 C   0  0  0  0  0  0  0  0  0  0  0  0
    8.4716   41.6829  134.1555 C   0  0  0  0  0  0  0  0  0  0  0  0
   11.2425   40.5252  131.7283 C   0  0  0  0  0  0  0  0  0  0  0  0
   10.0773   41.2493  131.1179 C   0  0  0  0  0  0  0  0  0  0  0  0
 30 31  1  0  0  0
 31  1  1  0  0  0
  1  2  2  0  0  0
  2  3  1  0  0  0
  3  4  2  0  0  0
  4  5  1  0  0  0
  5  6  2  0  0  0
  6  7  1  0  0  0
  6  8  1  0  0  0
  8  9  2  0  0  0
  2 11  1  0  0  0
 11 12  2  0  0  0
 12 13  1  0  0  0
 13 14  2  0  0  0
 14 17  1  0  0  0
 17 18  1  0  0  0
 18 19  1  0  0  0
 19 20  1  0  0  0
 20 21  1  0  0  0
 14 15  1  0  0  0
 15 16  2  0  0  0
  1 24  1  0  0  0
 24 25  2  0  0  0
 25 26  1  0  0  0
 26 27  2  0  0  0
 27 28  1  0  0  0
 28 29  2  0  0  0
  9  3  1  0  0  0
 16 11  1  0  0  0
 29 24  1  0  0  0
  7 10  1  0  0  0
 21 22  1  0  0  0
 21 23  1  0  0  0
M  END
> <minimizedAffinity>
22.45757

> <CNNscore>
0.5243806839

> <CNNaffinity>
7.0682373047

> <CNN_VS>
3.7064471245

> <CNNaffinity_variance>
1.6731626987

$$$$
[H]Oc1c([H])c([H])c(/C(=C(\c2c([H])c([H])c([H])c([H])c2[H])C([H])([H])C([H])([H])[H])c2c([H])c([H])c(OC([H])([H])C([H])([H])C([H])([H])N([H])[H])c([H])c2[H])c([H])c1[H]


 31 33  0  0  0  0  0  0  0  0999 V2000
   10.1805   45.8531  131.4152 C   0  0  0  0  0  0  0  0  0  0  0  0
    9.4565   45.6019  130.3648 C   0  0  0  0  0  0  0  0  0  0  0  0
    8.3241   46.4237  129.9915 C   0  0  0  0  0  0  0  0  0  0  0  0
    7.0471   46.0480  130.2782 C   0  0  0  0  0  0  0  0  0  0  0  0
    5.9599   46.8529  129.9163 C   0  0  0  0  0  0  0  0  0  0  0  0
    6.2326   48.0461  129.2562 C   0  0  0  0  0  0  0  0  0  0  0  0
    5.1926   48.8766  128.8782 O   0  0  0  0  0  0  0  0  0  0  0  0
    7.5249   48.4465  128.9553 C   0  0  0  0  0  0  0  0  0  0  0  0
    8.5444   47.6047  129.3409 C   0  0  0  0  0  0  0  0  0  0  0  0
    4.8708   49.6009  129.5344 H   0  0  0  0  0  0  0  0  0  0  0  0
    9.6494   44.4413  129.4588 C   0  0  0  0  0  0  0  0  0  0  0  0
    9.1251   43.2058  129.6572 C   0  0  0  0  0  0  0  0  0  0  0  0
    9.3727   42.1964  128.7672 C   0  0  0  0  0  0  0  0  0  0  0  0
   10.1604   42.3613  127.6222 C   0  0  0  0  0  0  0  0  0  0  0  0
   10.6852   43.6236  127.4359 C   0  0  0  0  0  0  0  0  0  0  0  0
   10.4393   44.6419  128.3285 C   0  0  0  0  0  0  0  0  0  0  0  0
   10.3732   41.2972  126.7564 O   0  0  0  0  0  0  0  0  0  0  0  0
   10.6487   39.9835  127.1088 C   0  0  0  0  0  0  0  0  0  0  0  0
   10.9809   39.2435  125.8070 C   0  0  0  0  0  0  0  0  0  0  0  0
   12.4746   39.0274  125.7369 C   0  0  0  0  0  0  0  0  0  0  0  0
   13.0416   40.1203  124.9947 N   0  0  0  0  0  0  0  0  0  0  0  0
   13.5455   40.7417  125.6972 H   0  0  0  0  0  0  0  0  0  0  0  0
   13.7505   39.7186  124.3404 H   0  0  0  0  0  0  0  0  0  0  0  0
    9.8926   46.9071  132.3864 C   0  0  0  0  0  0  0  0  0  0  0  0
    9.1127   46.7272  133.5059 C   0  0  0  0  0  0  0  0  0  0  0  0
    8.8808   47.7566  134.3919 C   0  0  0  0  0  0  0  0  0  0  0  0
    9.4182   49.0167  134.2010 C   0  0  0  0  0  0  0  0  0  0  0  0
   10.2010   49.2098  133.0830 C   0  0  0  0  0  0  0  0  0  0  0  0
   10.4294   48.1780  132.2011 C   0  0  0  0  0  0  0  0  0  0  0  0
   11.0088   43.8914  132.7353 C   0  0  0  0  0  0  0  0  0  0  0  0
   11.3635   44.9748  131.7580 C   0  0  0  0  0  0  0  0  0  0  0  0
 30 31  1  0  0  0
 31  1  1  0  0  0
  1  2  2  0  0  0
  2  3  1  0  0  0
  3  4  2  0  0  0
  4  5  1  0  0  0
  5  6  2  0  0  0
  6  7  1  0  0  0
  6  8  1  0  0  0
  8  9  2  0  0  0
  2 11  1  0  0  0
 11 12  2  0  0  0
 12 13  1  0  0  0
 13 14  2  0  0  0
 14 17  1  0  0  0
 17 18  1  0  0  0
 18 19  1  0  0  0
 19 20  1  0  0  0
 20 21  1  0  0  0
 14 15  1  0  0  0
 15 16  2  0  0  0
  1 24  1  0  0  0
 24 25  2  0  0  0
 25 26  1  0  0  0
 26 27  2  0  0  0
 27 28  1  0  0  0
 28 29  2  0  0  0
  9  3  1  0  0  0
 16 11  1  0  0  0
 29 24  1  0  0  0
  7 10  1  0  0  0
 21 22  1  0  0  0
 21 23  1  0  0  0
M  END
> <minimizedAffinity>
3.70236

> <CNNscore>
0.5222449899

> <CNNaffinity>
7.6747274399

> <CNN_VS>
4.0080881119

> <CNNaffinity_variance>
1.3171583414

$$$$
[H]Oc1c([H])c([H])c(/C(=C(\c2c([H])c([H])c([H])c([H])c2[H])C([H])([H])C([H])([H])[H])c2c([H])c([H])c(OC([H])([H])C([H])([H])C([H])([H])N([H])[H])c([H])c2[H])c([H])c1[H]


 31 33  0  0  0  0  0  0  0  0999 V2000
   10.7867   44.9049  130.7691 C   0  0  0  0  0  0  0  0  0  0  0  0
   10.2070   45.9408  131.2996 C   0  0  0  0  0  0  0  0  0  0  0  0
    9.0644   46.5860  130.6868 C   0  0  0  0  0  0  0  0  0  0  0  0
    9.2022   47.7120  129.9339 C   0  0  0  0  0  0  0  0  0  0  0  0
    8.0906   48.3248  129.3424 C   0  0  0  0  0  0  0  0  0  0  0  0
    6.8456   47.7417  129.5517 C   0  0  0  0  0  0  0  0  0  0  0  0
    5.7167   48.3090  128.9880 O   0  0  0  0  0  0  0  0  0  0  0  0
    6.6842   46.5959  130.3146 C   0  0  0  0  0  0  0  0  0  0  0  0
    7.8212   46.0483  130.8658 C   0  0  0  0  0  0  0  0  0  0  0  0
    5.4243   48.0070  128.0488 H   0  0  0  0  0  0  0  0  0  0  0  0
   10.6549   46.6209  132.5413 C   0  0  0  0  0  0  0  0  0  0  0  0
   11.2798   46.0100  133.5791 C   0  0  0  0  0  0  0  0  0  0  0  0
   11.6424   46.7249  134.6881 C   0  0  0  0  0  0  0  0  0  0  0  0
   11.4023   48.0967  134.8269 C   0  0  0  0  0  0  0  0  0  0  0  0
   10.7665   48.7018  133.7625 C   0  0  0  0  0  0  0  0  0  0  0  0
   10.3996   47.9869  132.6452 C   0  0  0  0  0  0  0  0  0  0  0  0
   11.7962   48.7661  135.9775 O   0  0  0  0  0  0  0  0  0  0  0  0
   13.0319   49.3518  136.2146 C   0  0  0  0  0  0  0  0  0  0  0  0
   14.0754   48.2351  136.0864 C   0  0  0  0  0  0  0  0  0  0  0  0
   14.9608   48.2526  137.3106 C   0  0  0  0  0  0  0  0  0  0  0  0
   15.9278   47.1984  137.1677 N   0  0  0  0  0  0  0  0  0  0  0  0
   16.8609   47.6630  136.9510 H   0  0  0  0  0  0  0  0  0  0  0  0
   16.0044   46.7179  138.0925 H   0  0  0  0  0  0  0  0  0  0  0  0
   10.4354   44.3346  129.4698 C   0  0  0  0  0  0  0  0  0  0  0  0
   10.8419   44.8611  128.2650 C   0  0  0  0  0  0  0  0  0  0  0  0
   10.4858   44.2762  127.0695 C   0  0  0  0  0  0  0  0  0  0  0  0
    9.7053   43.1354  127.0208 C   0  0  0  0  0  0  0  0  0  0  0  0
    9.2912   42.5984  128.2209 C   0  0  0  0  0  0  0  0  0  0  0  0
    9.6499   43.1868  129.4124 C   0  0  0  0  0  0  0  0  0  0  0  0
   13.2265   44.3510  130.6378 C   0  0  0  0  0  0  0  0  0  0  0  0
   11.9692   44.2550  131.4530 C   0  0  0  0  0  0  0  0  0  0  0  0
 30 31  1  0  0  0
 31  1  1  0  0  0
  1  2  2  0  0  0
  2  3  1  0  0  0
  3  4  2  0  0  0
  4  5  1  0  0  0
  5  6  2  0  0  0
  6  7  1  0  0  0
  6  8  1  0  0  0
  8  9  2  0  0  0
  2 11  1  0  0  0
 11 12  2  0  0  0
 12 13  1  0  0  0
 13 14  2  0  0  0
 14 17  1  0  0  0
 17 18  1  0  0  0
 18 19  1  0  0  0
 19 20  1  0  0  0
 20 21  1  0  0  0
 14 15  1  0  0  0
 15 16  2  0  0  0
  1 24  1  0  0  0
 24 25  2  0  0  0
 25 26  1  0  0  0
 26 27  2  0  0  0
 27 28  1  0  0  0
 28 29  2  0  0  0
  9  3  1  0  0  0
 16 11  1  0  0  0
 29 24  1  0  0  0
  7 10  1  0  0  0
 21 22  1  0  0  0
 21 23  1  0  0  0
M  END
> <minimizedAffinity>
4.19450

> <CNNscore>
0.5020250082

> <CNNaffinity>
7.4386763573

> <CNN_VS>
3.7344014645

> <CNNaffinity_variance>
1.5044615269

$$$$
[H]Oc1c([H])c([H])c(/C(=C(\c2c([H])c([H])c([H])c([H])c2[H])C([H])([H])C([H])([H])[H])c2c([H])c([H])c(OC([H])([H])C([H])([H])C([H])([H])N([H])[H])c([H])c2[H])c([H])c1[H]


 31 33  0  0  0  0  0  0  0  0999 V2000
    9.7135   44.7422  130.2697 C   0  0  0  0  0  0  0  0  0  0  0  0
    9.2870   45.7558  130.9635 C   0  0  0  0  0  0  0  0  0  0  0  0
    8.7306   46.9395  130.3418 C   0  0  0  0  0  0  0  0  0  0  0  0
    9.3816   48.1348  130.3776 C   0  0  0  0  0  0  0  0  0  0  0  0
    8.8361   49.2719  129.7690 C   0  0  0  0  0  0  0  0  0  0  0  0
    7.6094   49.1345  129.1285 C   0  0  0  0  0  0  0  0  0  0  0  0
    7.0291   50.2284  128.5115 O   0  0  0  0  0  0  0  0  0  0  0  0
    6.9310   47.9268  129.0808 C   0  0  0  0  0  0  0  0  0  0  0  0
    7.5271   46.8515  129.7012 C   0  0  0  0  0  0  0  0  0  0  0  0
    7.2446   50.4141  127.5227 H   0  0  0  0  0  0  0  0  0  0  0  0
    9.3587   45.8620  132.4429 C   0  0  0  0  0  0  0  0  0  0  0  0
    8.3882   45.4543  133.2987 C   0  0  0  0  0  0  0  0  0  0  0  0
    8.5453   45.6079  134.6494 C   0  0  0  0  0  0  0  0  0  0  0  0
    9.6845   46.1792  135.2275 C   0  0  0  0  0  0  0  0  0  0  0  0
   10.6613   46.5880  134.3430 C   0  0  0  0  0  0  0  0  0  0  0  0
   10.5077   46.4358  132.9838 C   0  0  0  0  0  0  0  0  0  0  0  0
    9.7844   46.3061  136.6063 O   0  0  0  0  0  0  0  0  0  0  0  0
   10.2505   45.3482  137.4958 C   0  0  0  0  0  0  0  0  0  0  0  0
   10.2771   44.0191  136.7308 C   0  0  0  0  0  0  0  0  0  0  0  0
   11.6023   43.8948  136.0157 C   0  0  0  0  0  0  0  0  0  0  0  0
   11.3540   43.2954  134.7328 N   0  0  0  0  0  0  0  0  0  0  0  0
   11.4634   44.0657  134.0060 H   0  0  0  0  0  0  0  0  0  0  0  0
   12.0997   42.5812  134.5726 H   0  0  0  0  0  0  0  0  0  0  0  0
    9.7802   44.7077  128.8098 C   0  0  0  0  0  0  0  0  0  0  0  0
    9.1043   43.7956  128.0319 C   0  0  0  0  0  0  0  0  0  0  0  0
    9.1990   43.8149  126.6575 C   0  0  0  0  0  0  0  0  0  0  0  0
    9.9749   44.7481  125.9940 C   0  0  0  0  0  0  0  0  0  0  0  0
   10.6574   45.6669  126.7621 C   0  0  0  0  0  0  0  0  0  0  0  0
   10.5592   45.6431  128.1348 C   0  0  0  0  0  0  0  0  0  0  0  0
   11.7745   43.5304  131.0184 C   0  0  0  0  0  0  0  0  0  0  0  0
   10.2740   43.5205  130.9636 C   0  0  0  0  0  0  0  0  0  0  0  0
 30 31  1  0  0  0
 31  1  1  0  0  0
  1  2  2  0  0  0
  2  3  1  0  0  0
  3  4  2  0  0  0
  4  5  1  0  0  0
  5  6  2  0  0  0
  6  7  1  0  0  0
  6  8  1  0  0  0
  8  9  2  0  0  0
  2 11  1  0  0  0
 11 12  2  0  0  0
 12 13  1  0  0  0
 13 14  2  0  0  0
 14 17  1  0  0  0
 17 18  1  0  0  0
 18 19  1  0  0  0
 19 20  1  0  0  0
 20 21  1  0  0  0
 14 15  1  0  0  0
 15 16  2  0  0  0
  1 24  1  0  0  0
 24 25  2  0  0  0
 25 26  1  0  0  0
 26 27  2  0  0  0
 27 28  1  0  0  0
 28 29  2  0  0  0
  9  3  1  0  0  0
 16 11  1  0  0  0
 29 24  1  0  0  0
  7 10  1  0  0  0
 21 22  1  0  0  0
 21 23  1  0  0  0
M  END
> <minimizedAffinity>
5.65761

> <CNNscore>
0.4739924073

> <CNNaffinity>
7.9231047630

> <CNN_VS>
3.7554914951

> <CNNaffinity_variance>
1.9592506886

$$$$
[H]Oc1c([H])c([H])c(/C(=C(\c2c([H])c([H])c([H])c([H])c2[H])C([H])([H])C([H])([H])[H])c2c([H])c([H])c(OC([H])([H])C([H])([H])C([H])([H])N([H])[H])c([H])c2[H])c([H])c1[H]


 31 33  0  0  0  0  0  0  0  0999 V2000
   10.4819   45.2443  130.9252 C   0  0  0  0  0  0  0  0  0  0  0  0
   10.0279   46.1330  131.7587 C   0  0  0  0  0  0  0  0  0  0  0  0
    9.9848   45.9024  133.1877 C   0  0  0  0  0  0  0  0  0  0  0  0
    8.8904   45.3583  133.7879 C   0  0  0  0  0  0  0  0  0  0  0  0
    8.8618   45.1357  135.1702 C   0  0  0  0  0  0  0  0  0  0  0  0
    9.9890   45.4892  135.9037 C   0  0  0  0  0  0  0  0  0  0  0  0
   10.0101   45.2885  137.2724 O   0  0  0  0  0  0  0  0  0  0  0  0
   11.1127   46.0441  135.3118 C   0  0  0  0  0  0  0  0  0  0  0  0
   11.0698   46.2348  133.9486 C   0  0  0  0  0  0  0  0  0  0  0  0
   10.3579   44.3919  137.6383 H   0  0  0  0  0  0  0  0  0  0  0  0
    9.4563   47.4473  131.3700 C   0  0  0  0  0  0  0  0  0  0  0  0
    8.3178   47.9804  131.8799 C   0  0  0  0  0  0  0  0  0  0  0  0
    7.8663   49.1968  131.4452 C   0  0  0  0  0  0  0  0  0  0  0  0
    8.5273   49.9558  130.4728 C   0  0  0  0  0  0  0  0  0  0  0  0
    9.6832   49.3991  129.9653 C   0  0  0  0  0  0  0  0  0  0  0  0
   10.1410   48.1758  130.3992 C   0  0  0  0  0  0  0  0  0  0  0  0
    8.0186   51.1846  130.0748 O   0  0  0  0  0  0  0  0  0  0  0  0
    6.8666   51.4044  129.3327 C   0  0  0  0  0  0  0  0  0  0  0  0
    6.5816   50.1022  128.5741 C   0  0  0  0  0  0  0  0  0  0  0  0
    5.5879   49.2844  129.3657 C   0  0  0  0  0  0  0  0  0  0  0  0
    4.2761   49.8074  129.0965 N   0  0  0  0  0  0  0  0  0  0  0  0
    3.7851   49.1011  128.4692 H   0  0  0  0  0  0  0  0  0  0  0  0
    3.7653   49.8524  130.0070 H   0  0  0  0  0  0  0  0  0  0  0  0
   10.9009   43.8951  131.3007 C   0  0  0  0  0  0  0  0  0  0  0  0
   12.0176   43.6206  132.0568 C   0  0  0  0  0  0  0  0  0  0  0  0
   12.3606   42.3276  132.3869 C   0  0  0  0  0  0  0  0  0  0  0  0
   11.6029   41.2457  131.9764 C   0  0  0  0  0  0  0  0  0  0  0  0
   10.4821   41.5075  131.2179 C   0  0  0  0  0  0  0  0  0  0  0  0
   10.1440   42.8011  130.8911 C   0  0  0  0  0  0  0  0  0  0  0  0
    9.1489   45.6142  128.8365 C   0  0  0  0  0  0  0  0  0  0  0  0
   10.5210   45.5353  129.4413 C   0  0  0  0  0  0  0  0  0  0  0  0
 30 31  1  0  0  0
 31  1  1  0  0  0
  1  2  2  0  0  0
  2  3  1  0  0  0
  3  4  2  0  0  0
  4  5  1  0  0  0
  5  6  2  0  0  0
  6  7  1  0  0  0
  6  8  1  0  0  0
  8  9  2  0  0  0
  2 11  1  0  0  0
 11 12  2  0  0  0
 12 13  1  0  0  0
 13 14  2  0  0  0
 14 17  1  0  0  0
 17 18  1  0  0  0
 18 19  1  0  0  0
 19 20  1  0  0  0
 20 21  1  0  0  0
 14 15  1  0  0  0
 15 16  2  0  0  0
  1 24  1  0  0  0
 24 25  2  0  0  0
 25 26  1  0  0  0
 26 27  2  0  0  0
 27 28  1  0  0  0
 28 29  2  0  0  0
  9  3  1  0  0  0
 16 11  1  0  0  0
 29 24  1  0  0  0
  7 10  1  0  0  0
 21 22  1  0  0  0
 21 23  1  0  0  0
M  END
> <minimizedAffinity>
2.22485

> <CNNscore>
0.4409128428

> <CNNaffinity>
7.6885805130

> <CNN_VS>
3.3899939060

> <CNNaffinity_variance>
1.3219707012

$$$$
[H]Oc1c([H])c([H])c(/C(=C(\c2c([H])c([H])c([H])c([H])c2[H])C([H])([H])C([H])([H])[H])c2c([H])c([H])c(OC([H])([H])C([H])([H])C([H])([H])N([H])[H])c([H])c2[H])c([H])c1[H]


 31 33  0  0  0  0  0  0  0  0999 V2000
    9.2446   46.9191  132.2593 C   0  0  0  0  0  0  0  0  0  0  0  0
    8.6757   46.7869  131.0977 C   0  0  0  0  0  0  0  0  0  0  0  0
    8.9628   45.6728  130.2181 C   0  0  0  0  0  0  0  0  0  0  0  0
    8.4108   44.4449  130.4217 C   0  0  0  0  0  0  0  0  0  0  0  0
    8.6922   43.3760  129.5619 C   0  0  0  0  0  0  0  0  0  0  0  0
    9.5527   43.6151  128.4961 C   0  0  0  0  0  0  0  0  0  0  0  0
    9.8615   42.5915  127.6180 O   0  0  0  0  0  0  0  0  0  0  0  0
   10.1247   44.8575  128.2716 C   0  0  0  0  0  0  0  0  0  0  0  0
    9.8034   45.8615  129.1577 C   0  0  0  0  0  0  0  0  0  0  0  0
    9.2702   42.4535  126.7874 H   0  0  0  0  0  0  0  0  0  0  0  0
    7.7221   47.7582  130.5041 C   0  0  0  0  0  0  0  0  0  0  0  0
    7.8754   49.1061  130.5208 C   0  0  0  0  0  0  0  0  0  0  0  0
    6.9305   49.9185  129.9554 C   0  0  0  0  0  0  0  0  0  0  0  0
    5.7731   49.4317  129.3373 C   0  0  0  0  0  0  0  0  0  0  0  0
    5.6334   48.0591  129.3291 C   0  0  0  0  0  0  0  0  0  0  0  0
    6.5809   47.2380  129.8967 C   0  0  0  0  0  0  0  0  0  0  0  0
    4.8522   50.3085  128.7803 O   0  0  0  0  0  0  0  0  0  0  0  0
    3.6453   49.9742  128.1821 C   0  0  0  0  0  0  0  0  0  0  0  0
    2.8793   51.2878  127.9819 C   0  0  0  0  0  0  0  0  0  0  0  0
    2.1456   51.2279  126.6625 C   0  0  0  0  0  0  0  0  0  0  0  0
    1.1001   52.2140  126.6968 N   0  0  0  0  0  0  0  0  0  0  0  0
    1.4058   53.0102  126.0595 H   0  0  0  0  0  0  0  0  0  0  0  0
    0.2436   51.7748  126.2899 H   0  0  0  0  0  0  0  0  0  0  0  0
   10.2950   46.0409  132.7714 C   0  0  0  0  0  0  0  0  0  0  0  0
   10.1575   45.2509  133.8899 C   0  0  0  0  0  0  0  0  0  0  0  0
   11.1805   44.4359  134.3230 C   0  0  0  0  0  0  0  0  0  0  0  0
   12.3916   44.3714  133.6579 C   0  0  0  0  0  0  0  0  0  0  0  0
   12.5420   45.1584  132.5363 C   0  0  0  0  0  0  0  0  0  0  0  0
   11.5167   45.9708  132.1080 C   0  0  0  0  0  0  0  0  0  0  0  0
   10.0158   49.0971  133.2281 C   0  0  0  0  0  0  0  0  0  0  0  0
    8.9025   48.0925  133.1506 C   0  0  0  0  0  0  0  0  0  0  0  0
 30 31  1  0  0  0
 31  1  1  0  0  0
  1  2  2  0  0  0
  2  3  1  0  0  0
  3  4  2  0  0  0
  4  5  1  0  0  0
  5  6  2  0  0  0
  6  7  1  0  0  0
  6  8  1  0  0  0
  8  9  2  0  0  0
  2 11  1  0  0  0
 11 12  2  0  0  0
 12 13  1  0  0  0
 13 14  2  0  0  0
 14 17  1  0  0  0
 17 18  1  0  0  0
 18 19  1  0  0  0
 19 20  1  0  0  0
 20 21  1  0  0  0
 14 15  1  0  0  0
 15 16  2  0  0  0
  1 24  1  0  0  0
 24 25  2  0  0  0
 25 26  1  0  0  0
 26 27  2  0  0  0
 27 28  1  0  0  0
 28 29  2  0  0  0
  9  3  1  0  0  0
 16 11  1  0  0  0
 29 24  1  0  0  0
  7 10  1  0  0  0
 21 22  1  0  0  0
 21 23  1  0  0  0
M  END
> <minimizedAffinity>
-1.77465

> <CNNscore>
0.4084371626

> <CNNaffinity>
7.3102860451

> <CNN_VS>
2.9857923985

> <CNNaffinity_variance>
0.1791410893

$$$$
[H]Oc1c([H])c([H])c(/C(=C(\c2c([H])c([H])c([H])c([H])c2[H])C([H])([H])C([H])([H])[H])c2c([H])c([H])c(OC([H])([H])C([H])([H])C([H])([H])N([H])[H])c([H])c2[H])c([H])c1[H]


 31 33  0  0  0  0  0  0  0  0999 V2000
    8.5332   46.8846  130.7925 C   0  0  0  0  0  0  0  0  0  0  0  0
    9.0812   45.7739  131.1885 C   0  0  0  0  0  0  0  0  0  0  0  0
   10.4700   45.4596  130.9248 C   0  0  0  0  0  0  0  0  0  0  0  0
   10.8658   44.9282  129.7354 C   0  0  0  0  0  0  0  0  0  0  0  0
   12.2124   44.6324  129.4899 C   0  0  0  0  0  0  0  0  0  0  0  0
   13.1266   44.9016  130.5025 C   0  0  0  0  0  0  0  0  0  0  0  0
   14.4688   44.6277  130.3085 O   0  0  0  0  0  0  0  0  0  0  0  0
   12.7440   45.4424  131.7200 C   0  0  0  0  0  0  0  0  0  0  0  0
   11.4035   45.7071  131.8913 C   0  0  0  0  0  0  0  0  0  0  0  0
   15.0727   45.3583  129.9082 H   0  0  0  0  0  0  0  0  0  0  0  0
    8.3679   44.6810  131.8968 C   0  0  0  0  0  0  0  0  0  0  0  0
    7.8352   44.7797  133.1407 C   0  0  0  0  0  0  0  0  0  0  0  0
    7.2064   43.7075  133.7128 C   0  0  0  0  0  0  0  0  0  0  0  0
    7.0712   42.4693  133.0747 C   0  0  0  0  0  0  0  0  0  0  0  0
    7.6182   42.3865  131.8108 C   0  0  0  0  0  0  0  0  0  0  0  0
    8.2518   43.4622  131.2314 C   0  0  0  0  0  0  0  0  0  0  0  0
    6.4204   41.4195  133.7085 O   0  0  0  0  0  0  0  0  0  0  0  0
    5.4029   41.5199  134.6469 C   0  0  0  0  0  0  0  0  0  0  0  0
    5.8435   40.6888  135.8584 C   0  0  0  0  0  0  0  0  0  0  0  0
    6.6177   39.4870  135.3693 C   0  0  0  0  0  0  0  0  0  0  0  0
    6.2769   39.2778  133.9884 N   0  0  0  0  0  0  0  0  0  0  0  0
    7.1197   39.5814  133.4132 H   0  0  0  0  0  0  0  0  0  0  0  0
    6.1370   38.2511  133.8538 H   0  0  0  0  0  0  0  0  0  0  0  0
    9.2003   47.8874  129.9641 C   0  0  0  0  0  0  0  0  0  0  0  0
    9.2751   47.8227  128.5914 C   0  0  0  0  0  0  0  0  0  0  0  0
    9.9115   48.8020  127.8605 C   0  0  0  0  0  0  0  0  0  0  0  0
   10.5043   49.8945  128.4674 C   0  0  0  0  0  0  0  0  0  0  0  0
   10.4366   49.9706  129.8421 C   0  0  0  0  0  0  0  0  0  0  0  0
    9.7996   48.9895  130.5674 C   0  0  0  0  0  0  0  0  0  0  0  0
    6.1554   46.6841  130.0293 C   0  0  0  0  0  0  0  0  0  0  0  0
    7.0819   47.1762  131.1037 C   0  0  0  0  0  0  0  0  0  0  0  0
 30 31  1  0  0  0
 31  1  1  0  0  0
  1  2  2  0  0  0
  2  3  1  0  0  0
  3  4  2  0  0  0
  4  5  1  0  0  0
  5  6  2  0  0  0
  6  7  1  0  0  0
  6  8  1  0  0  0
  8  9  2  0  0  0
  2 11  1  0  0  0
 11 12  2  0  0  0
 12 13  1  0  0  0
 13 14  2  0  0  0
 14 17  1  0  0  0
 17 18  1  0  0  0
 18 19  1  0  0  0
 19 20  1  0  0  0
 20 21  1  0  0  0
 14 15  1  0  0  0
 15 16  2  0  0  0
  1 24  1  0  0  0
 24 25  2  0  0  0
 25 26  1  0  0  0
 26 27  2  0  0  0
 27 28  1  0  0  0
 28 29  2  0  0  0
  9  3  1  0  0  0
 16 11  1  0  0  0
 29 24  1  0  0  0
  7 10  1  0  0  0
 21 22  1  0  0  0
 21 23  1  0  0  0
M  END
> <minimizedAffinity>
31.57249

> <CNNscore>
0.3909806907

> <CNNaffinity>
7.1440429688

> <CNN_VS>
2.7931828499

> <CNNaffinity_variance>
2.8590939045

$$$$
[H]Oc1c([H])c([H])c(/C(=C(\c2c([H])c([H])c([H])c([H])c2[H])C([H])([H])C([H])([H])[H])c2c([H])c([H])c(OC([H])([H])C([H])([H])C([H])([H])N([H])[H])c([H])c2[H])c([H])c1[H]


 31 33  0  0  0  0  0  0  0  0999 V2000
   12.6336   44.8493  131.1519 C   0  0  0  0  0  0  0  0  0  0  0  0
   11.3399   44.9778  131.1757 C   0  0  0  0  0  0  0  0  0  0  0  0
   10.5027   44.5818  130.0623 C   0  0  0  0  0  0  0  0  0  0  0  0
   10.0474   43.3051  129.9333 C   0  0  0  0  0  0  0  0  0  0  0  0
    9.2346   42.9346  128.8548 C   0  0  0  0  0  0  0  0  0  0  0  0
    8.9107   43.9163  127.9246 C   0  0  0  0  0  0  0  0  0  0  0  0
    8.1100   43.6003  126.8415 O   0  0  0  0  0  0  0  0  0  0  0  0
    9.3639   45.2212  128.0380 C   0  0  0  0  0  0  0  0  0  0  0  0
   10.1592   45.5132  129.1236 C   0  0  0  0  0  0  0  0  0  0  0  0
    7.0897   43.6990  126.9317 H   0  0  0  0  0  0  0  0  0  0  0  0
   10.5672   45.5808  132.2912 C   0  0  0  0  0  0  0  0  0  0  0  0
   10.8663   46.7579  132.8958 C   0  0  0  0  0  0  0  0  0  0  0  0
   10.0964   47.2230  133.9271 C   0  0  0  0  0  0  0  0  0  0  0  0
    8.9785   46.5384  134.4171 C   0  0  0  0  0  0  0  0  0  0  0  0
    8.6888   45.3437  133.7909 C   0  0  0  0  0  0  0  0  0  0  0  0
    9.4602   44.8717  132.7535 C   0  0  0  0  0  0  0  0  0  0  0  0
    8.2368   47.0642  135.4662 O   0  0  0  0  0  0  0  0  0  0  0  0
    7.7572   48.3620  135.5743 C   0  0  0  0  0  0  0  0  0  0  0  0
    8.5371   49.2014  134.5546 C   0  0  0  0  0  0  0  0  0  0  0  0
    8.2834   48.6478  133.1718 C   0  0  0  0  0  0  0  0  0  0  0  0
    8.6890   49.6449  132.2189 N   0  0  0  0  0  0  0  0  0  0  0  0
    9.5953   49.3006  131.7790 H   0  0  0  0  0  0  0  0  0  0  0  0
    7.9548   49.6837  131.4763 H   0  0  0  0  0  0  0  0  0  0  0  0
   13.3994   44.3968  129.9919 C   0  0  0  0  0  0  0  0  0  0  0  0
   12.8819   44.3011  128.7202 C   0  0  0  0  0  0  0  0  0  0  0  0
   13.6537   43.8744  127.6616 C   0  0  0  0  0  0  0  0  0  0  0  0
   14.9815   43.5225  127.8236 C   0  0  0  0  0  0  0  0  0  0  0  0
   15.5115   43.6136  129.0928 C   0  0  0  0  0  0  0  0  0  0  0  0
   14.7360   44.0405  130.1468 C   0  0  0  0  0  0  0  0  0  0  0  0
   12.9702   44.6606  133.6273 C   0  0  0  0  0  0  0  0  0  0  0  0
   13.4665   45.2635  132.3448 C   0  0  0  0  0  0  0  0  0  0  0  0
 30 31  1  0  0  0
 31  1  1  0  0  0
  1  2  2  0  0  0
  2  3  1  0  0  0
  3  4  2  0  0  0
  4  5  1  0  0  0
  5  6  2  0  0  0
  6  7  1  0  0  0
  6  8  1  0  0  0
  8  9  2  0  0  0
  2 11  1  0  0  0
 11 12  2  0  0  0
 12 13  1  0  0  0
 13 14  2  0  0  0
 14 17  1  0  0  0
 17 18  1  0  0  0
 18 19  1  0  0  0
 19 20  1  0  0  0
 20 21  1  0  0  0
 14 15  1  0  0  0
 15 16  2  0  0  0
  1 24  1  0  0  0
 24 25  2  0  0  0
 25 26  1  0  0  0
 26 27  2  0  0  0
 27 28  1  0  0  0
 28 29  2  0  0  0
  9  3  1  0  0  0
 16 11  1  0  0  0
 29 24  1  0  0  0
  7 10  1  0  0  0
 21 22  1  0  0  0
 21 23  1  0  0  0
M  END
> <minimizedAffinity>
12.07832

> <CNNscore>
0.3560250700

> <CNNaffinity>
7.2841720581

> <CNN_VS>
2.5933477879

> <CNNaffinity_variance>
2.1351799965

$$$$
[H]Oc1c([H])c([H])c([C@@]2([H])Sc3c([H])c(O[H])c([H])c([H])c3S[C@@]2([H])c2c([H])c([H])c(OC([H])([H])C([H])([H])N3C([H])([H])C([H])([H])C([H])([H])C([H])([H])C3([H])[H])c(Br)c2[H])c([H])c1[H]


 36 40  0  0  0  0  0  0  0  0999 V2000
    9.2468   45.0892  130.9942 C   0  0  0  0  0  0  0  0  0  0  0  0
   10.2319   46.1249  132.0687 S   0  0  0  0  0  0  0  0  0  0  0  0
    9.5847   45.8979  133.7012 C   0  0  0  0  0  0  0  0  0  0  0  0
   10.3929   45.8806  134.7978 C   0  0  0  0  0  0  0  0  0  0  0  0
    9.8497   45.6904  136.0851 C   0  0  0  0  0  0  0  0  0  0  0  0
   10.6771   45.6740  137.1944 O   0  0  0  0  0  0  0  0  0  0  0  0
    8.4914   45.5234  136.2126 C   0  0  0  0  0  0  0  0  0  0  0  0
    7.6751   45.5412  135.1025 C   0  0  0  0  0  0  0  0  0  0  0  0
    8.2260   45.7312  133.8253 C   0  0  0  0  0  0  0  0  0  0  0  0
    7.1027   45.7455  132.4541 S   0  0  0  0  0  0  0  0  0  0  0  0
    7.8795   45.6648  130.8364 C   0  0  0  0  0  0  0  0  0  0  0  0
   10.2600   45.5369  138.0974 H   0  0  0  0  0  0  0  0  0  0  0  0
   11.7532   43.5372  126.1461 O   0  0  0  0  0  0  0  0  0  0  0  0
   11.1679   43.9518  127.3319 C   0  0  0  0  0  0  0  0  0  0  0  0
   10.0985   43.2512  127.8430 C   0  0  0  0  0  0  0  0  0  0  0  0
    9.4692   43.6240  129.0362 C   0  0  0  0  0  0  0  0  0  0  0  0
    9.9120   44.7206  129.7412 C   0  0  0  0  0  0  0  0  0  0  0  0
   10.9722   45.4221  129.2418 C   0  0  0  0  0  0  0  0  0  0  0  0
   11.5905   45.0465  128.0588 C   0  0  0  0  0  0  0  0  0  0  0  0
   11.4576   43.8621  125.2484 H   0  0  0  0  0  0  0  0  0  0  0  0
    7.8081   46.9944  130.1956 C   0  0  0  0  0  0  0  0  0  0  0  0
    7.2637   47.1472  128.9399 C   0  0  0  0  0  0  0  0  0  0  0  0
    7.1704   48.3848  128.3182 C   0  0  0  0  0  0  0  0  0  0  0  0
    7.6203   49.5289  128.9329 C   0  0  0  0  0  0  0  0  0  0  0  0
    8.1724   49.3837  130.2028 C   0  0  0  0  0  0  0  0  0  0  0  0
    8.8156   50.9515  131.1008 Br  0  0  0  0  0  0  0  0  0  0  0  0
    8.2480   48.1558  130.7811 C   0  0  0  0  0  0  0  0  0  0  0  0
    7.5624   50.7833  128.3770 O   0  0  0  0  0  0  0  0  0  0  0  0
    6.8134   51.8792  128.6926 C   0  0  0  0  0  0  0  0  0  0  0  0
    7.2955   53.1998  128.1562 C   0  0  0  0  0  0  0  0  0  0  0  0
    7.0067   53.3441  126.7465 N   0  0  0  0  0  0  0  0  0  0  0  0
    8.0119   52.7950  125.8993 C   0  0  0  0  0  0  0  0  0  0  0  0
    8.6843   53.8189  125.0170 C   0  0  0  0  0  0  0  0  0  0  0  0
    7.7318   54.6608  124.2234 C   0  0  0  0  0  0  0  0  0  0  0  0
    6.3817   54.6481  124.8607 C   0  0  0  0  0  0  0  0  0  0  0  0
    6.5460   54.6420  126.3676 C   0  0  0  0  0  0  0  0  0  0  0  0
 13 14  1  0  0  0
 14 15  2  0  0  0
 15 16  1  0  0  0
 16 17  2  0  0  0
 17 18  1  0  0  0
 18 19  2  0  0  0
 17  1  1  0  0  0
  1  2  1  0  0  0
  2  3  1  0  0  0
  3  4  2  0  0  0
  4  5  1  0  0  0
  5  6  1  0  0  0
  5  7  2  0  0  0
  7  8  1  0  0  0
  8  9  2  0  0  0
  9 10  1  0  0  0
 10 11  1  0  0  0
 11 21  1  0  0  0
 21 22  2  0  0  0
 22 23  1  0  0  0
 23 24  2  0  0  0
 24 28  1  0  0  0
 28 29  1  0  0  0
 29 30  1  0  0  0
 30 31  1  0  0  0
 31 32  1  0  0  0
 32 33  1  0  0  0
 33 34  1  0  0  0
 34 35  1  0  0  0
 35 36  1  0  0  0
 24 25  1  0  0  0
 25 26  1  0  0  0
 25 27  2  0  0  0
 19 14  1  0  0  0
 11  1  1  0  0  0
 27 21  1  0  0  0
  9  3  1  0  0  0
 36 31  1  0  0  0
 13 20  1  0  0  0
  6 12  1  0  0  0
M  END
> <minimizedAffinity>
12.59083

> <CNNscore>
0.3676395416

> <CNNaffinity>
7.3889799118

> <CNN_VS>
2.7164812088

> <CNNaffinity_variance>
1.5040476322

$$$$
[H]Oc1c([H])c([H])c([C@@]2([H])Sc3c([H])c(O[H])c([H])c([H])c3S[C@@]2([H])c2c([H])c([H])c(OC([H])([H])C([H])([H])N3C([H])([H])C([H])([H])C([H])([H])C([H])([H])C3([H])[H])c(Br)c2[H])c([H])c1[H]


 36 40  0  0  0  0  0  0  0  0999 V2000
   10.8259   43.6499  131.4022 C   0  0  0  0  0  0  0  0  0  0  0  0
   10.8889   43.8994  129.6326 S   0  0  0  0  0  0  0  0  0  0  0  0
   12.6054   44.0032  129.2102 C   0  0  0  0  0  0  0  0  0  0  0  0
   13.0915   43.4834  128.0485 C   0  0  0  0  0  0  0  0  0  0  0  0
   14.4649   43.5745  127.7424 C   0  0  0  0  0  0  0  0  0  0  0  0
   14.9514   43.0440  126.5602 O   0  0  0  0  0  0  0  0  0  0  0  0
   15.3028   44.1971  128.6366 C   0  0  0  0  0  0  0  0  0  0  0  0
   14.8097   44.7225  129.8111 C   0  0  0  0  0  0  0  0  0  0  0  0
   13.4406   44.6264  130.1064 C   0  0  0  0  0  0  0  0  0  0  0  0
   12.8918   45.3340  131.6363 S   0  0  0  0  0  0  0  0  0  0  0  0
   11.2144   44.9027  132.1128 C   0  0  0  0  0  0  0  0  0  0  0  0
   15.9340   43.1252  126.3708 H   0  0  0  0  0  0  0  0  0  0  0  0
    5.9763   41.2468  133.1054 O   0  0  0  0  0  0  0  0  0  0  0  0
    7.1731   41.8374  132.7321 C   0  0  0  0  0  0  0  0  0  0  0  0
    7.4803   41.9645  131.3960 C   0  0  0  0  0  0  0  0  0  0  0  0
    8.6736   42.5527  130.9616 C   0  0  0  0  0  0  0  0  0  0  0  0
    9.5865   43.0275  131.8765 C   0  0  0  0  0  0  0  0  0  0  0  0
    9.2905   42.9057  133.2043 C   0  0  0  0  0  0  0  0  0  0  0  0
    8.1060   42.3216  133.6268 C   0  0  0  0  0  0  0  0  0  0  0  0
    5.8786   40.2654  133.2668 H   0  0  0  0  0  0  0  0  0  0  0  0
   10.3323   46.0683  131.8964 C   0  0  0  0  0  0  0  0  0  0  0  0
   10.1664   47.0225  132.8755 C   0  0  0  0  0  0  0  0  0  0  0  0
    9.3556   48.1350  132.6964 C   0  0  0  0  0  0  0  0  0  0  0  0
    8.6737   48.3403  131.5208 C   0  0  0  0  0  0  0  0  0  0  0  0
    8.8355   47.3804  130.5253 C   0  0  0  0  0  0  0  0  0  0  0  0
    7.9030   47.6222  128.8670 Br  0  0  0  0  0  0  0  0  0  0  0  0
    9.6373   46.3031  130.7357 C   0  0  0  0  0  0  0  0  0  0  0  0
    7.8537   49.4144  131.2760 O   0  0  0  0  0  0  0  0  0  0  0  0
    6.4943   49.5249  131.2393 C   0  0  0  0  0  0  0  0  0  0  0  0
    5.9354   50.6873  130.4643 C   0  0  0  0  0  0  0  0  0  0  0  0
    6.8896   51.2029  129.5076 N   0  0  0  0  0  0  0  0  0  0  0  0
    7.1269   52.6018  129.6360 C   0  0  0  0  0  0  0  0  0  0  0  0
    6.7290   53.3969  128.4161 C   0  0  0  0  0  0  0  0  0  0  0  0
    7.3109   52.8816  127.1348 C   0  0  0  0  0  0  0  0  0  0  0  0
    7.7042   51.4496  127.2888 C   0  0  0  0  0  0  0  0  0  0  0  0
    6.6876   50.7491  128.1683 C   0  0  0  0  0  0  0  0  0  0  0  0
 13 14  1  0  0  0
 14 15  2  0  0  0
 15 16  1  0  0  0
 16 17  2  0  0  0
 17 18  1  0  0  0
 18 19  2  0  0  0
 17  1  1  0  0  0
  1  2  1  0  0  0
  2  3  1  0  0  0
  3  4  2  0  0  0
  4  5  1  0  0  0
  5  6  1  0  0  0
  5  7  2  0  0  0
  7  8  1  0  0  0
  8  9  2  0  0  0
  9 10  1  0  0  0
 10 11  1  0  0  0
 11 21  1  0  0  0
 21 22  2  0  0  0
 22 23  1  0  0  0
 23 24  2  0  0  0
 24 28  1  0  0  0
 28 29  1  0  0  0
 29 30  1  0  0  0
 30 31  1  0  0  0
 31 32  1  0  0  0
 32 33  1  0  0  0
 33 34  1  0  0  0
 34 35  1  0  0  0
 35 36  1  0  0  0
 24 25  1  0  0  0
 25 26  1  0  0  0
 25 27  2  0  0  0
 19 14  1  0  0  0
 11  1  1  0  0  0
 27 21  1  0  0  0
  9  3  1  0  0  0
 36 31  1  0  0  0
 13 20  1  0  0  0
  6 12  1  0  0  0
M  END
> <minimizedAffinity>
24.34466

> <CNNscore>
0.3596463799

> <CNNaffinity>
7.4409432411

> <CNN_VS>
2.6761083603

> <CNNaffinity_variance>
1.3143918514

$$$$
[H]Oc1c([H])c([H])c([C@@]2([H])Sc3c([H])c(O[H])c([H])c([H])c3S[C@@]2([H])c2c([H])c([H])c(OC([H])([H])C([H])([H])N3C([H])([H])C([H])([H])C([H])([H])C([H])([H])C3([H])[H])c(Br)c2[H])c([H])c1[H]


 36 40  0  0  0  0  0  0  0  0999 V2000
   11.0253   45.1185  131.1360 C   0  0  0  0  0  0  0  0  0  0  0  0
    9.5451   44.1156  131.1030 S   0  0  0  0  0  0  0  0  0  0  0  0
    9.7416   42.9910  129.7494 C   0  0  0  0  0  0  0  0  0  0  0  0
    9.2877   41.7080  129.8104 C   0  0  0  0  0  0  0  0  0  0  0  0
    9.4652   40.8327  128.7192 C   0  0  0  0  0  0  0  0  0  0  0  0
    9.0013   39.5306  128.7885 O   0  0  0  0  0  0  0  0  0  0  0  0
   10.1035   41.2978  127.5943 C   0  0  0  0  0  0  0  0  0  0  0  0
   10.5621   42.5958  127.5339 C   0  0  0  0  0  0  0  0  0  0  0  0
   10.3804   43.4592  128.6260 C   0  0  0  0  0  0  0  0  0  0  0  0
   10.9966   45.1130  128.4605 S   0  0  0  0  0  0  0  0  0  0  0  0
   11.0313   46.0654  129.9832 C   0  0  0  0  0  0  0  0  0  0  0  0
    9.1426   38.9320  127.9949 H   0  0  0  0  0  0  0  0  0  0  0  0
   12.2601   47.4834  136.1436 O   0  0  0  0  0  0  0  0  0  0  0  0
   11.9173   46.8974  134.9355 C   0  0  0  0  0  0  0  0  0  0  0  0
   12.8229   46.8991  133.8984 C   0  0  0  0  0  0  0  0  0  0  0  0
   12.5311   46.3218  132.6574 C   0  0  0  0  0  0  0  0  0  0  0  0
   11.3087   45.7270  132.4390 C   0  0  0  0  0  0  0  0  0  0  0  0
   10.4037   45.7206  133.4619 C   0  0  0  0  0  0  0  0  0  0  0  0
   10.7003   46.2948  134.6887 C   0  0  0  0  0  0  0  0  0  0  0  0
   12.0880   48.4456  136.3521 H   0  0  0  0  0  0  0  0  0  0  0  0
    9.9396   47.0610  129.9592 C   0  0  0  0  0  0  0  0  0  0  0  0
   10.1873   48.3901  130.2212 C   0  0  0  0  0  0  0  0  0  0  0  0
    9.1852   49.3504  130.1925 C   0  0  0  0  0  0  0  0  0  0  0  0
    7.8848   49.0174  129.8971 C   0  0  0  0  0  0  0  0  0  0  0  0
    7.6252   47.6756  129.6310 C   0  0  0  0  0  0  0  0  0  0  0  0
    5.8251   47.1614  129.2148 Br  0  0  0  0  0  0  0  0  0  0  0  0
    8.6313   46.7623  129.6685 C   0  0  0  0  0  0  0  0  0  0  0  0
    6.8445   49.9129  129.8538 O   0  0  0  0  0  0  0  0  0  0  0  0
    6.7966   51.2272  129.4906 C   0  0  0  0  0  0  0  0  0  0  0  0
    7.7631   51.6651  128.4237 C   0  0  0  0  0  0  0  0  0  0  0  0
    7.1254   52.5044  127.4336 N   0  0  0  0  0  0  0  0  0  0  0  0
    7.5247   52.2140  126.0972 C   0  0  0  0  0  0  0  0  0  0  0  0
    8.2236   53.3631  125.4118 C   0  0  0  0  0  0  0  0  0  0  0  0
    7.4679   54.6562  125.4642 C   0  0  0  0  0  0  0  0  0  0  0  0
    6.4885   54.6332  126.5910 C   0  0  0  0  0  0  0  0  0  0  0  0
    7.1011   53.8939  127.7639 C   0  0  0  0  0  0  0  0  0  0  0  0
 13 14  1  0  0  0
 14 15  2  0  0  0
 15 16  1  0  0  0
 16 17  2  0  0  0
 17 18  1  0  0  0
 18 19  2  0  0  0
 17  1  1  0  0  0
  1  2  1  0  0  0
  2  3  1  0  0  0
  3  4  2  0  0  0
  4  5  1  0  0  0
  5  6  1  0  0  0
  5  7  2  0  0  0
  7  8  1  0  0  0
  8  9  2  0  0  0
  9 10  1  0  0  0
 10 11  1  0  0  0
 11 21  1  0  0  0
 21 22  2  0  0  0
 22 23  1  0  0  0
 23 24  2  0  0  0
 24 28  1  0  0  0
 28 29  1  0  0  0
 29 30  1  0  0  0
 30 31  1  0  0  0
 31 32  1  0  0  0
 32 33  1  0  0  0
 33 34  1  0  0  0
 34 35  1  0  0  0
 35 36  1  0  0  0
 24 25  1  0  0  0
 25 26  1  0  0  0
 25 27  2  0  0  0
 19 14  1  0  0  0
 11  1  1  0  0  0
 27 21  1  0  0  0
  9  3  1  0  0  0
 36 31  1  0  0  0
 13 20  1  0  0  0
  6 12  1  0  0  0
M  END
> <minimizedAffinity>
22.18586

> <CNNscore>
0.3400531113

> <CNNaffinity>
7.4618668556

> <CNN_VS>
2.5374310017

> <CNNaffinity_variance>
1.3951870203

$$$$
[H]Oc1c([H])c([H])c([C@@]2([H])Sc3c([H])c(O[H])c([H])c([H])c3S[C@@]2([H])c2c([H])c([H])c(OC([H])([H])C([H])([H])N3C([H])([H])C([H])([H])C([H])([H])C([H])([H])C3([H])[H])c(Br)c2[H])c([H])c1[H]


 36 40  0  0  0  0  0  0  0  0999 V2000
   10.1452   44.0755  131.5491 C   0  0  0  0  0  0  0  0  0  0  0  0
   11.7451   44.7444  131.9858 S   0  0  0  0  0  0  0  0  0  0  0  0
   12.0711   44.2029  133.6398 C   0  0  0  0  0  0  0  0  0  0  0  0
   13.3248   43.8619  134.0496 C   0  0  0  0  0  0  0  0  0  0  0  0
   13.5528   43.4268  135.3714 C   0  0  0  0  0  0  0  0  0  0  0  0
   14.8293   43.0821  135.7804 O   0  0  0  0  0  0  0  0  0  0  0  0
   12.4881   43.3537  136.2375 C   0  0  0  0  0  0  0  0  0  0  0  0
   11.2205   43.6990  135.8217 C   0  0  0  0  0  0  0  0  0  0  0  0
   11.0042   44.1309  134.5034 C   0  0  0  0  0  0  0  0  0  0  0  0
    9.3437   44.5600  134.0554 S   0  0  0  0  0  0  0  0  0  0  0  0
    9.0681   44.7887  132.2951 C   0  0  0  0  0  0  0  0  0  0  0  0
   14.9593   42.7765  136.7278 H   0  0  0  0  0  0  0  0  0  0  0  0
    9.1790   43.4908  125.9886 O   0  0  0  0  0  0  0  0  0  0  0  0
    9.4498   43.6599  127.3371 C   0  0  0  0  0  0  0  0  0  0  0  0
    8.6071   43.1051  128.2740 C   0  0  0  0  0  0  0  0  0  0  0  0
    8.8317   43.2433  129.6485 C   0  0  0  0  0  0  0  0  0  0  0  0
    9.9209   43.9505  130.1060 C   0  0  0  0  0  0  0  0  0  0  0  0
   10.7624   44.5047  129.1840 C   0  0  0  0  0  0  0  0  0  0  0  0
   10.5331   44.3634  127.8238 C   0  0  0  0  0  0  0  0  0  0  0  0
    8.6146   44.1250  125.4612 H   0  0  0  0  0  0  0  0  0  0  0  0
    8.9296   46.2316  132.0079 C   0  0  0  0  0  0  0  0  0  0  0  0
    8.1670   46.6730  130.9495 C   0  0  0  0  0  0  0  0  0  0  0  0
    8.0070   48.0219  130.6631 C   0  0  0  0  0  0  0  0  0  0  0  0
    8.6071   48.9914  131.4308 C   0  0  0  0  0  0  0  0  0  0  0  0
    9.3802   48.5539  132.5030 C   0  0  0  0  0  0  0  0  0  0  0  0
   10.2391   49.8695  133.6029 Br  0  0  0  0  0  0  0  0  0  0  0  0
    9.5151   47.2247  132.7535 C   0  0  0  0  0  0  0  0  0  0  0  0
    8.4948   50.3412  131.2044 O   0  0  0  0  0  0  0  0  0  0  0  0
    7.8815   51.0436  130.2083 C   0  0  0  0  0  0  0  0  0  0  0  0
    6.3792   50.9727  130.1630 C   0  0  0  0  0  0  0  0  0  0  0  0
    5.9160   50.0348  129.1644 N   0  0  0  0  0  0  0  0  0  0  0  0
    4.7454   49.3210  129.5517 C   0  0  0  0  0  0  0  0  0  0  0  0
    4.9539   47.8296  129.6568 C   0  0  0  0  0  0  0  0  0  0  0  0
    5.5657   47.2111  128.4365 C   0  0  0  0  0  0  0  0  0  0  0  0
    6.2834   48.2496  127.6393 C   0  0  0  0  0  0  0  0  0  0  0  0
    6.9454   49.2305  128.5866 C   0  0  0  0  0  0  0  0  0  0  0  0
 13 14  1  0  0  0
 14 15  2  0  0  0
 15 16  1  0  0  0
 16 17  2  0  0  0
 17 18  1  0  0  0
 18 19  2  0  0  0
 17  1  1  0  0  0
  1  2  1  0  0  0
  2  3  1  0  0  0
  3  4  2  0  0  0
  4  5  1  0  0  0
  5  6  1  0  0  0
  5  7  2  0  0  0
  7  8  1  0  0  0
  8  9  2  0  0  0
  9 10  1  0  0  0
 10 11  1  0  0  0
 11 21  1  0  0  0
 21 22  2  0  0  0
 22 23  1  0  0  0
 23 24  2  0  0  0
 24 28  1  0  0  0
 28 29  1  0  0  0
 29 30  1  0  0  0
 30 31  1  0  0  0
 31 32  1  0  0  0
 32 33  1  0  0  0
 33 34  1  0  0  0
 34 35  1  0  0  0
 35 36  1  0  0  0
 24 25  1  0  0  0
 25 26  1  0  0  0
 25 27  2  0  0  0
 19 14  1  0  0  0
 11  1  1  0  0  0
 27 21  1  0  0  0
  9  3  1  0  0  0
 36 31  1  0  0  0
 13 20  1  0  0  0
  6 12  1  0  0  0
M  END
> <minimizedAffinity>
12.37670

> <CNNscore>
0.3262189925

> <CNNaffinity>
7.9819669724

> <CNN_VS>
2.6038691998

> <CNNaffinity_variance>
0.5879049301

$$$$
[H]Oc1c([H])c([H])c([C@@]2([H])Sc3c([H])c(O[H])c([H])c([H])c3S[C@@]2([H])c2c([H])c([H])c(OC([H])([H])C([H])([H])N3C([H])([H])C([H])([H])C([H])([H])C([H])([H])C3([H])[H])c(Br)c2[H])c([H])c1[H]


 36 40  0  0  0  0  0  0  0  0999 V2000
    8.3069   46.5508  131.9498 C   0  0  0  0  0  0  0  0  0  0  0  0
    9.1102   47.6409  130.7818 S   0  0  0  0  0  0  0  0  0  0  0  0
    7.8268   48.6292  130.0666 C   0  0  0  0  0  0  0  0  0  0  0  0
    8.0223   49.9394  129.7488 C   0  0  0  0  0  0  0  0  0  0  0  0
    6.9789   50.7037  129.1871 C   0  0  0  0  0  0  0  0  0  0  0  0
    7.1851   52.0343  128.8668 O   0  0  0  0  0  0  0  0  0  0  0  0
    5.7627   50.1027  128.9662 C   0  0  0  0  0  0  0  0  0  0  0  0
    5.5664   48.7773  129.2880 C   0  0  0  0  0  0  0  0  0  0  0  0
    6.6118   48.0252  129.8469 C   0  0  0  0  0  0  0  0  0  0  0  0
    6.2734   46.3268  130.2253 S   0  0  0  0  0  0  0  0  0  0  0  0
    7.5217   45.5094  131.2256 C   0  0  0  0  0  0  0  0  0  0  0  0
    6.4227   52.5516  128.4679 H   0  0  0  0  0  0  0  0  0  0  0  0
   11.6196   44.5518  136.0999 O   0  0  0  0  0  0  0  0  0  0  0  0
   10.8472   45.0526  135.0641 C   0  0  0  0  0  0  0  0  0  0  0  0
    9.4796   44.8970  135.0998 C   0  0  0  0  0  0  0  0  0  0  0  0
    8.6506   45.3827  134.0822 C   0  0  0  0  0  0  0  0  0  0  0  0
    9.1922   46.0401  133.0005 C   0  0  0  0  0  0  0  0  0  0  0  0
   10.5480   46.1990  132.9561 C   0  0  0  0  0  0  0  0  0  0  0  0
   11.3627   45.7149  133.9683 C   0  0  0  0  0  0  0  0  0  0  0  0
   11.9959   43.6259  136.1023 H   0  0  0  0  0  0  0  0  0  0  0  0
    8.3017   44.5883  130.3732 C   0  0  0  0  0  0  0  0  0  0  0  0
    9.0592   43.5805  130.9274 C   0  0  0  0  0  0  0  0  0  0  0  0
    9.7912   42.6917  130.1521 C   0  0  0  0  0  0  0  0  0  0  0  0
    9.7941   42.7749  128.7801 C   0  0  0  0  0  0  0  0  0  0  0  0
    9.0310   43.7911  128.2112 C   0  0  0  0  0  0  0  0  0  0  0  0
    9.0044   43.9487  126.3000 Br  0  0  0  0  0  0  0  0  0  0  0  0
    8.3269   44.6440  129.0014 C   0  0  0  0  0  0  0  0  0  0  0  0
   10.4958   41.9331  127.9525 O   0  0  0  0  0  0  0  0  0  0  0  0
   10.1325   40.7851  127.3108 C   0  0  0  0  0  0  0  0  0  0  0  0
   10.6191   40.6233  125.8962 C   0  0  0  0  0  0  0  0  0  0  0  0
   11.3204   39.3723  125.7097 N   0  0  0  0  0  0  0  0  0  0  0  0
   11.5448   38.6580  126.9218 C   0  0  0  0  0  0  0  0  0  0  0  0
   13.0060   38.4709  127.2515 C   0  0  0  0  0  0  0  0  0  0  0  0
   13.8125   37.8780  126.1362 C   0  0  0  0  0  0  0  0  0  0  0  0
   13.1194   38.0919  124.8313 C   0  0  0  0  0  0  0  0  0  0  0  0
   12.4526   39.4532  124.8426 C   0  0  0  0  0  0  0  0  0  0  0  0
 13 14  1  0  0  0
 14 15  2  0  0  0
 15 16  1  0  0  0
 16 17  2  0  0  0
 17 18  1  0  0  0
 18 19  2  0  0  0
 17  1  1  0  0  0
  1  2  1  0  0  0
  2  3  1  0  0  0
  3  4  2  0  0  0
  4  5  1  0  0  0
  5  6  1  0  0  0
  5  7  2  0  0  0
  7  8  1  0  0  0
  8  9  2  0  0  0
  9 10  1  0  0  0
 10 11  1  0  0  0
 11 21  1  0  0  0
 21 22  2  0  0  0
 22 23  1  0  0  0
 23 24  2  0  0  0
 24 28  1  0  0  0
 28 29  1  0  0  0
 29 30  1  0  0  0
 30 31  1  0  0  0
 31 32  1  0  0  0
 32 33  1  0  0  0
 33 34  1  0  0  0
 34 35  1  0  0  0
 35 36  1  0  0  0
 24 25  1  0  0  0
 25 26  1  0  0  0
 25 27  2  0  0  0
 19 14  1  0  0  0
 11  1  1  0  0  0
 27 21  1  0  0  0
  9  3  1  0  0  0
 36 31  1  0  0  0
 13 20  1  0  0  0
  6 12  1  0  0  0
M  END
> <minimizedAffinity>
20.59879

> <CNNscore>
0.3211120963

> <CNNaffinity>
7.6914429665

> <CNN_VS>
2.4698154926

> <CNNaffinity_variance>
1.4142150879

$$$$
[H]Oc1c([H])c([H])c([C@@]2([H])Sc3c([H])c(O[H])c([H])c([H])c3S[C@@]2([H])c2c([H])c([H])c(OC([H])([H])C([H])([H])N3C([H])([H])C([H])([H])C([H])([H])C([H])([H])C3([H])[H])c(Br)c2[H])c([H])c1[H]


 36 40  0  0  0  0  0  0  0  0999 V2000
    8.2312   46.6344  129.6923 C   0  0  0  0  0  0  0  0  0  0  0  0
    9.9904   46.4515  129.4288 S   0  0  0  0  0  0  0  0  0  0  0  0
   10.2204   44.8366  128.7399 C   0  0  0  0  0  0  0  0  0  0  0  0
   11.1645   44.5894  127.7894 C   0  0  0  0  0  0  0  0  0  0  0  0
   11.3196   43.2943  127.2537 C   0  0  0  0  0  0  0  0  0  0  0  0
   12.2810   43.0509  126.2882 O   0  0  0  0  0  0  0  0  0  0  0  0
   10.5019   42.2874  127.7081 C   0  0  0  0  0  0  0  0  0  0  0  0
    9.5475   42.5388  128.6697 C   0  0  0  0  0  0  0  0  0  0  0  0
    9.4011   43.8318  129.1965 C   0  0  0  0  0  0  0  0  0  0  0  0
    8.1524   44.0646  130.4329 S   0  0  0  0  0  0  0  0  0  0  0  0
    7.7896   45.7782  130.8313 C   0  0  0  0  0  0  0  0  0  0  0  0
   12.3671   42.1182  125.9267 H   0  0  0  0  0  0  0  0  0  0  0  0
    6.5843   52.0563  129.9857 O   0  0  0  0  0  0  0  0  0  0  0  0
    6.9460   50.7213  129.8986 C   0  0  0  0  0  0  0  0  0  0  0  0
    8.2379   50.3470  130.1928 C   0  0  0  0  0  0  0  0  0  0  0  0
    8.6586   49.0141  130.1224 C   0  0  0  0  0  0  0  0  0  0  0  0
    7.7748   48.0261  129.7503 C   0  0  0  0  0  0  0  0  0  0  0  0
    6.4910   48.3879  129.4562 C   0  0  0  0  0  0  0  0  0  0  0  0
    6.0817   49.7108  129.5283 C   0  0  0  0  0  0  0  0  0  0  0  0
    6.6568   52.6928  129.2186 H   0  0  0  0  0  0  0  0  0  0  0  0
    8.3724   46.1051  132.1493 C   0  0  0  0  0  0  0  0  0  0  0  0
    8.1029   47.3073  132.7645 C   0  0  0  0  0  0  0  0  0  0  0  0
    8.6244   47.6369  134.0080 C   0  0  0  0  0  0  0  0  0  0  0  0
    9.4421   46.7696  134.6925 C   0  0  0  0  0  0  0  0  0  0  0  0
    9.7201   45.5516  134.0778 C   0  0  0  0  0  0  0  0  0  0  0  0
   10.8577   44.3083  134.9933 Br  0  0  0  0  0  0  0  0  0  0  0  0
    9.1922   45.2627  132.8590 C   0  0  0  0  0  0  0  0  0  0  0  0
    9.9946   47.0304  135.9224 O   0  0  0  0  0  0  0  0  0  0  0  0
   10.9977   47.8731  136.3034 C   0  0  0  0  0  0  0  0  0  0  0  0
   11.9570   48.3052  135.2276 C   0  0  0  0  0  0  0  0  0  0  0  0
   13.2283   48.7211  135.7777 N   0  0  0  0  0  0  0  0  0  0  0  0
   14.3248   47.9184  135.3499 C   0  0  0  0  0  0  0  0  0  0  0  0
   15.0172   47.1907  136.4767 C   0  0  0  0  0  0  0  0  0  0  0  0
   15.4275   48.0759  137.6143 C   0  0  0  0  0  0  0  0  0  0  0  0
   14.6192   49.3311  137.6054 C   0  0  0  0  0  0  0  0  0  0  0  0
   13.2022   49.0042  137.1775 C   0  0  0  0  0  0  0  0  0  0  0  0
 13 14  1  0  0  0
 14 15  2  0  0  0
 15 16  1  0  0  0
 16 17  2  0  0  0
 17 18  1  0  0  0
 18 19  2  0  0  0
 17  1  1  0  0  0
  1  2  1  0  0  0
  2  3  1  0  0  0
  3  4  2  0  0  0
  4  5  1  0  0  0
  5  6  1  0  0  0
  5  7  2  0  0  0
  7  8  1  0  0  0
  8  9  2  0  0  0
  9 10  1  0  0  0
 10 11  1  0  0  0
 11 21  1  0  0  0
 21 22  2  0  0  0
 22 23  1  0  0  0
 23 24  2  0  0  0
 24 28  1  0  0  0
 28 29  1  0  0  0
 29 30  1  0  0  0
 30 31  1  0  0  0
 31 32  1  0  0  0
 32 33  1  0  0  0
 33 34  1  0  0  0
 34 35  1  0  0  0
 35 36  1  0  0  0
 24 25  1  0  0  0
 25 26  1  0  0  0
 25 27  2  0  0  0
 19 14  1  0  0  0
 11  1  1  0  0  0
 27 21  1  0  0  0
  9  3  1  0  0  0
 36 31  1  0  0  0
 13 20  1  0  0  0
  6 12  1  0  0  0
M  END
> <minimizedAffinity>
19.12332

> <CNNscore>
0.3168067932

> <CNNaffinity>
7.5262641907

> <CNN_VS>
2.3843715191

> <CNNaffinity_variance>
0.6952406764

$$$$
[H]Oc1c([H])c([H])c([C@@]2([H])Sc3c([H])c(O[H])c([H])c([H])c3S[C@@]2([H])c2c([H])c([H])c(OC([H])([H])C([H])([H])N3C([H])([H])C([H])([H])C([H])([H])C([H])([H])C3([H])[H])c(Br)c2[H])c([H])c1[H]


 36 40  0  0  0  0  0  0  0  0999 V2000
   10.4529   44.2134  133.1070 C   0  0  0  0  0  0  0  0  0  0  0  0
   11.7481   45.3539  132.6385 S   0  0  0  0  0  0  0  0  0  0  0  0
   11.8932   46.5098  133.9720 C   0  0  0  0  0  0  0  0  0  0  0  0
   13.0988   47.0143  134.3567 C   0  0  0  0  0  0  0  0  0  0  0  0
   13.1843   47.9279  135.4275 C   0  0  0  0  0  0  0  0  0  0  0  0
   14.4127   48.4361  135.8126 O   0  0  0  0  0  0  0  0  0  0  0  0
   12.0300   48.2996  136.0745 C   0  0  0  0  0  0  0  0  0  0  0  0
   10.8113   47.7887  135.6842 C   0  0  0  0  0  0  0  0  0  0  0  0
   10.7371   46.8796  134.6170 C   0  0  0  0  0  0  0  0  0  0  0  0
    9.1288   46.2767  134.1786 S   0  0  0  0  0  0  0  0  0  0  0  0
    9.1239   44.8878  133.0395 C   0  0  0  0  0  0  0  0  0  0  0  0
   14.4405   49.0849  136.5782 H   0  0  0  0  0  0  0  0  0  0  0  0
   10.8512   39.1615  130.5548 O   0  0  0  0  0  0  0  0  0  0  0  0
   10.7187   40.4048  131.1524 C   0  0  0  0  0  0  0  0  0  0  0  0
   11.5460   40.7475  132.1982 C   0  0  0  0  0  0  0  0  0  0  0  0
   11.4574   41.9888  132.8386 C   0  0  0  0  0  0  0  0  0  0  0  0
   10.5236   42.9148  132.4310 C   0  0  0  0  0  0  0  0  0  0  0  0
    9.6982   42.5837  131.3944 C   0  0  0  0  0  0  0  0  0  0  0  0
    9.7921   41.3517  130.7650 C   0  0  0  0  0  0  0  0  0  0  0  0
   10.3513   38.3522  130.8614 H   0  0  0  0  0  0  0  0  0  0  0  0
    8.7046   45.3568  131.7024 C   0  0  0  0  0  0  0  0  0  0  0  0
    7.3964   45.7073  131.4528 C   0  0  0  0  0  0  0  0  0  0  0  0
    6.9755   46.1642  130.2114 C   0  0  0  0  0  0  0  0  0  0  0  0
    7.8535   46.2913  129.1615 C   0  0  0  0  0  0  0  0  0  0  0  0
    9.1783   45.9389  129.4049 C   0  0  0  0  0  0  0  0  0  0  0  0
   10.4411   46.0977  127.9702 Br  0  0  0  0  0  0  0  0  0  0  0  0
    9.5549   45.4948  130.6332 C   0  0  0  0  0  0  0  0  0  0  0  0
    7.5067   46.7329  127.9082 O   0  0  0  0  0  0  0  0  0  0  0  0
    6.9979   47.9232  127.4771 C   0  0  0  0  0  0  0  0  0  0  0  0
    7.6863   49.1666  127.9713 C   0  0  0  0  0  0  0  0  0  0  0  0
    7.1682   49.5939  129.2521 N   0  0  0  0  0  0  0  0  0  0  0  0
    5.9794   48.9126  129.6425 C   0  0  0  0  0  0  0  0  0  0  0  0
    4.7828   49.8209  129.7903 C   0  0  0  0  0  0  0  0  0  0  0  0
    5.0221   51.0070  130.6745 C   0  0  0  0  0  0  0  0  0  0  0  0
    6.4854   51.2857  130.7750 C   0  0  0  0  0  0  0  0  0  0  0  0
    7.1348   51.0104  129.4333 C   0  0  0  0  0  0  0  0  0  0  0  0
 13 14  1  0  0  0
 14 15  2  0  0  0
 15 16  1  0  0  0
 16 17  2  0  0  0
 17 18  1  0  0  0
 18 19  2  0  0  0
 17  1  1  0  0  0
  1  2  1  0  0  0
  2  3  1  0  0  0
  3  4  2  0  0  0
  4  5  1  0  0  0
  5  6  1  0  0  0
  5  7  2  0  0  0
  7  8  1  0  0  0
  8  9  2  0  0  0
  9 10  1  0  0  0
 10 11  1  0  0  0
 11 21  1  0  0  0
 21 22  2  0  0  0
 22 23  1  0  0  0
 23 24  2  0  0  0
 24 28  1  0  0  0
 28 29  1  0  0  0
 29 30  1  0  0  0
 30 31  1  0  0  0
 31 32  1  0  0  0
 32 33  1  0  0  0
 33 34  1  0  0  0
 34 35  1  0  0  0
 35 36  1  0  0  0
 24 25  1  0  0  0
 25 26  1  0  0  0
 25 27  2  0  0  0
 19 14  1  0  0  0
 11  1  1  0  0  0
 27 21  1  0  0  0
  9  3  1  0  0  0
 36 31  1  0  0  0
 13 20  1  0  0  0
  6 12  1  0  0  0
M  END
> <minimizedAffinity>
21.43365

> <CNNscore>
0.3150880635

> <CNNaffinity>
7.5751371384

> <CNN_VS>
2.3868353367

> <CNNaffinity_variance>
1.0018497705

$$$$
[H]Oc1c([H])c([H])c([C@@]2([H])Sc3c([H])c(O[H])c([H])c([H])c3S[C@@]2([H])c2c([H])c([H])c(OC([H])([H])C([H])([H])N3C([H])([H])C([H])([H])C([H])([H])C([H])([H])C3([H])[H])c(Br)c2[H])c([H])c1[H]


 36 40  0  0  0  0  0  0  0  0999 V2000
    7.8066   46.4411  129.9000 C   0  0  0  0  0  0  0  0  0  0  0  0
    9.3997   45.9370  129.2631 S   0  0  0  0  0  0  0  0  0  0  0  0
    9.3345   44.1740  129.1113 C   0  0  0  0  0  0  0  0  0  0  0  0
    9.9449   43.5189  128.0845 C   0  0  0  0  0  0  0  0  0  0  0  0
    9.8695   42.1142  127.9855 C   0  0  0  0  0  0  0  0  0  0  0  0
   10.4922   41.4557  126.9395 O   0  0  0  0  0  0  0  0  0  0  0  0
    9.1700   41.4195  128.9431 C   0  0  0  0  0  0  0  0  0  0  0  0
    8.5531   42.0834  129.9812 C   0  0  0  0  0  0  0  0  0  0  0  0
    8.6342   43.4822  130.0706 C   0  0  0  0  0  0  0  0  0  0  0  0
    7.8159   44.2536  131.4407 S   0  0  0  0  0  0  0  0  0  0  0  0
    7.6744   46.0410  131.3311 C   0  0  0  0  0  0  0  0  0  0  0  0
   10.4206   40.4551  126.8970 H   0  0  0  0  0  0  0  0  0  0  0  0
    6.5978   51.8769  128.8114 O   0  0  0  0  0  0  0  0  0  0  0  0
    6.8494   50.5399  129.0755 C   0  0  0  0  0  0  0  0  0  0  0  0
    8.1503   50.1010  129.1788 C   0  0  0  0  0  0  0  0  0  0  0  0
    8.4632   48.7630  129.4444 C   0  0  0  0  0  0  0  0  0  0  0  0
    7.4594   47.8357  129.6121 C   0  0  0  0  0  0  0  0  0  0  0  0
    6.1656   48.2617  129.5111 C   0  0  0  0  0  0  0  0  0  0  0  0
    5.8637   49.5892  129.2477 C   0  0  0  0  0  0  0  0  0  0  0  0
    6.5104   52.2437  127.8859 H   0  0  0  0  0  0  0  0  0  0  0  0
    8.6335   46.6632  132.2672 C   0  0  0  0  0  0  0  0  0  0  0  0
    9.5136   47.6323  131.8394 C   0  0  0  0  0  0  0  0  0  0  0  0
   10.4164   48.2445  132.6980 C   0  0  0  0  0  0  0  0  0  0  0  0
   10.4749   47.9105  134.0300 C   0  0  0  0  0  0  0  0  0  0  0  0
    9.5886   46.9315  134.4712 C   0  0  0  0  0  0  0  0  0  0  0  0
    9.6331   46.4302  136.3218 Br  0  0  0  0  0  0  0  0  0  0  0  0
    8.7183   46.3528  133.6020 C   0  0  0  0  0  0  0  0  0  0  0  0
   11.3429   48.4720  134.9341 O   0  0  0  0  0  0  0  0  0  0  0  0
   12.5109   48.0148  135.4708 C   0  0  0  0  0  0  0  0  0  0  0  0
   13.2785   47.0112  134.6536 C   0  0  0  0  0  0  0  0  0  0  0  0
   12.3972   46.1227  133.9289 N   0  0  0  0  0  0  0  0  0  0  0  0
   12.0699   44.9351  134.6446 C   0  0  0  0  0  0  0  0  0  0  0  0
   12.5424   43.6714  133.9672 C   0  0  0  0  0  0  0  0  0  0  0  0
   12.1213   43.5529  132.5339 C   0  0  0  0  0  0  0  0  0  0  0  0
   11.7956   44.9011  131.9812 C   0  0  0  0  0  0  0  0  0  0  0  0
   12.7571   45.9191  132.5616 C   0  0  0  0  0  0  0  0  0  0  0  0
 13 14  1  0  0  0
 14 15  2  0  0  0
 15 16  1  0  0  0
 16 17  2  0  0  0
 17 18  1  0  0  0
 18 19  2  0  0  0
 17  1  1  0  0  0
  1  2  1  0  0  0
  2  3  1  0  0  0
  3  4  2  0  0  0
  4  5  1  0  0  0
  5  6  1  0  0  0
  5  7  2  0  0  0
  7  8  1  0  0  0
  8  9  2  0  0  0
  9 10  1  0  0  0
 10 11  1  0  0  0
 11 21  1  0  0  0
 21 22  2  0  0  0
 22 23  1  0  0  0
 23 24  2  0  0  0
 24 28  1  0  0  0
 28 29  1  0  0  0
 29 30  1  0  0  0
 30 31  1  0  0  0
 31 32  1  0  0  0
 32 33  1  0  0  0
 33 34  1  0  0  0
 34 35  1  0  0  0
 35 36  1  0  0  0
 24 25  1  0  0  0
 25 26  1  0  0  0
 25 27  2  0  0  0
 19 14  1  0  0  0
 11  1  1  0  0  0
 27 21  1  0  0  0
  9  3  1  0  0  0
 36 31  1  0  0  0
 13 20  1  0  0  0
  6 12  1  0  0  0
M  END
> <minimizedAffinity>
7.60157

> <CNNscore>
0.3091200888

> <CNNaffinity>
7.8649263382

> <CNN_VS>
2.4312067032

> <CNNaffinity_variance>
0.4760586321

$$$$
[H]Oc1c([H])c([H])c([C@@]2([H])Sc3c([H])c(O[H])c([H])c([H])c3S[C@@]2([H])c2c([H])c([H])c(OC([H])([H])C([H])([H])N3C([H])([H])C([H])([H])C([H])([H])C([H])([H])C3([H])[H])c(Br)c2[H])c([H])c1[H]


 36 40  0  0  0  0  0  0  0  0999 V2000
   10.0684   44.2214  132.6294 C   0  0  0  0  0  0  0  0  0  0  0  0
   11.4519   45.2713  132.2033 S   0  0  0  0  0  0  0  0  0  0  0  0
   11.7821   46.2574  133.6364 C   0  0  0  0  0  0  0  0  0  0  0  0
   13.0512   46.5955  133.9983 C   0  0  0  0  0  0  0  0  0  0  0  0
   13.2839   47.3760  135.1494 C   0  0  0  0  0  0  0  0  0  0  0  0
   14.5762   47.7156  135.5107 O   0  0  0  0  0  0  0  0  0  0  0  0
   12.2079   47.7890  135.8982 C   0  0  0  0  0  0  0  0  0  0  0  0
   10.9247   47.4464  135.5309 C   0  0  0  0  0  0  0  0  0  0  0  0
   10.7038   46.6688  134.3830 C   0  0  0  0  0  0  0  0  0  0  0  0
    9.0218   46.2791  133.9818 S   0  0  0  0  0  0  0  0  0  0  0  0
    8.8159   45.0277  132.7096 C   0  0  0  0  0  0  0  0  0  0  0  0
   14.7090   48.2726  136.3354 H   0  0  0  0  0  0  0  0  0  0  0  0
    9.5533   39.5394  129.4659 O   0  0  0  0  0  0  0  0  0  0  0  0
    9.7175   40.6669  130.2547 C   0  0  0  0  0  0  0  0  0  0  0  0
    8.8124   41.7001  130.1598 C   0  0  0  0  0  0  0  0  0  0  0  0
    8.9283   42.8615  130.9320 C   0  0  0  0  0  0  0  0  0  0  0  0
    9.9696   43.0021  131.8218 C   0  0  0  0  0  0  0  0  0  0  0  0
   10.8727   41.9825  131.9227 C   0  0  0  0  0  0  0  0  0  0  0  0
   10.7510   40.8348  131.1541 C   0  0  0  0  0  0  0  0  0  0  0  0
    9.9531   39.4475  128.5545 H   0  0  0  0  0  0  0  0  0  0  0  0
    8.3837   45.6767  131.4543 C   0  0  0  0  0  0  0  0  0  0  0  0
    9.2805   45.9217  130.4384 C   0  0  0  0  0  0  0  0  0  0  0  0
    8.9016   46.5170  129.2429 C   0  0  0  0  0  0  0  0  0  0  0  0
    7.5997   46.8928  129.0131 C   0  0  0  0  0  0  0  0  0  0  0  0
    6.6860   46.6489  130.0350 C   0  0  0  0  0  0  0  0  0  0  0  0
    4.8571   47.1571  129.7619 Br  0  0  0  0  0  0  0  0  0  0  0  0
    7.0927   46.0644  131.1929 C   0  0  0  0  0  0  0  0  0  0  0  0
    7.1555   47.4879  127.8578 O   0  0  0  0  0  0  0  0  0  0  0  0
    6.6932   48.7472  127.6087 C   0  0  0  0  0  0  0  0  0  0  0  0
    7.4173   49.8760  128.2911 C   0  0  0  0  0  0  0  0  0  0  0  0
    7.9752   49.4660  129.5608 N   0  0  0  0  0  0  0  0  0  0  0  0
    7.3002   50.0208  130.6861 C   0  0  0  0  0  0  0  0  0  0  0  0
    8.1728   50.9142  131.5343 C   0  0  0  0  0  0  0  0  0  0  0  0
    9.4650   50.2833  131.9562 C   0  0  0  0  0  0  0  0  0  0  0  0
    9.8101   49.1570  131.0389 C   0  0  0  0  0  0  0  0  0  0  0  0
    9.4008   49.5258  129.6268 C   0  0  0  0  0  0  0  0  0  0  0  0
 13 14  1  0  0  0
 14 15  2  0  0  0
 15 16  1  0  0  0
 16 17  2  0  0  0
 17 18  1  0  0  0
 18 19  2  0  0  0
 17  1  1  0  0  0
  1  2  1  0  0  0
  2  3  1  0  0  0
  3  4  2  0  0  0
  4  5  1  0  0  0
  5  6  1  0  0  0
  5  7  2  0  0  0
  7  8  1  0  0  0
  8  9  2  0  0  0
  9 10  1  0  0  0
 10 11  1  0  0  0
 11 21  1  0  0  0
 21 22  2  0  0  0
 22 23  1  0  0  0
 23 24  2  0  0  0
 24 28  1  0  0  0
 28 29  1  0  0  0
 29 30  1  0  0  0
 30 31  1  0  0  0
 31 32  1  0  0  0
 32 33  1  0  0  0
 33 34  1  0  0  0
 34 35  1  0  0  0
 35 36  1  0  0  0
 24 25  1  0  0  0
 25 26  1  0  0  0
 25 27  2  0  0  0
 19 14  1  0  0  0
 11  1  1  0  0  0
 27 21  1  0  0  0
  9  3  1  0  0  0
 36 31  1  0  0  0
 13 20  1  0  0  0
  6 12  1  0  0  0
M  END
> <minimizedAffinity>
15.02203

> <CNNscore>
0.3073447347

> <CNNaffinity>
7.6431021690

> <CNN_VS>
2.3490672112

> <CNNaffinity_variance>
0.5585072637

$$$$
[H]OC(=O)/C([H])=C(\[H])c1c([H])c([H])c(Oc2c(-c3c([H])c([H])c([H])c([H])c3C([H])([H])OC([H])([H])[H])sc3c([H])c(O[H])c([H])c([H])c23)c([H])c1[H]


 33 36  0  0  0  0  0  0  0  0999 V2000
    9.7292   46.7168  132.2502 C   0  0  0  0  0  0  0  0  0  0  0  0
   10.0298   48.4177  132.0910 S   0  0  0  0  0  0  0  0  0  0  0  0
    8.8161   48.8288  130.9948 C   0  0  0  0  0  0  0  0  0  0  0  0
    8.4406   50.0351  130.3961 C   0  0  0  0  0  0  0  0  0  0  0  0
    7.3850   50.0851  129.5162 C   0  0  0  0  0  0  0  0  0  0  0  0
    6.9714   51.2472  128.8970 O   0  0  0  0  0  0  0  0  0  0  0  0
    6.7492   48.8784  129.2835 C   0  0  0  0  0  0  0  0  0  0  0  0
    7.1034   47.6860  129.8611 C   0  0  0  0  0  0  0  0  0  0  0  0
    8.1869   47.6439  130.7620 C   0  0  0  0  0  0  0  0  0  0  0  0
    8.6614   46.5490  131.4157 C   0  0  0  0  0  0  0  0  0  0  0  0
    6.2062   51.3047  128.2540 H   0  0  0  0  0  0  0  0  0  0  0  0
   11.6053   45.1869  132.6186 C   0  0  0  0  0  0  0  0  0  0  0  0
   12.2851   44.2663  133.4284 C   0  0  0  0  0  0  0  0  0  0  0  0
   11.8544   43.9372  134.6686 C   0  0  0  0  0  0  0  0  0  0  0  0
   10.7298   44.5069  135.1598 C   0  0  0  0  0  0  0  0  0  0  0  0
   10.0459   45.4272  134.3555 C   0  0  0  0  0  0  0  0  0  0  0  0
   10.4609   45.7757  133.1042 C   0  0  0  0  0  0  0  0  0  0  0  0
   12.1967   45.4141  131.2936 C   0  0  0  0  0  0  0  0  0  0  0  0
   12.6213   44.4758  129.2453 C   0  0  0  0  0  0  0  0  0  0  0  0
   12.3209   44.1875  130.5827 O   0  0  0  0  0  0  0  0  0  0  0  0
    8.0771   45.2449  131.2637 O   0  0  0  0  0  0  0  0  0  0  0  0
    8.5965   44.3721  130.3426 C   0  0  0  0  0  0  0  0  0  0  0  0
    8.7843   44.7811  129.0489 C   0  0  0  0  0  0  0  0  0  0  0  0
    9.3031   43.9515  128.0729 C   0  0  0  0  0  0  0  0  0  0  0  0
    9.6469   42.6594  128.4097 C   0  0  0  0  0  0  0  0  0  0  0  0
    9.4702   42.2289  129.6881 C   0  0  0  0  0  0  0  0  0  0  0  0
    8.9434   43.0858  130.6593 C   0  0  0  0  0  0  0  0  0  0  0  0
   10.1978   41.7830  127.3640 C   0  0  0  0  0  0  0  0  0  0  0  0
   10.0057   40.4867  127.3164 C   0  0  0  0  0  0  0  0  0  0  0  0
   10.6000   39.6871  126.2255 C   0  0  0  0  0  0  0  0  0  0  0  0
   11.9838   39.6055  126.1204 O   0  0  0  0  0  0  0  0  0  0  0  0
    9.8461   39.0978  125.4162 O   0  0  0  0  0  0  0  0  0  0  0  0
   12.5474   38.8865  126.5089 H   0  0  0  0  0  0  0  0  0  0  0  0
 19 20  1  0  0  0
 20 18  1  0  0  0
 18 12  1  0  0  0
 12 13  2  0  0  0
 13 14  1  0  0  0
 14 15  2  0  0  0
 15 16  1  0  0  0
 16 17  2  0  0  0
 17  1  1  0  0  0
  1  2  1  0  0  0
  2  3  1  0  0  0
  3  4  2  0  0  0
  4  5  1  0  0  0
  5  6  1  0  0  0
  5  7  2  0  0  0
  7  8  1  0  0  0
  8  9  2  0  0  0
  9 10  1  0  0  0
 10 21  1  0  0  0
 21 22  1  0  0  0
 22 23  2  0  0  0
 23 24  1  0  0  0
 24 25  2  0  0  0
 25 28  1  0  0  0
 28 29  2  0  0  0
 29 30  1  0  0  0
 30 31  1  0  0  0
 30 32  2  0  0  0
 25 26  1  0  0  0
 26 27  2  0  0  0
 17 12  1  0  0  0
 10  1  2  0  0  0
 27 22  1  0  0  0
  9  3  1  0  0  0
  6 11  1  0  0  0
 31 33  1  0  0  0
M  END
> <minimizedAffinity>
2.36319

> <CNNscore>
0.5766821504

> <CNNaffinity>
8.1576290131

> <CNN_VS>
4.7043590546

> <CNNaffinity_variance>
1.0556876659

$$$$
[H]OC(=O)/C([H])=C(\[H])c1c([H])c([H])c(Oc2c(-c3c([H])c([H])c([H])c([H])c3C([H])([H])OC([H])([H])[H])sc3c([H])c(O[H])c([H])c([H])c23)c([H])c1[H]


 33 36  0  0  0  0  0  0  0  0999 V2000
    9.5945   46.8848  132.2717 C   0  0  0  0  0  0  0  0  0  0  0  0
    9.7078   48.6146  132.3336 S   0  0  0  0  0  0  0  0  0  0  0  0
    8.6761   49.0218  131.0634 C   0  0  0  0  0  0  0  0  0  0  0  0
    8.2720   50.2439  130.5176 C   0  0  0  0  0  0  0  0  0  0  0  0
    7.3988   50.2859  129.4561 C   0  0  0  0  0  0  0  0  0  0  0  0
    6.9669   51.4626  128.8786 O   0  0  0  0  0  0  0  0  0  0  0  0
    6.9701   49.0550  128.9918 C   0  0  0  0  0  0  0  0  0  0  0  0
    7.3554   47.8469  129.5142 C   0  0  0  0  0  0  0  0  0  0  0  0
    8.2510   47.8131  130.6025 C   0  0  0  0  0  0  0  0  0  0  0  0
    8.7277   46.7051  131.2319 C   0  0  0  0  0  0  0  0  0  0  0  0
    6.3322   51.5146  128.1060 H   0  0  0  0  0  0  0  0  0  0  0  0
   11.4042   45.2976  132.7207 C   0  0  0  0  0  0  0  0  0  0  0  0
   12.0261   44.3665  133.5643 C   0  0  0  0  0  0  0  0  0  0  0  0
   11.5456   44.0706  134.7945 C   0  0  0  0  0  0  0  0  0  0  0  0
   10.4264   44.6854  135.2417 C   0  0  0  0  0  0  0  0  0  0  0  0
    9.8003   45.6165  134.4035 C   0  0  0  0  0  0  0  0  0  0  0  0
   10.2661   45.9321  133.1614 C   0  0  0  0  0  0  0  0  0  0  0  0
   12.0444   45.4849  131.4122 C   0  0  0  0  0  0  0  0  0  0  0  0
   13.4686   44.4906  129.9158 C   0  0  0  0  0  0  0  0  0  0  0  0
   12.4956   44.2396  130.8917 O   0  0  0  0  0  0  0  0  0  0  0  0
    8.3463   45.3740  130.8475 O   0  0  0  0  0  0  0  0  0  0  0  0
    9.0730   44.7088  129.8938 C   0  0  0  0  0  0  0  0  0  0  0  0
    9.7500   45.4182  128.9374 C   0  0  0  0  0  0  0  0  0  0  0  0
   10.5000   44.8091  127.9493 C   0  0  0  0  0  0  0  0  0  0  0  0
   10.5730   43.4325  127.9206 C   0  0  0  0  0  0  0  0  0  0  0  0
    9.9097   42.7050  128.8595 C   0  0  0  0  0  0  0  0  0  0  0  0
    9.1567   43.3427  129.8501 C   0  0  0  0  0  0  0  0  0  0  0  0
   11.3733   42.7926  126.8645 C   0  0  0  0  0  0  0  0  0  0  0  0
   12.6333   43.0691  126.6292 C   0  0  0  0  0  0  0  0  0  0  0  0
   13.3566   42.3737  125.5447 C   0  0  0  0  0  0  0  0  0  0  0  0
   14.1892   43.1061  124.7062 O   0  0  0  0  0  0  0  0  0  0  0  0
   13.2062   41.1378  125.4014 O   0  0  0  0  0  0  0  0  0  0  0  0
   15.1664   43.2279  124.8316 H   0  0  0  0  0  0  0  0  0  0  0  0
 19 20  1  0  0  0
 20 18  1  0  0  0
 18 12  1  0  0  0
 12 13  2  0  0  0
 13 14  1  0  0  0
 14 15  2  0  0  0
 15 16  1  0  0  0
 16 17  2  0  0  0
 17  1  1  0  0  0
  1  2  1  0  0  0
  2  3  1  0  0  0
  3  4  2  0  0  0
  4  5  1  0  0  0
  5  6  1  0  0  0
  5  7  2  0  0  0
  7  8  1  0  0  0
  8  9  2  0  0  0
  9 10  1  0  0  0
 10 21  1  0  0  0
 21 22  1  0  0  0
 22 23  2  0  0  0
 23 24  1  0  0  0
 24 25  2  0  0  0
 25 28  1  0  0  0
 28 29  2  0  0  0
 29 30  1  0  0  0
 30 31  1  0  0  0
 30 32  2  0  0  0
 25 26  1  0  0  0
 26 27  2  0  0  0
 17 12  1  0  0  0
 10  1  2  0  0  0
 27 22  1  0  0  0
  9  3  1  0  0  0
  6 11  1  0  0  0
 31 33  1  0  0  0
M  END
> <minimizedAffinity>
3.52141

> <CNNscore>
0.5656180978

> <CNNaffinity>
7.9658737183

> <CNN_VS>
4.5056424141

> <CNNaffinity_variance>
0.5308138728

$$$$
[H]OC(=O)/C([H])=C(\[H])c1c([H])c([H])c(Oc2c(-c3c([H])c([H])c([H])c([H])c3C([H])([H])OC([H])([H])[H])sc3c([H])c(O[H])c([H])c([H])c23)c([H])c1[H]


 33 36  0  0  0  0  0  0  0  0999 V2000
    9.8367   46.4498  131.5106 C   0  0  0  0  0  0  0  0  0  0  0  0
   10.1372   48.1582  131.5248 S   0  0  0  0  0  0  0  0  0  0  0  0
    8.7897   48.7001  130.6679 C   0  0  0  0  0  0  0  0  0  0  0  0
    8.3526   49.9710  130.2826 C   0  0  0  0  0  0  0  0  0  0  0  0
    7.1863   50.1281  129.5712 C   0  0  0  0  0  0  0  0  0  0  0  0
    6.7080   51.3575  129.1655 O   0  0  0  0  0  0  0  0  0  0  0  0
    6.5068   48.9583  129.2804 C   0  0  0  0  0  0  0  0  0  0  0  0
    6.9200   47.7039  129.6498 C   0  0  0  0  0  0  0  0  0  0  0  0
    8.1170   47.5520  130.3789 C   0  0  0  0  0  0  0  0  0  0  0  0
    8.6614   46.3851  130.8185 C   0  0  0  0  0  0  0  0  0  0  0  0
    5.8621   51.4931  128.6474 H   0  0  0  0  0  0  0  0  0  0  0  0
   10.2862   44.8939  133.3472 C   0  0  0  0  0  0  0  0  0  0  0  0
   11.0977   43.9217  133.9487 C   0  0  0  0  0  0  0  0  0  0  0  0
   12.2395   43.4761  133.3747 C   0  0  0  0  0  0  0  0  0  0  0  0
   12.6268   43.9760  132.1785 C   0  0  0  0  0  0  0  0  0  0  0  0
   11.8206   44.9478  131.5726 C   0  0  0  0  0  0  0  0  0  0  0  0
   10.6657   45.4111  132.1304 C   0  0  0  0  0  0  0  0  0  0  0  0
    9.0945   45.2790  134.1142 C   0  0  0  0  0  0  0  0  0  0  0  0
    8.6878   47.4173  134.8341 C   0  0  0  0  0  0  0  0  0  0  0  0
    9.4236   46.2547  135.0965 O   0  0  0  0  0  0  0  0  0  0  0  0
    8.0427   45.1088  130.5877 O   0  0  0  0  0  0  0  0  0  0  0  0
    8.6605   44.1923  129.7762 C   0  0  0  0  0  0  0  0  0  0  0  0
    9.0045   44.5400  128.4968 C   0  0  0  0  0  0  0  0  0  0  0  0
    9.6286   43.6641  127.6288 C   0  0  0  0  0  0  0  0  0  0  0  0
    9.9188   42.3881  128.0633 C   0  0  0  0  0  0  0  0  0  0  0  0
    9.5874   42.0182  129.3298 C   0  0  0  0  0  0  0  0  0  0  0  0
    8.9561   42.9211  130.1908 C   0  0  0  0  0  0  0  0  0  0  0  0
   10.5826   41.4622  127.1321 C   0  0  0  0  0  0  0  0  0  0  0  0
   10.1698   40.2408  126.8924 C   0  0  0  0  0  0  0  0  0  0  0  0
   10.9026   39.3825  125.9390 C   0  0  0  0  0  0  0  0  0  0  0  0
   10.2028   38.7557  124.9141 O   0  0  0  0  0  0  0  0  0  0  0  0
   12.1401   39.2359  126.0718 O   0  0  0  0  0  0  0  0  0  0  0  0
   10.0888   39.1131  123.9950 H   0  0  0  0  0  0  0  0  0  0  0  0
 19 20  1  0  0  0
 20 18  1  0  0  0
 18 12  1  0  0  0
 12 13  2  0  0  0
 13 14  1  0  0  0
 14 15  2  0  0  0
 15 16  1  0  0  0
 16 17  2  0  0  0
 17  1  1  0  0  0
  1  2  1  0  0  0
  2  3  1  0  0  0
  3  4  2  0  0  0
  4  5  1  0  0  0
  5  6  1  0  0  0
  5  7  2  0  0  0
  7  8  1  0  0  0
  8  9  2  0  0  0
  9 10  1  0  0  0
 10 21  1  0  0  0
 21 22  1  0  0  0
 22 23  2  0  0  0
 23 24  1  0  0  0
 24 25  2  0  0  0
 25 28  1  0  0  0
 28 29  2  0  0  0
 29 30  1  0  0  0
 30 31  1  0  0  0
 30 32  2  0  0  0
 25 26  1  0  0  0
 26 27  2  0  0  0
 17 12  1  0  0  0
 10  1  2  0  0  0
 27 22  1  0  0  0
  9  3  1  0  0  0
  6 11  1  0  0  0
 31 33  1  0  0  0
M  END
> <minimizedAffinity>
2.90226

> <CNNscore>
0.5635523200

> <CNNaffinity>
8.0524587631

> <CNN_VS>
4.5379819870

> <CNNaffinity_variance>
0.5766679049

$$$$
[H]OC(=O)/C([H])=C(\[H])c1c([H])c([H])c(Oc2c(-c3c([H])c([H])c([H])c([H])c3C([H])([H])OC([H])([H])[H])sc3c([H])c(O[H])c([H])c([H])c23)c([H])c1[H]


 33 36  0  0  0  0  0  0  0  0999 V2000
    9.8896   47.0694  131.9215 C   0  0  0  0  0  0  0  0  0  0  0  0
   10.0196   48.7941  132.0536 S   0  0  0  0  0  0  0  0  0  0  0  0
    8.8069   49.2628  130.9796 C   0  0  0  0  0  0  0  0  0  0  0  0
    8.3298   50.5101  130.5656 C   0  0  0  0  0  0  0  0  0  0  0  0
    7.3042   50.6037  129.6543 C   0  0  0  0  0  0  0  0  0  0  0  0
    6.7944   51.8072  129.2110 O   0  0  0  0  0  0  0  0  0  0  0  0
    6.8032   49.3969  129.1991 C   0  0  0  0  0  0  0  0  0  0  0  0
    7.2583   48.1649  129.5936 C   0  0  0  0  0  0  0  0  0  0  0  0
    8.3102   48.0781  130.5282 C   0  0  0  0  0  0  0  0  0  0  0  0
    8.8725   46.9406  131.0194 C   0  0  0  0  0  0  0  0  0  0  0  0
    6.0489   51.8968  128.5488 H   0  0  0  0  0  0  0  0  0  0  0  0
   10.3063   45.7191  133.9212 C   0  0  0  0  0  0  0  0  0  0  0  0
   11.0869   44.7888  134.6216 C   0  0  0  0  0  0  0  0  0  0  0  0
   12.1986   44.2300  134.0889 C   0  0  0  0  0  0  0  0  0  0  0  0
   12.5850   44.5702  132.8376 C   0  0  0  0  0  0  0  0  0  0  0  0
   11.8095   45.4994  132.1328 C   0  0  0  0  0  0  0  0  0  0  0  0
   10.6853   46.0744  132.6476 C   0  0  0  0  0  0  0  0  0  0  0  0
    9.1456   46.2424  134.6533 C   0  0  0  0  0  0  0  0  0  0  0  0
    8.2238   44.3855  133.6745 C   0  0  0  0  0  0  0  0  0  0  0  0
    7.9406   45.6686  134.1596 O   0  0  0  0  0  0  0  0  0  0  0  0
    8.4301   45.6298  130.6306 O   0  0  0  0  0  0  0  0  0  0  0  0
    9.1366   44.9271  129.6887 C   0  0  0  0  0  0  0  0  0  0  0  0
   10.0633   45.5718  128.9131 C   0  0  0  0  0  0  0  0  0  0  0  0
   10.8081   44.9222  127.9470 C   0  0  0  0  0  0  0  0  0  0  0  0
   10.6142   43.5711  127.7521 C   0  0  0  0  0  0  0  0  0  0  0  0
    9.6995   42.9076  128.5097 C   0  0  0  0  0  0  0  0  0  0  0  0
    8.9571   43.5854  129.4816 C   0  0  0  0  0  0  0  0  0  0  0  0
   11.4109   42.8879  126.7208 C   0  0  0  0  0  0  0  0  0  0  0  0
   12.7056   43.0372  126.5749 C   0  0  0  0  0  0  0  0  0  0  0  0
   13.4220   42.3081  125.5083 C   0  0  0  0  0  0  0  0  0  0  0  0
   14.2746   43.0085  124.6625 O   0  0  0  0  0  0  0  0  0  0  0  0
   13.2481   41.0730  125.3863 O   0  0  0  0  0  0  0  0  0  0  0  0
   15.2531   43.1133  124.7925 H   0  0  0  0  0  0  0  0  0  0  0  0
 19 20  1  0  0  0
 20 18  1  0  0  0
 18 12  1  0  0  0
 12 13  2  0  0  0
 13 14  1  0  0  0
 14 15  2  0  0  0
 15 16  1  0  0  0
 16 17  2  0  0  0
 17  1  1  0  0  0
  1  2  1  0  0  0
  2  3  1  0  0  0
  3  4  2  0  0  0
  4  5  1  0  0  0
  5  6  1  0  0  0
  5  7  2  0  0  0
  7  8  1  0  0  0
  8  9  2  0  0  0
  9 10  1  0  0  0
 10 21  1  0  0  0
 21 22  1  0  0  0
 22 23  2  0  0  0
 23 24  1  0  0  0
 24 25  2  0  0  0
 25 28  1  0  0  0
 28 29  2  0  0  0
 29 30  1  0  0  0
 30 31  1  0  0  0
 30 32  2  0  0  0
 25 26  1  0  0  0
 26 27  2  0  0  0
 17 12  1  0  0  0
 10  1  2  0  0  0
 27 22  1  0  0  0
  9  3  1  0  0  0
  6 11  1  0  0  0
 31 33  1  0  0  0
M  END
> <minimizedAffinity>
3.22920

> <CNNscore>
0.5509368181

> <CNNaffinity>
7.9329977036

> <CNN_VS>
4.3705806732

> <CNNaffinity_variance>
0.5699018240

$$$$
[H]OC(=O)/C([H])=C(\[H])c1c([H])c([H])c(Oc2c(-c3c([H])c([H])c([H])c([H])c3C([H])([H])OC([H])([H])[H])sc3c([H])c(O[H])c([H])c([H])c23)c([H])c1[H]


 33 36  0  0  0  0  0  0  0  0999 V2000
    9.4344   46.2178  130.0482 C   0  0  0  0  0  0  0  0  0  0  0  0
    9.3279   47.1154  128.5676 S   0  0  0  0  0  0  0  0  0  0  0  0
    8.2847   48.3503  129.0477 C   0  0  0  0  0  0  0  0  0  0  0  0
    7.7419   49.4529  128.3811 C   0  0  0  0  0  0  0  0  0  0  0  0
    6.8970   50.3218  129.0308 C   0  0  0  0  0  0  0  0  0  0  0  0
    6.3332   51.4249  128.4225 O   0  0  0  0  0  0  0  0  0  0  0  0
    6.6402   50.0194  130.3564 C   0  0  0  0  0  0  0  0  0  0  0  0
    7.1631   48.9431  131.0264 C   0  0  0  0  0  0  0  0  0  0  0  0
    8.0285   48.0574  130.3525 C   0  0  0  0  0  0  0  0  0  0  0  0
    8.6274   46.9509  130.8705 C   0  0  0  0  0  0  0  0  0  0  0  0
    5.7163   52.0689  128.8775 H   0  0  0  0  0  0  0  0  0  0  0  0
    9.5850   43.8039  130.4303 C   0  0  0  0  0  0  0  0  0  0  0  0
   10.3495   42.6562  130.6828 C   0  0  0  0  0  0  0  0  0  0  0  0
   11.6985   42.6937  130.7867 C   0  0  0  0  0  0  0  0  0  0  0  0
   12.3483   43.8720  130.6451 C   0  0  0  0  0  0  0  0  0  0  0  0
   11.5902   45.0222  130.3929 C   0  0  0  0  0  0  0  0  0  0  0  0
   10.2310   45.0093  130.2826 C   0  0  0  0  0  0  0  0  0  0  0  0
    8.1333   43.5901  130.3685 C   0  0  0  0  0  0  0  0  0  0  0  0
    8.4212   43.1174  132.5933 C   0  0  0  0  0  0  0  0  0  0  0  0
    7.7014   42.7650  131.4446 O   0  0  0  0  0  0  0  0  0  0  0  0
    8.4462   46.5420  132.2361 O   0  0  0  0  0  0  0  0  0  0  0  0
    9.3555   46.9293  133.1866 C   0  0  0  0  0  0  0  0  0  0  0  0
    9.1476   46.6008  134.5000 C   0  0  0  0  0  0  0  0  0  0  0  0
   10.0246   46.9603  135.5058 C   0  0  0  0  0  0  0  0  0  0  0  0
   11.1555   47.6785  135.1793 C   0  0  0  0  0  0  0  0  0  0  0  0
   11.3849   48.0171  133.8818 C   0  0  0  0  0  0  0  0  0  0  0  0
   10.4835   47.6426  132.8805 C   0  0  0  0  0  0  0  0  0  0  0  0
   12.0832   48.0575  136.2568 C   0  0  0  0  0  0  0  0  0  0  0  0
   13.2690   48.5795  136.0545 C   0  0  0  0  0  0  0  0  0  0  0  0
   14.1324   48.9291  137.2013 C   0  0  0  0  0  0  0  0  0  0  0  0
   13.7347   49.9426  138.0657 O   0  0  0  0  0  0  0  0  0  0  0  0
   15.2059   48.3057  137.3732 O   0  0  0  0  0  0  0  0  0  0  0  0
   13.2293   49.8113  138.9100 H   0  0  0  0  0  0  0  0  0  0  0  0
 19 20  1  0  0  0
 20 18  1  0  0  0
 18 12  1  0  0  0
 12 13  2  0  0  0
 13 14  1  0  0  0
 14 15  2  0  0  0
 15 16  1  0  0  0
 16 17  2  0  0  0
 17  1  1  0  0  0
  1  2  1  0  0  0
  2  3  1  0  0  0
  3  4  2  0  0  0
  4  5  1  0  0  0
  5  6  1  0  0  0
  5  7  2  0  0  0
  7  8  1  0  0  0
  8  9  2  0  0  0
  9 10  1  0  0  0
 10 21  1  0  0  0
 21 22  1  0  0  0
 22 23  2  0  0  0
 23 24  1  0  0  0
 24 25  2  0  0  0
 25 28  1  0  0  0
 28 29  2  0  0  0
 29 30  1  0  0  0
 30 31  1  0  0  0
 30 32  2  0  0  0
 25 26  1  0  0  0
 26 27  2  0  0  0
 17 12  1  0  0  0
 10  1  2  0  0  0
 27 22  1  0  0  0
  9  3  1  0  0  0
  6 11  1  0  0  0
 31 33  1  0  0  0
M  END
> <minimizedAffinity>
6.08462

> <CNNscore>
0.4902704656

> <CNNaffinity>
7.3961014748

> <CNN_VS>
3.6260900497

> <CNNaffinity_variance>
0.6357547045

$$$$
[H]OC(=O)/C([H])=C(\[H])c1c([H])c([H])c(Oc2c(-c3c([H])c([H])c([H])c([H])c3C([H])([H])OC([H])([H])[H])sc3c([H])c(O[H])c([H])c([H])c23)c([H])c1[H]


 33 36  0  0  0  0  0  0  0  0999 V2000
    8.0221   45.6462  130.7127 C   0  0  0  0  0  0  0  0  0  0  0  0
    6.3095   45.7503  130.4572 S   0  0  0  0  0  0  0  0  0  0  0  0
    6.1862   47.3523  129.9453 C   0  0  0  0  0  0  0  0  0  0  0  0
    5.1044   48.1492  129.5589 C   0  0  0  0  0  0  0  0  0  0  0  0
    5.2944   49.4570  129.1788 C   0  0  0  0  0  0  0  0  0  0  0  0
    4.2641   50.2882  128.7883 O   0  0  0  0  0  0  0  0  0  0  0  0
    6.6050   49.8996  129.2112 C   0  0  0  0  0  0  0  0  0  0  0  0
    7.6781   49.1329  129.5872 C   0  0  0  0  0  0  0  0  0  0  0  0
    7.4742   47.7931  129.9754 C   0  0  0  0  0  0  0  0  0  0  0  0
    8.4259   46.9056  130.3726 C   0  0  0  0  0  0  0  0  0  0  0  0
    4.3813   51.2422  128.5083 H   0  0  0  0  0  0  0  0  0  0  0  0
    9.3318   43.6400  130.2071 C   0  0  0  0  0  0  0  0  0  0  0  0
   10.0213   42.4962  130.6335 C   0  0  0  0  0  0  0  0  0  0  0  0
   10.1523   42.1760  131.9420 C   0  0  0  0  0  0  0  0  0  0  0  0
    9.6043   42.9764  132.8852 C   0  0  0  0  0  0  0  0  0  0  0  0
    8.9140   44.1205  132.4656 C   0  0  0  0  0  0  0  0  0  0  0  0
    8.7701   44.4646  131.1539 C   0  0  0  0  0  0  0  0  0  0  0  0
    9.2664   43.8275  128.7519 C   0  0  0  0  0  0  0  0  0  0  0  0
   11.2520   44.9168  128.3955 C   0  0  0  0  0  0  0  0  0  0  0  0
   10.5619   43.7183  128.1733 O   0  0  0  0  0  0  0  0  0  0  0  0
    9.8208   47.2452  130.4358 O   0  0  0  0  0  0  0  0  0  0  0  0
   10.4225   47.4172  131.6558 C   0  0  0  0  0  0  0  0  0  0  0  0
   10.1542   48.5394  132.3939 C   0  0  0  0  0  0  0  0  0  0  0  0
   10.7269   48.7730  133.6298 C   0  0  0  0  0  0  0  0  0  0  0  0
   11.6042   47.8423  134.1448 C   0  0  0  0  0  0  0  0  0  0  0  0
   11.8873   46.7192  133.4312 C   0  0  0  0  0  0  0  0  0  0  0  0
   11.2960   46.5037  132.1826 C   0  0  0  0  0  0  0  0  0  0  0  0
   12.2098   48.0997  135.4610 C   0  0  0  0  0  0  0  0  0  0  0  0
   13.3163   48.7804  135.6393 C   0  0  0  0  0  0  0  0  0  0  0  0
   13.8495   48.9881  137.0014 C   0  0  0  0  0  0  0  0  0  0  0  0
   13.2000   49.8707  137.8569 O   0  0  0  0  0  0  0  0  0  0  0  0
   14.8762   48.3652  137.3596 O   0  0  0  0  0  0  0  0  0  0  0  0
   12.5080   49.6196  138.5229 H   0  0  0  0  0  0  0  0  0  0  0  0
 19 20  1  0  0  0
 20 18  1  0  0  0
 18 12  1  0  0  0
 12 13  2  0  0  0
 13 14  1  0  0  0
 14 15  2  0  0  0
 15 16  1  0  0  0
 16 17  2  0  0  0
 17  1  1  0  0  0
  1  2  1  0  0  0
  2  3  1  0  0  0
  3  4  2  0  0  0
  4  5  1  0  0  0
  5  6  1  0  0  0
  5  7  2  0  0  0
  7  8  1  0  0  0
  8  9  2  0  0  0
  9 10  1  0  0  0
 10 21  1  0  0  0
 21 22  1  0  0  0
 22 23  2  0  0  0
 23 24  1  0  0  0
 24 25  2  0  0  0
 25 28  1  0  0  0
 28 29  2  0  0  0
 29 30  1  0  0  0
 30 31  1  0  0  0
 30 32  2  0  0  0
 25 26  1  0  0  0
 26 27  2  0  0  0
 17 12  1  0  0  0
 10  1  2  0  0  0
 27 22  1  0  0  0
  9  3  1  0  0  0
  6 11  1  0  0  0
 31 33  1  0  0  0
M  END
> <minimizedAffinity>
3.85652

> <CNNscore>
0.4890518188

> <CNNaffinity>
7.7297959328

> <CNN_VS>
3.7802708149

> <CNNaffinity_variance>
1.0564092398

$$$$
[H]OC(=O)/C([H])=C(\[H])c1c([H])c([H])c(Oc2c(-c3c([H])c([H])c([H])c([H])c3C([H])([H])OC([H])([H])[H])sc3c([H])c(O[H])c([H])c([H])c23)c([H])c1[H]


 33 36  0  0  0  0  0  0  0  0999 V2000
    7.9165   46.2383  131.0075 C   0  0  0  0  0  0  0  0  0  0  0  0
    6.5382   46.8122  130.1243 S   0  0  0  0  0  0  0  0  0  0  0  0
    6.9569   48.4364  129.9500 C   0  0  0  0  0  0  0  0  0  0  0  0
    6.3232   49.5245  129.3425 C   0  0  0  0  0  0  0  0  0  0  0  0
    6.9048   50.7706  129.3488 C   0  0  0  0  0  0  0  0  0  0  0  0
    6.3247   51.8786  128.7651 O   0  0  0  0  0  0  0  0  0  0  0  0
    8.1299   50.8500  129.9871 C   0  0  0  0  0  0  0  0  0  0  0  0
    8.7662   49.7943  130.5882 C   0  0  0  0  0  0  0  0  0  0  0  0
    8.1627   48.5202  130.5770 C   0  0  0  0  0  0  0  0  0  0  0  0
    8.6598   47.3779  131.1240 C   0  0  0  0  0  0  0  0  0  0  0  0
    6.7313   52.7934  128.7589 H   0  0  0  0  0  0  0  0  0  0  0  0
    8.2039   44.5965  132.8013 C   0  0  0  0  0  0  0  0  0  0  0  0
    8.4645   43.2845  133.2212 C   0  0  0  0  0  0  0  0  0  0  0  0
    8.6736   42.2729  132.3466 C   0  0  0  0  0  0  0  0  0  0  0  0
    8.6338   42.5187  131.0167 C   0  0  0  0  0  0  0  0  0  0  0  0
    8.3742   43.8274  130.5909 C   0  0  0  0  0  0  0  0  0  0  0  0
    8.1589   44.8623  131.4524 C   0  0  0  0  0  0  0  0  0  0  0  0
    8.0210   45.5762  133.8800 C   0  0  0  0  0  0  0  0  0  0  0  0
    9.2372   46.3099  135.6796 C   0  0  0  0  0  0  0  0  0  0  0  0
    9.2751   46.1061  134.2944 O   0  0  0  0  0  0  0  0  0  0  0  0
    9.9262   47.3333  131.8017 O   0  0  0  0  0  0  0  0  0  0  0  0
   10.8900   46.4533  131.3813 C   0  0  0  0  0  0  0  0  0  0  0  0
   11.0073   46.1592  130.0486 C   0  0  0  0  0  0  0  0  0  0  0  0
   11.9565   45.2817  129.5599 C   0  0  0  0  0  0  0  0  0  0  0  0
   12.8226   44.6753  130.4450 C   0  0  0  0  0  0  0  0  0  0  0  0
   12.7267   44.9508  131.7738 C   0  0  0  0  0  0  0  0  0  0  0  0
   11.7583   45.8421  132.2459 C   0  0  0  0  0  0  0  0  0  0  0  0
   13.8294   43.7419  129.9158 C   0  0  0  0  0  0  0  0  0  0  0  0
   14.5627   43.9776  128.8545 C   0  0  0  0  0  0  0  0  0  0  0  0
   15.5504   42.9787  128.3971 C   0  0  0  0  0  0  0  0  0  0  0  0
   16.0100   42.0197  129.2926 O   0  0  0  0  0  0  0  0  0  0  0  0
   15.9548   43.0144  127.2114 O   0  0  0  0  0  0  0  0  0  0  0  0
   15.6314   41.1086  129.4021 H   0  0  0  0  0  0  0  0  0  0  0  0
 19 20  1  0  0  0
 20 18  1  0  0  0
 18 12  1  0  0  0
 12 13  2  0  0  0
 13 14  1  0  0  0
 14 15  2  0  0  0
 15 16  1  0  0  0
 16 17  2  0  0  0
 17  1  1  0  0  0
  1  2  1  0  0  0
  2  3  1  0  0  0
  3  4  2  0  0  0
  4  5  1  0  0  0
  5  6  1  0  0  0
  5  7  2  0  0  0
  7  8  1  0  0  0
  8  9  2  0  0  0
  9 10  1  0  0  0
 10 21  1  0  0  0
 21 22  1  0  0  0
 22 23  2  0  0  0
 23 24  1  0  0  0
 24 25  2  0  0  0
 25 28  1  0  0  0
 28 29  2  0  0  0
 29 30  1  0  0  0
 30 31  1  0  0  0
 30 32  2  0  0  0
 25 26  1  0  0  0
 26 27  2  0  0  0
 17 12  1  0  0  0
 10  1  2  0  0  0
 27 22  1  0  0  0
  9  3  1  0  0  0
  6 11  1  0  0  0
 31 33  1  0  0  0
M  END
> <minimizedAffinity>
2.71872

> <CNNscore>
0.4812225997

> <CNNaffinity>
7.7771530151

> <CNN_VS>
3.7425417900

> <CNNaffinity_variance>
1.0621333122

$$$$
[H]OC(=O)/C([H])=C(\[H])c1c([H])c([H])c(Oc2c(-c3c([H])c([H])c([H])c([H])c3C([H])([H])OC([H])([H])[H])sc3c([H])c(O[H])c([H])c([H])c23)c([H])c1[H]


 33 36  0  0  0  0  0  0  0  0999 V2000
    9.4001   44.9606  132.7653 C   0  0  0  0  0  0  0  0  0  0  0  0
   10.7284   43.8449  132.7750 S   0  0  0  0  0  0  0  0  0  0  0  0
   10.1467   42.6870  131.6958 C   0  0  0  0  0  0  0  0  0  0  0  0
   10.6747   41.4878  131.2080 C   0  0  0  0  0  0  0  0  0  0  0  0
    9.9669   40.7200  130.3134 C   0  0  0  0  0  0  0  0  0  0  0  0
   10.4392   39.5291  129.7998 O   0  0  0  0  0  0  0  0  0  0  0  0
    8.7292   41.2211  129.9509 C   0  0  0  0  0  0  0  0  0  0  0  0
    8.1953   42.3945  130.4187 C   0  0  0  0  0  0  0  0  0  0  0  0
    8.9278   43.1755  131.3358 C   0  0  0  0  0  0  0  0  0  0  0  0
    8.5427   44.3565  131.8908 C   0  0  0  0  0  0  0  0  0  0  0  0
    9.9400   38.9559  129.1483 H   0  0  0  0  0  0  0  0  0  0  0  0
   10.1884   47.2359  133.2096 C   0  0  0  0  0  0  0  0  0  0  0  0
   10.1174   48.4276  133.9446 C   0  0  0  0  0  0  0  0  0  0  0  0
    9.2174   48.6123  134.9385 C   0  0  0  0  0  0  0  0  0  0  0  0
    8.3484   47.6222  135.2472 C   0  0  0  0  0  0  0  0  0  0  0  0
    8.4144   46.4292  134.5167 C   0  0  0  0  0  0  0  0  0  0  0  0
    9.3109   46.2203  133.5105 C   0  0  0  0  0  0  0  0  0  0  0  0
   11.2360   47.1942  132.1811 C   0  0  0  0  0  0  0  0  0  0  0  0
   12.7681   45.5273  131.8207 C   0  0  0  0  0  0  0  0  0  0  0  0
   12.4103   46.5689  132.6861 O   0  0  0  0  0  0  0  0  0  0  0  0
    7.2857   44.9813  131.5832 O   0  0  0  0  0  0  0  0  0  0  0  0
    7.2666   46.1515  130.8688 C   0  0  0  0  0  0  0  0  0  0  0  0
    8.3936   46.9273  130.8047 C   0  0  0  0  0  0  0  0  0  0  0  0
    8.4406   48.1167  130.1024 C   0  0  0  0  0  0  0  0  0  0  0  0
    7.3104   48.5439  129.4381 C   0  0  0  0  0  0  0  0  0  0  0  0
    6.1782   47.7913  129.4863 C   0  0  0  0  0  0  0  0  0  0  0  0
    6.1535   46.5911  130.2032 C   0  0  0  0  0  0  0  0  0  0  0  0
    7.3694   49.8118  128.6937 C   0  0  0  0  0  0  0  0  0  0  0  0
    7.0126   50.9718  129.1903 C   0  0  0  0  0  0  0  0  0  0  0  0
    7.1071   52.1939  128.3655 C   0  0  0  0  0  0  0  0  0  0  0  0
    7.4585   52.0821  127.0250 O   0  0  0  0  0  0  0  0  0  0  0  0
    6.8687   53.3072  128.8892 O   0  0  0  0  0  0  0  0  0  0  0  0
    6.8197   52.0181  126.2678 H   0  0  0  0  0  0  0  0  0  0  0  0
 19 20  1  0  0  0
 20 18  1  0  0  0
 18 12  1  0  0  0
 12 13  2  0  0  0
 13 14  1  0  0  0
 14 15  2  0  0  0
 15 16  1  0  0  0
 16 17  2  0  0  0
 17  1  1  0  0  0
  1  2  1  0  0  0
  2  3  1  0  0  0
  3  4  2  0  0  0
  4  5  1  0  0  0
  5  6  1  0  0  0
  5  7  2  0  0  0
  7  8  1  0  0  0
  8  9  2  0  0  0
  9 10  1  0  0  0
 10 21  1  0  0  0
 21 22  1  0  0  0
 22 23  2  0  0  0
 23 24  1  0  0  0
 24 25  2  0  0  0
 25 28  1  0  0  0
 28 29  2  0  0  0
 29 30  1  0  0  0
 30 31  1  0  0  0
 30 32  2  0  0  0
 25 26  1  0  0  0
 26 27  2  0  0  0
 17 12  1  0  0  0
 10  1  2  0  0  0
 27 22  1  0  0  0
  9  3  1  0  0  0
  6 11  1  0  0  0
 31 33  1  0  0  0
M  END
> <minimizedAffinity>
5.99988

> <CNNscore>
0.4770295918

> <CNNaffinity>
7.6769514084

> <CNN_VS>
3.6621329784

> <CNNaffinity_variance>
1.9594676495

$$$$
[H]OC(=O)/C([H])=C(\[H])c1c([H])c([H])c(Oc2c(-c3c([H])c([H])c([H])c([H])c3C([H])([H])OC([H])([H])[H])sc3c([H])c(O[H])c([H])c([H])c23)c([H])c1[H]


 33 36  0  0  0  0  0  0  0  0999 V2000
    9.4965   45.1865  132.3747 C   0  0  0  0  0  0  0  0  0  0  0  0
    9.1102   43.5443  131.9710 S   0  0  0  0  0  0  0  0  0  0  0  0
    9.5187   43.5405  130.3349 C   0  0  0  0  0  0  0  0  0  0  0  0
    9.4736   42.5561  129.3431 C   0  0  0  0  0  0  0  0  0  0  0  0
    9.8777   42.8331  128.0582 C   0  0  0  0  0  0  0  0  0  0  0  0
    9.8545   41.9007  127.0409 O   0  0  0  0  0  0  0  0  0  0  0  0
   10.3177   44.1268  127.8407 C   0  0  0  0  0  0  0  0  0  0  0  0
   10.3689   45.1050  128.8005 C   0  0  0  0  0  0  0  0  0  0  0  0
    9.9526   44.8124  130.1153 C   0  0  0  0  0  0  0  0  0  0  0  0
    9.9417   45.6648  131.1757 C   0  0  0  0  0  0  0  0  0  0  0  0
   10.1440   42.0821  126.0998 H   0  0  0  0  0  0  0  0  0  0  0  0
   10.1567   45.3513  134.7269 C   0  0  0  0  0  0  0  0  0  0  0  0
   10.0157   45.9359  135.9933 C   0  0  0  0  0  0  0  0  0  0  0  0
    9.1379   46.9376  136.2343 C   0  0  0  0  0  0  0  0  0  0  0  0
    8.3609   47.4030  135.2292 C   0  0  0  0  0  0  0  0  0  0  0  0
    8.4968   46.8229  133.9617 C   0  0  0  0  0  0  0  0  0  0  0  0
    9.3747   45.8143  133.6943 C   0  0  0  0  0  0  0  0  0  0  0  0
   11.1396   44.2632  134.6437 C   0  0  0  0  0  0  0  0  0  0  0  0
   12.5862   43.6230  132.9843 C   0  0  0  0  0  0  0  0  0  0  0  0
   12.2642   44.6611  133.8678 O   0  0  0  0  0  0  0  0  0  0  0  0
   10.3852   47.0280  131.0757 O   0  0  0  0  0  0  0  0  0  0  0  0
    9.5717   47.9650  130.4924 C   0  0  0  0  0  0  0  0  0  0  0  0
    9.6199   49.2663  130.9174 C   0  0  0  0  0  0  0  0  0  0  0  0
    8.8273   50.2583  130.3717 C   0  0  0  0  0  0  0  0  0  0  0  0
    7.9512   49.9301  129.3588 C   0  0  0  0  0  0  0  0  0  0  0  0
    7.8844   48.6446  128.9187 C   0  0  0  0  0  0  0  0  0  0  0  0
    8.6960   47.6572  129.4856 C   0  0  0  0  0  0  0  0  0  0  0  0
    7.1107   50.9926  128.7844 C   0  0  0  0  0  0  0  0  0  0  0  0
    7.5819   52.0982  128.2598 C   0  0  0  0  0  0  0  0  0  0  0  0
    6.6587   53.1100  127.7059 C   0  0  0  0  0  0  0  0  0  0  0  0
    5.3335   52.7624  127.4702 O   0  0  0  0  0  0  0  0  0  0  0  0
    7.0873   54.2616  127.4594 O   0  0  0  0  0  0  0  0  0  0  0  0
    4.5819   52.9036  128.1033 H   0  0  0  0  0  0  0  0  0  0  0  0
 19 20  1  0  0  0
 20 18  1  0  0  0
 18 12  1  0  0  0
 12 13  2  0  0  0
 13 14  1  0  0  0
 14 15  2  0  0  0
 15 16  1  0  0  0
 16 17  2  0  0  0
 17  1  1  0  0  0
  1  2  1  0  0  0
  2  3  1  0  0  0
  3  4  2  0  0  0
  4  5  1  0  0  0
  5  6  1  0  0  0
  5  7  2  0  0  0
  7  8  1  0  0  0
  8  9  2  0  0  0
  9 10  1  0  0  0
 10 21  1  0  0  0
 21 22  1  0  0  0
 22 23  2  0  0  0
 23 24  1  0  0  0
 24 25  2  0  0  0
 25 28  1  0  0  0
 28 29  2  0  0  0
 29 30  1  0  0  0
 30 31  1  0  0  0
 30 32  2  0  0  0
 25 26  1  0  0  0
 26 27  2  0  0  0
 17 12  1  0  0  0
 10  1  2  0  0  0
 27 22  1  0  0  0
  9  3  1  0  0  0
  6 11  1  0  0  0
 31 33  1  0  0  0
M  END
> <minimizedAffinity>
1.37601

> <CNNscore>
0.4743189216

> <CNNaffinity>
7.6700029373

> <CNN_VS>
3.6380274296

> <CNNaffinity_variance>
0.9543074369

$$$$
[H]Oc1c([H])c([H])c([C@@]2([H])Sc3c([H])c(O[H])c([H])c([H])c3O[C@@]2([H])c2c([H])c([H])c(OC([H])([H])C([H])([H])N3C([H])([H])C4([H])C([H])([H])C([H])([H])C3([H])C([H])([H])C4([H])[H])c([H])c2[H])c([H])c1[H]


 37 42  0  0  0  0  0  0  0  0999 V2000
   11.0034   43.3684  130.5288 C   0  0  0  0  0  0  0  0  0  0  0  0
   11.0421   43.0127  132.3360 S   0  0  0  0  0  0  0  0  0  0  0  0
    9.3921   42.4513  132.6322 C   0  0  0  0  0  0  0  0  0  0  0  0
    9.0759   41.8223  133.7956 C   0  0  0  0  0  0  0  0  0  0  0  0
    7.7928   41.3618  134.0658 C   0  0  0  0  0  0  0  0  0  0  0  0
    7.4414   40.7188  135.2390 O   0  0  0  0  0  0  0  0  0  0  0  0
    6.8124   41.5523  133.1180 C   0  0  0  0  0  0  0  0  0  0  0  0
    7.1291   42.1911  131.9339 C   0  0  0  0  0  0  0  0  0  0  0  0
    8.4264   42.6443  131.6875 C   0  0  0  0  0  0  0  0  0  0  0  0
    8.6442   43.2717  130.4733 O   0  0  0  0  0  0  0  0  0  0  0  0
    9.7785   44.1338  130.2757 C   0  0  0  0  0  0  0  0  0  0  0  0
    7.5363   39.6927  135.2465 H   0  0  0  0  0  0  0  0  0  0  0  0
   15.9432   45.0080  128.3109 O   0  0  0  0  0  0  0  0  0  0  0  0
   14.7108   44.5998  128.8666 C   0  0  0  0  0  0  0  0  0  0  0  0
   14.6473   44.0901  130.1407 C   0  0  0  0  0  0  0  0  0  0  0  0
   13.4324   43.6972  130.6635 C   0  0  0  0  0  0  0  0  0  0  0  0
   12.2537   43.7877  129.9681 C   0  0  0  0  0  0  0  0  0  0  0  0
   12.3277   44.2998  128.6922 C   0  0  0  0  0  0  0  0  0  0  0  0
   13.5438   44.7025  128.1450 C   0  0  0  0  0  0  0  0  0  0  0  0
   15.9937   45.3774  127.3868 H   0  0  0  0  0  0  0  0  0  0  0  0
    9.5213   45.3424  131.0570 C   0  0  0  0  0  0  0  0  0  0  0  0
   10.3071   46.4868  130.8663 C   0  0  0  0  0  0  0  0  0  0  0  0
   10.1077   47.6459  131.5717 C   0  0  0  0  0  0  0  0  0  0  0  0
    9.1008   47.7195  132.5141 C   0  0  0  0  0  0  0  0  0  0  0  0
    8.3201   46.6247  132.7223 C   0  0  0  0  0  0  0  0  0  0  0  0
    8.5375   45.4465  131.9923 C   0  0  0  0  0  0  0  0  0  0  0  0
    8.9180   48.9113  133.2208 O   0  0  0  0  0  0  0  0  0  0  0  0
    8.7024   50.1545  132.6324 C   0  0  0  0  0  0  0  0  0  0  0  0
    9.4027   50.1514  131.2875 C   0  0  0  0  0  0  0  0  0  0  0  0
    8.6774   49.3783  130.3074 N   0  0  0  0  0  0  0  0  0  0  0  0
    8.6705   50.0041  129.0042 C   0  0  0  0  0  0  0  0  0  0  0  0
    7.2511   50.2379  128.5657 C   0  0  0  0  0  0  0  0  0  0  0  0
    6.5876   51.1143  129.6196 C   0  0  0  0  0  0  0  0  0  0  0  0
    6.4628   50.2726  130.8727 C   0  0  0  0  0  0  0  0  0  0  0  0
    7.3575   49.0690  130.7638 C   0  0  0  0  0  0  0  0  0  0  0  0
    6.7392   48.1207  129.7352 C   0  0  0  0  0  0  0  0  0  0  0  0
    6.4695   48.9602  128.4951 C   0  0  0  0  0  0  0  0  0  0  0  0
 13 14  1  0  0  0
 14 15  2  0  0  0
 15 16  1  0  0  0
 16 17  2  0  0  0
 17 18  1  0  0  0
 18 19  2  0  0  0
 17  1  1  0  0  0
  1  2  1  0  0  0
  2  3  1  0  0  0
  3  4  2  0  0  0
  4  5  1  0  0  0
  5  6  1  0  0  0
  5  7  2  0  0  0
  7  8  1  0  0  0
  8  9  2  0  0  0
  9 10  1  0  0  0
 10 11  1  0  0  0
 11 21  1  0  0  0
 21 22  2  0  0  0
 22 23  1  0  0  0
 23 24  2  0  0  0
 24 27  1  0  0  0
 27 28  1  0  0  0
 28 29  1  0  0  0
 29 30  1  0  0  0
 30 31  1  0  0  0
 31 32  1  0  0  0
 32 33  1  0  0  0
 33 34  1  0  0  0
 34 35  1  0  0  0
 35 36  1  0  0  0
 36 37  1  0  0  0
 24 25  1  0  0  0
 25 26  2  0  0  0
 19 14  1  0  0  0
 11  1  1  0  0  0
 26 21  1  0  0  0
  9  3  1  0  0  0
 35 30  1  0  0  0
 37 32  1  0  0  0
 13 20  1  0  0  0
  6 12  1  0  0  0
M  END
> <minimizedAffinity>
14.65556

> <CNNscore>
0.4411275685

> <CNNaffinity>
7.6149406433

> <CNN_VS>
3.3591601849

> <CNNaffinity_variance>
1.1604487896

$$$$
[H]Oc1c([H])c([H])c([C@@]2([H])Sc3c([H])c(O[H])c([H])c([H])c3O[C@@]2([H])c2c([H])c([H])c(OC([H])([H])C([H])([H])N3C([H])([H])C4([H])C([H])([H])C([H])([H])C3([H])C([H])([H])C4([H])[H])c([H])c2[H])c([H])c1[H]


 37 42  0  0  0  0  0  0  0  0999 V2000
    8.8718   47.1523  129.0440 C   0  0  0  0  0  0  0  0  0  0  0  0
   10.4230   47.0424  130.0319 S   0  0  0  0  0  0  0  0  0  0  0  0
   11.2929   45.7467  129.2012 C   0  0  0  0  0  0  0  0  0  0  0  0
   12.6136   45.5351  129.4464 C   0  0  0  0  0  0  0  0  0  0  0  0
   13.3350   44.5311  128.8118 C   0  0  0  0  0  0  0  0  0  0  0  0
   14.6781   44.2920  129.0403 O   0  0  0  0  0  0  0  0  0  0  0  0
   12.6836   43.7261  127.9043 C   0  0  0  0  0  0  0  0  0  0  0  0
   11.3413   43.9375  127.6518 C   0  0  0  0  0  0  0  0  0  0  0  0
   10.6395   44.9535  128.3034 C   0  0  0  0  0  0  0  0  0  0  0  0
    9.2996   45.0858  127.9834 O   0  0  0  0  0  0  0  0  0  0  0  0
    8.3921   45.7791  128.8579 C   0  0  0  0  0  0  0  0  0  0  0  0
   15.3436   44.7991  128.4387 H   0  0  0  0  0  0  0  0  0  0  0  0
    5.3077   51.2431  130.6475 O   0  0  0  0  0  0  0  0  0  0  0  0
    6.1963   50.2220  130.2450 C   0  0  0  0  0  0  0  0  0  0  0  0
    5.7683   49.1913  129.4441 C   0  0  0  0  0  0  0  0  0  0  0  0
    6.6538   48.2041  129.0631 C   0  0  0  0  0  0  0  0  0  0  0  0
    7.9705   48.1908  129.4470 C   0  0  0  0  0  0  0  0  0  0  0  0
    8.3899   49.2281  130.2495 C   0  0  0  0  0  0  0  0  0  0  0  0
    7.5126   50.2349  130.6457 C   0  0  0  0  0  0  0  0  0  0  0  0
    5.6140   51.9920  131.2291 H   0  0  0  0  0  0  0  0  0  0  0  0
    8.2119   44.9242  130.0300 C   0  0  0  0  0  0  0  0  0  0  0  0
    8.4112   43.5406  129.9320 C   0  0  0  0  0  0  0  0  0  0  0  0
    8.2564   42.6943  131.0000 C   0  0  0  0  0  0  0  0  0  0  0  0
    7.8903   43.1951  132.2340 C   0  0  0  0  0  0  0  0  0  0  0  0
    7.6895   44.5348  132.3615 C   0  0  0  0  0  0  0  0  0  0  0  0
    7.8519   45.3868  131.2588 C   0  0  0  0  0  0  0  0  0  0  0  0
    7.7378   42.3125  133.3069 O   0  0  0  0  0  0  0  0  0  0  0  0
    8.7538   41.9591  134.1907 C   0  0  0  0  0  0  0  0  0  0  0  0
   10.0756   42.2004  133.4879 C   0  0  0  0  0  0  0  0  0  0  0  0
   10.2955   43.6032  133.2268 N   0  0  0  0  0  0  0  0  0  0  0  0
   11.3683   43.8288  132.2844 C   0  0  0  0  0  0  0  0  0  0  0  0
   12.4225   44.6932  132.9193 C   0  0  0  0  0  0  0  0  0  0  0  0
   12.9081   43.9737  134.1704 C   0  0  0  0  0  0  0  0  0  0  0  0
   11.7598   43.9904  135.1581 C   0  0  0  0  0  0  0  0  0  0  0  0
   10.4830   44.3341  134.4420 C   0  0  0  0  0  0  0  0  0  0  0  0
   10.5431   45.8160  134.0680 C   0  0  0  0  0  0  0  0  0  0  0  0
   11.8720   46.0182  133.3549 C   0  0  0  0  0  0  0  0  0  0  0  0
 13 14  1  0  0  0
 14 15  2  0  0  0
 15 16  1  0  0  0
 16 17  2  0  0  0
 17 18  1  0  0  0
 18 19  2  0  0  0
 17  1  1  0  0  0
  1  2  1  0  0  0
  2  3  1  0  0  0
  3  4  2  0  0  0
  4  5  1  0  0  0
  5  6  1  0  0  0
  5  7  2  0  0  0
  7  8  1  0  0  0
  8  9  2  0  0  0
  9 10  1  0  0  0
 10 11  1  0  0  0
 11 21  1  0  0  0
 21 22  2  0  0  0
 22 23  1  0  0  0
 23 24  2  0  0  0
 24 27  1  0  0  0
 27 28  1  0  0  0
 28 29  1  0  0  0
 29 30  1  0  0  0
 30 31  1  0  0  0
 31 32  1  0  0  0
 32 33  1  0  0  0
 33 34  1  0  0  0
 34 35  1  0  0  0
 35 36  1  0  0  0
 36 37  1  0  0  0
 24 25  1  0  0  0
 25 26  2  0  0  0
 19 14  1  0  0  0
 11  1  1  0  0  0
 26 21  1  0  0  0
  9  3  1  0  0  0
 35 30  1  0  0  0
 37 32  1  0  0  0
 13 20  1  0  0  0
  6 12  1  0  0  0
M  END
> <minimizedAffinity>
2.30986

> <CNNscore>
0.3696346879

> <CNNaffinity>
7.6544122696

> <CNN_VS>
2.8293364048

> <CNNaffinity_variance>
0.1349978745

$$$$
[H]Oc1c([H])c([H])c([C@@]2([H])Sc3c([H])c(O[H])c([H])c([H])c3O[C@@]2([H])c2c([H])c([H])c(OC([H])([H])C([H])([H])N3C([H])([H])C4([H])C([H])([H])C([H])([H])C3([H])C([H])([H])C4([H])[H])c([H])c2[H])c([H])c1[H]


 37 42  0  0  0  0  0  0  0  0999 V2000
   10.7906   43.2851  130.5935 C   0  0  0  0  0  0  0  0  0  0  0  0
   10.8299   42.8966  132.3940 S   0  0  0  0  0  0  0  0  0  0  0  0
    9.1669   42.3752  132.6905 C   0  0  0  0  0  0  0  0  0  0  0  0
    8.8403   41.7346  133.8447 C   0  0  0  0  0  0  0  0  0  0  0  0
    7.5467   41.3045  134.1147 C   0  0  0  0  0  0  0  0  0  0  0  0
    7.1845   40.6507  135.2786 O   0  0  0  0  0  0  0  0  0  0  0  0
    6.5664   41.5383  133.1765 C   0  0  0  0  0  0  0  0  0  0  0  0
    6.8937   42.1890  132.0018 C   0  0  0  0  0  0  0  0  0  0  0  0
    8.2015   42.6110  131.7553 C   0  0  0  0  0  0  0  0  0  0  0  0
    8.4294   43.2536  130.5509 O   0  0  0  0  0  0  0  0  0  0  0  0
    9.5856   44.0879  130.3614 C   0  0  0  0  0  0  0  0  0  0  0  0
    7.2514   39.6225  135.2677 H   0  0  0  0  0  0  0  0  0  0  0  0
   15.7544   44.8598  128.3821 O   0  0  0  0  0  0  0  0  0  0  0  0
   14.5148   44.4657  128.9320 C   0  0  0  0  0  0  0  0  0  0  0  0
   13.3611   44.5355  128.1896 C   0  0  0  0  0  0  0  0  0  0  0  0
   12.1608   44.1454  128.7472 C   0  0  0  0  0  0  0  0  0  0  0  0
   12.0487   43.6799  130.0325 C   0  0  0  0  0  0  0  0  0  0  0  0
   13.2106   43.6135  130.7684 C   0  0  0  0  0  0  0  0  0  0  0  0
   14.4328   44.0023  130.2250 C   0  0  0  0  0  0  0  0  0  0  0  0
   16.5934   44.8115  128.9176 H   0  0  0  0  0  0  0  0  0  0  0  0
    9.3661   45.2890  131.1653 C   0  0  0  0  0  0  0  0  0  0  0  0
   10.4008   46.2164  131.3460 C   0  0  0  0  0  0  0  0  0  0  0  0
   10.2477   47.3588  132.0892 C   0  0  0  0  0  0  0  0  0  0  0  0
    9.0380   47.6342  132.6959 C   0  0  0  0  0  0  0  0  0  0  0  0
    8.0133   46.7529  132.5390 C   0  0  0  0  0  0  0  0  0  0  0  0
    8.1866   45.5887  131.7756 C   0  0  0  0  0  0  0  0  0  0  0  0
    8.9069   48.8043  133.4490 O   0  0  0  0  0  0  0  0  0  0  0  0
    8.9808   50.0929  132.9273 C   0  0  0  0  0  0  0  0  0  0  0  0
    9.2661   49.9697  131.4432 C   0  0  0  0  0  0  0  0  0  0  0  0
    8.1364   50.3818  130.6443 N   0  0  0  0  0  0  0  0  0  0  0  0
    6.8796   49.9044  131.1760 C   0  0  0  0  0  0  0  0  0  0  0  0
    6.1779   49.0722  130.1384 C   0  0  0  0  0  0  0  0  0  0  0  0
    7.1095   47.9259  129.7682 C   0  0  0  0  0  0  0  0  0  0  0  0
    8.2839   48.5371  129.0322 C   0  0  0  0  0  0  0  0  0  0  0  0
    8.3125   50.0214  129.2714 C   0  0  0  0  0  0  0  0  0  0  0  0
    7.1503   50.6409  128.4935 C   0  0  0  0  0  0  0  0  0  0  0  0
    5.9108   49.8495  128.8843 C   0  0  0  0  0  0  0  0  0  0  0  0
 13 14  1  0  0  0
 14 15  2  0  0  0
 15 16  1  0  0  0
 16 17  2  0  0  0
 17 18  1  0  0  0
 18 19  2  0  0  0
 17  1  1  0  0  0
  1  2  1  0  0  0
  2  3  1  0  0  0
  3  4  2  0  0  0
  4  5  1  0  0  0
  5  6  1  0  0  0
  5  7  2  0  0  0
  7  8  1  0  0  0
  8  9  2  0  0  0
  9 10  1  0  0  0
 10 11  1  0  0  0
 11 21  1  0  0  0
 21 22  2  0  0  0
 22 23  1  0  0  0
 23 24  2  0  0  0
 24 27  1  0  0  0
 27 28  1  0  0  0
 28 29  1  0  0  0
 29 30  1  0  0  0
 30 31  1  0  0  0
 31 32  1  0  0  0
 32 33  1  0  0  0
 33 34  1  0  0  0
 34 35  1  0  0  0
 35 36  1  0  0  0
 36 37  1  0  0  0
 24 25  1  0  0  0
 25 26  2  0  0  0
 19 14  1  0  0  0
 11  1  1  0  0  0
 26 21  1  0  0  0
  9  3  1  0  0  0
 35 30  1  0  0  0
 37 32  1  0  0  0
 13 20  1  0  0  0
  6 12  1  0  0  0
M  END
> <minimizedAffinity>
13.72324

> <CNNscore>
0.3563556671

> <CNNaffinity>
7.5451631546

> <CNN_VS>
2.6887617111

> <CNNaffinity_variance>
0.8383976221

$$$$
[H]Oc1c([H])c([H])c([C@@]2([H])Sc3c([H])c(O[H])c([H])c([H])c3O[C@@]2([H])c2c([H])c([H])c(OC([H])([H])C([H])([H])N3C([H])([H])C4([H])C([H])([H])C([H])([H])C3([H])C([H])([H])C4([H])[H])c([H])c2[H])c([H])c1[H]


 37 42  0  0  0  0  0  0  0  0999 V2000
    9.8533   48.0768  131.9800 C   0  0  0  0  0  0  0  0  0  0  0  0
    9.1283   46.5680  132.7495 S   0  0  0  0  0  0  0  0  0  0  0  0
   10.5375   45.8480  133.5377 C   0  0  0  0  0  0  0  0  0  0  0  0
   10.3829   44.8566  134.4555 C   0  0  0  0  0  0  0  0  0  0  0  0
   11.4634   44.2674  135.1011 C   0  0  0  0  0  0  0  0  0  0  0  0
   11.3376   43.2581  136.0385 O   0  0  0  0  0  0  0  0  0  0  0  0
   12.7318   44.7076  134.7960 C   0  0  0  0  0  0  0  0  0  0  0  0
   12.8939   45.7151  133.8638 C   0  0  0  0  0  0  0  0  0  0  0  0
   11.7911   46.2902  133.2294 C   0  0  0  0  0  0  0  0  0  0  0  0
   12.0559   47.2916  132.3115 O   0  0  0  0  0  0  0  0  0  0  0  0
   11.0890   47.6570  131.3113 C   0  0  0  0  0  0  0  0  0  0  0  0
   11.2383   43.5534  137.0208 H   0  0  0  0  0  0  0  0  0  0  0  0
    6.1310   51.4229  129.3424 O   0  0  0  0  0  0  0  0  0  0  0  0
    7.0601   50.5862  129.9989 C   0  0  0  0  0  0  0  0  0  0  0  0
    6.9166   49.2202  129.9755 C   0  0  0  0  0  0  0  0  0  0  0  0
    7.8362   48.4217  130.6240 C   0  0  0  0  0  0  0  0  0  0  0  0
    8.9131   48.9245  131.3087 C   0  0  0  0  0  0  0  0  0  0  0  0
    9.0482   50.2946  131.3262 C   0  0  0  0  0  0  0  0  0  0  0  0
    8.1315   51.1192  130.6781 C   0  0  0  0  0  0  0  0  0  0  0  0
    6.2310   52.4143  129.3578 H   0  0  0  0  0  0  0  0  0  0  0  0
   11.0405   46.5498  130.3580 C   0  0  0  0  0  0  0  0  0  0  0  0
   10.0144   46.4824  129.4060 C   0  0  0  0  0  0  0  0  0  0  0  0
    9.9228   45.4666  128.4890 C   0  0  0  0  0  0  0  0  0  0  0  0
   10.8638   44.4558  128.4779 C   0  0  0  0  0  0  0  0  0  0  0  0
   11.8729   44.4930  129.3899 C   0  0  0  0  0  0  0  0  0  0  0  0
   11.9519   45.5392  130.3213 C   0  0  0  0  0  0  0  0  0  0  0  0
   10.7485   43.4311  127.5344 O   0  0  0  0  0  0  0  0  0  0  0  0
    9.8382   42.3808  127.6150 C   0  0  0  0  0  0  0  0  0  0  0  0
    9.8429   41.8804  129.0464 C   0  0  0  0  0  0  0  0  0  0  0  0
    9.5172   42.9305  129.9821 N   0  0  0  0  0  0  0  0  0  0  0  0
   10.1756   42.7583  131.2577 C   0  0  0  0  0  0  0  0  0  0  0  0
    9.1447   42.6828  132.3500 C   0  0  0  0  0  0  0  0  0  0  0  0
    8.2223   41.5155  132.0254 C   0  0  0  0  0  0  0  0  0  0  0  0
    7.4375   41.9085  130.7909 C   0  0  0  0  0  0  0  0  0  0  0  0
    8.1016   43.0802  130.1222 C   0  0  0  0  0  0  0  0  0  0  0  0
    7.8665   44.3115  130.9987 C   0  0  0  0  0  0  0  0  0  0  0  0
    8.2956   43.9175  132.4045 C   0  0  0  0  0  0  0  0  0  0  0  0
 13 14  1  0  0  0
 14 15  2  0  0  0
 15 16  1  0  0  0
 16 17  2  0  0  0
 17 18  1  0  0  0
 18 19  2  0  0  0
 17  1  1  0  0  0
  1  2  1  0  0  0
  2  3  1  0  0  0
  3  4  2  0  0  0
  4  5  1  0  0  0
  5  6  1  0  0  0
  5  7  2  0  0  0
  7  8  1  0  0  0
  8  9  2  0  0  0
  9 10  1  0  0  0
 10 11  1  0  0  0
 11 21  1  0  0  0
 21 22  2  0  0  0
 22 23  1  0  0  0
 23 24  2  0  0  0
 24 27  1  0  0  0
 27 28  1  0  0  0
 28 29  1  0  0  0
 29 30  1  0  0  0
 30 31  1  0  0  0
 31 32  1  0  0  0
 32 33  1  0  0  0
 33 34  1  0  0  0
 34 35  1  0  0  0
 35 36  1  0  0  0
 36 37  1  0  0  0
 24 25  1  0  0  0
 25 26  2  0  0  0
 19 14  1  0  0  0
 11  1  1  0  0  0
 26 21  1  0  0  0
  9  3  1  0  0  0
 35 30  1  0  0  0
 37 32  1  0  0  0
 13 20  1  0  0  0
  6 12  1  0  0  0
M  END
> <minimizedAffinity>
3.64972

> <CNNscore>
0.3546343148

> <CNNaffinity>
7.7511849403

> <CNN_VS>
2.7488362789

> <CNNaffinity_variance>
0.2956298292

$$$$
[H]Oc1c([H])c([H])c([C@@]2([H])Sc3c([H])c(O[H])c([H])c([H])c3O[C@@]2([H])c2c([H])c([H])c(OC([H])([H])C([H])([H])N3C([H])([H])C4([H])C([H])([H])C([H])([H])C3([H])C([H])([H])C4([H])[H])c([H])c2[H])c([H])c1[H]


 37 42  0  0  0  0  0  0  0  0999 V2000
   10.7813   44.4144  130.7203 C   0  0  0  0  0  0  0  0  0  0  0  0
    9.6886   43.3228  129.7160 S   0  0  0  0  0  0  0  0  0  0  0  0
    9.8538   44.0268  128.1027 C   0  0  0  0  0  0  0  0  0  0  0  0
    9.4214   43.3483  127.0065 C   0  0  0  0  0  0  0  0  0  0  0  0
    9.5367   43.8637  125.7210 C   0  0  0  0  0  0  0  0  0  0  0  0
    9.1067   43.1975  124.5876 O   0  0  0  0  0  0  0  0  0  0  0  0
   10.1097   45.1051  125.5590 C   0  0  0  0  0  0  0  0  0  0  0  0
   10.5507   45.7985  126.6703 C   0  0  0  0  0  0  0  0  0  0  0  0
   10.4228   45.2579  127.9512 C   0  0  0  0  0  0  0  0  0  0  0  0
   10.8940   46.0285  128.9997 O   0  0  0  0  0  0  0  0  0  0  0  0
   10.4544   45.7949  130.3492 C   0  0  0  0  0  0  0  0  0  0  0  0
    9.7938   42.5822  124.1281 H   0  0  0  0  0  0  0  0  0  0  0  0
   11.2660   42.9374  136.1602 O   0  0  0  0  0  0  0  0  0  0  0  0
   11.1463   43.3081  134.8027 C   0  0  0  0  0  0  0  0  0  0  0  0
   10.8982   44.6118  134.4481 C   0  0  0  0  0  0  0  0  0  0  0  0
   10.7847   44.9515  133.1156 C   0  0  0  0  0  0  0  0  0  0  0  0
   10.9082   44.0406  132.0978 C   0  0  0  0  0  0  0  0  0  0  0  0
   11.1569   42.7366  132.4633 C   0  0  0  0  0  0  0  0  0  0  0  0
   11.2751   42.3720  133.8025 C   0  0  0  0  0  0  0  0  0  0  0  0
   11.4450   41.9926  136.4216 H   0  0  0  0  0  0  0  0  0  0  0  0
    9.0627   46.2378  130.4140 C   0  0  0  0  0  0  0  0  0  0  0  0
    8.3601   46.5322  129.2379 C   0  0  0  0  0  0  0  0  0  0  0  0
    7.0539   46.9502  129.2424 C   0  0  0  0  0  0  0  0  0  0  0  0
    6.3770   47.0964  130.4373 C   0  0  0  0  0  0  0  0  0  0  0  0
    7.0319   46.8180  131.5971 C   0  0  0  0  0  0  0  0  0  0  0  0
    8.3683   46.3916  131.5748 C   0  0  0  0  0  0  0  0  0  0  0  0
    5.0468   47.5247  130.4162 O   0  0  0  0  0  0  0  0  0  0  0  0
    4.4730   48.2725  129.3916 C   0  0  0  0  0  0  0  0  0  0  0  0
    5.5273   48.4624  128.3185 C   0  0  0  0  0  0  0  0  0  0  0  0
    6.2372   49.7092  128.4792 N   0  0  0  0  0  0  0  0  0  0  0  0
    7.5724   49.5221  129.0010 C   0  0  0  0  0  0  0  0  0  0  0  0
    7.7252   50.2954  130.2817 C   0  0  0  0  0  0  0  0  0  0  0  0
    6.6623   49.7901  131.2480 C   0  0  0  0  0  0  0  0  0  0  0  0
    5.3232   50.2332  130.6960 C   0  0  0  0  0  0  0  0  0  0  0  0
    5.4802   50.6408  129.2571 C   0  0  0  0  0  0  0  0  0  0  0  0
    6.2397   51.9681  129.2293 C   0  0  0  0  0  0  0  0  0  0  0  0
    7.4827   51.7616  130.0825 C   0  0  0  0  0  0  0  0  0  0  0  0
 13 14  1  0  0  0
 14 15  2  0  0  0
 15 16  1  0  0  0
 16 17  2  0  0  0
 17 18  1  0  0  0
 18 19  2  0  0  0
 17  1  1  0  0  0
  1  2  1  0  0  0
  2  3  1  0  0  0
  3  4  2  0  0  0
  4  5  1  0  0  0
  5  6  1  0  0  0
  5  7  2  0  0  0
  7  8  1  0  0  0
  8  9  2  0  0  0
  9 10  1  0  0  0
 10 11  1  0  0  0
 11 21  1  0  0  0
 21 22  2  0  0  0
 22 23  1  0  0  0
 23 24  2  0  0  0
 24 27  1  0  0  0
 27 28  1  0  0  0
 28 29  1  0  0  0
 29 30  1  0  0  0
 30 31  1  0  0  0
 31 32  1  0  0  0
 32 33  1  0  0  0
 33 34  1  0  0  0
 34 35  1  0  0  0
 35 36  1  0  0  0
 36 37  1  0  0  0
 24 25  1  0  0  0
 25 26  2  0  0  0
 19 14  1  0  0  0
 11  1  1  0  0  0
 26 21  1  0  0  0
  9  3  1  0  0  0
 35 30  1  0  0  0
 37 32  1  0  0  0
 13 20  1  0  0  0
  6 12  1  0  0  0
M  END
> <minimizedAffinity>
22.60530

> <CNNscore>
0.3457125723

> <CNNaffinity>
7.5830130577

> <CNN_VS>
2.6215429306

> <CNNaffinity_variance>
1.3875813484

$$$$
[H]Oc1c([H])c([H])c([C@@]2([H])Sc3c([H])c(O[H])c([H])c([H])c3O[C@@]2([H])c2c([H])c([H])c(OC([H])([H])C([H])([H])N3C([H])([H])C4([H])C([H])([H])C([H])([H])C3([H])C([H])([H])C4([H])[H])c([H])c2[H])c([H])c1[H]


 37 42  0  0  0  0  0  0  0  0999 V2000
    8.0095   46.5923  128.8634 C   0  0  0  0  0  0  0  0  0  0  0  0
    9.7206   47.0404  129.3787 S   0  0  0  0  0  0  0  0  0  0  0  0
   10.6301   45.5964  128.9169 C   0  0  0  0  0  0  0  0  0  0  0  0
   11.9889   45.6217  128.8734 C   0  0  0  0  0  0  0  0  0  0  0  0
   12.7410   44.5106  128.5113 C   0  0  0  0  0  0  0  0  0  0  0  0
   14.1232   44.5061  128.4576 O   0  0  0  0  0  0  0  0  0  0  0  0
   12.0808   43.3468  128.1865 C   0  0  0  0  0  0  0  0  0  0  0  0
   10.6997   43.3163  128.2292 C   0  0  0  0  0  0  0  0  0  0  0  0
    9.9677   44.4471  128.5966 C   0  0  0  0  0  0  0  0  0  0  0  0
    8.5900   44.3171  128.6095 O   0  0  0  0  0  0  0  0  0  0  0  0
    7.7645   45.2315  129.3520 C   0  0  0  0  0  0  0  0  0  0  0  0
   14.5487   44.7701  127.5571 H   0  0  0  0  0  0  0  0  0  0  0  0
    4.1505   50.6636  129.5995 O   0  0  0  0  0  0  0  0  0  0  0  0
    5.1150   49.6482  129.4177 C   0  0  0  0  0  0  0  0  0  0  0  0
    6.4528   49.9089  129.5889 C   0  0  0  0  0  0  0  0  0  0  0  0
    7.3778   48.9016  129.4058 C   0  0  0  0  0  0  0  0  0  0  0  0
    7.0314   47.6221  129.0537 C   0  0  0  0  0  0  0  0  0  0  0  0
    5.6883   47.3708  128.8846 C   0  0  0  0  0  0  0  0  0  0  0  0
    4.7377   48.3729  129.0644 C   0  0  0  0  0  0  0  0  0  0  0  0
    3.1792   50.4788  129.4754 H   0  0  0  0  0  0  0  0  0  0  0  0
    7.9848   44.9337  130.7662 C   0  0  0  0  0  0  0  0  0  0  0  0
    8.9299   43.9714  131.1460 C   0  0  0  0  0  0  0  0  0  0  0  0
    9.1760   43.6548  132.4576 C   0  0  0  0  0  0  0  0  0  0  0  0
    8.4812   44.2923  133.4667 C   0  0  0  0  0  0  0  0  0  0  0  0
    7.5566   45.2321  133.1301 C   0  0  0  0  0  0  0  0  0  0  0  0
    7.3169   45.5440  131.7834 C   0  0  0  0  0  0  0  0  0  0  0  0
    8.7490   43.9517  134.7955 O   0  0  0  0  0  0  0  0  0  0  0  0
    9.5549   44.6933  135.6549 C   0  0  0  0  0  0  0  0  0  0  0  0
   10.6247   45.3629  134.8145 C   0  0  0  0  0  0  0  0  0  0  0  0
   10.4966   46.8009  134.8302 N   0  0  0  0  0  0  0  0  0  0  0  0
    9.1609   47.2407  134.4949 C   0  0  0  0  0  0  0  0  0  0  0  0
    9.2158   48.1480  133.2967 C   0  0  0  0  0  0  0  0  0  0  0  0
    9.8568   47.3628  132.1603 C   0  0  0  0  0  0  0  0  0  0  0  0
   11.3075   47.1493  132.5401 C   0  0  0  0  0  0  0  0  0  0  0  0
   11.4901   47.4195  134.0080 C   0  0  0  0  0  0  0  0  0  0  0  0
   11.3712   48.9294  134.2219 C   0  0  0  0  0  0  0  0  0  0  0  0
   10.0754   49.3512  133.5448 C   0  0  0  0  0  0  0  0  0  0  0  0
 13 14  1  0  0  0
 14 15  2  0  0  0
 15 16  1  0  0  0
 16 17  2  0  0  0
 17 18  1  0  0  0
 18 19  2  0  0  0
 17  1  1  0  0  0
  1  2  1  0  0  0
  2  3  1  0  0  0
  3  4  2  0  0  0
  4  5  1  0  0  0
  5  6  1  0  0  0
  5  7  2  0  0  0
  7  8  1  0  0  0
  8  9  2  0  0  0
  9 10  1  0  0  0
 10 11  1  0  0  0
 11 21  1  0  0  0
 21 22  2  0  0  0
 22 23  1  0  0  0
 23 24  2  0  0  0
 24 27  1  0  0  0
 27 28  1  0  0  0
 28 29  1  0  0  0
 29 30  1  0  0  0
 30 31  1  0  0  0
 31 32  1  0  0  0
 32 33  1  0  0  0
 33 34  1  0  0  0
 34 35  1  0  0  0
 35 36  1  0  0  0
 36 37  1  0  0  0
 24 25  1  0  0  0
 25 26  2  0  0  0
 19 14  1  0  0  0
 11  1  1  0  0  0
 26 21  1  0  0  0
  9  3  1  0  0  0
 35 30  1  0  0  0
 37 32  1  0  0  0
 13 20  1  0  0  0
  6 12  1  0  0  0
M  END
> <minimizedAffinity>
5.19251

> <CNNscore>
0.3387552202

> <CNNaffinity>
7.6104078293

> <CNN_VS>
2.5780653954

> <CNNaffinity_variance>
0.2486977279

$$$$
[H]Oc1c([H])c([H])c([C@@]2([H])Sc3c([H])c(O[H])c([H])c([H])c3O[C@@]2([H])c2c([H])c([H])c(OC([H])([H])C([H])([H])N3C([H])([H])C4([H])C([H])([H])C([H])([H])C3([H])C([H])([H])C4([H])[H])c([H])c2[H])c([H])c1[H]


 37 42  0  0  0  0  0  0  0  0999 V2000
   11.6422   44.3938  131.4707 C   0  0  0  0  0  0  0  0  0  0  0  0
   11.5018   46.1118  132.1212 S   0  0  0  0  0  0  0  0  0  0  0  0
   10.3510   45.9062  133.4474 C   0  0  0  0  0  0  0  0  0  0  0  0
   10.1800   46.8895  134.3709 C   0  0  0  0  0  0  0  0  0  0  0  0
    9.2896   46.7661  135.4307 C   0  0  0  0  0  0  0  0  0  0  0  0
    9.0943   47.7482  136.3850 O   0  0  0  0  0  0  0  0  0  0  0  0
    8.5582   45.6050  135.5436 C   0  0  0  0  0  0  0  0  0  0  0  0
    8.7286   44.6027  134.6074 C   0  0  0  0  0  0  0  0  0  0  0  0
    9.6301   44.7522  133.5517 C   0  0  0  0  0  0  0  0  0  0  0  0
    9.7296   43.6933  132.6662 O   0  0  0  0  0  0  0  0  0  0  0  0
   10.2757   43.8761  131.3482 C   0  0  0  0  0  0  0  0  0  0  0  0
    9.6974   47.7042  137.2194 H   0  0  0  0  0  0  0  0  0  0  0  0
   15.3561   43.7168  127.2566 O   0  0  0  0  0  0  0  0  0  0  0  0
   14.4307   43.8870  128.3098 C   0  0  0  0  0  0  0  0  0  0  0  0
   14.8166   43.7286  129.6186 C   0  0  0  0  0  0  0  0  0  0  0  0
   13.8957   43.8995  130.6317 C   0  0  0  0  0  0  0  0  0  0  0  0
   12.5834   44.2265  130.4032 C   0  0  0  0  0  0  0  0  0  0  0  0
   12.2064   44.3831  129.0883 C   0  0  0  0  0  0  0  0  0  0  0  0
   13.1200   44.2153  128.0502 C   0  0  0  0  0  0  0  0  0  0  0  0
   15.0798   43.8299  126.3059 H   0  0  0  0  0  0  0  0  0  0  0  0
    9.2886   44.6469  130.5940 C   0  0  0  0  0  0  0  0  0  0  0  0
    8.0596   44.9826  131.1774 C   0  0  0  0  0  0  0  0  0  0  0  0
    7.0997   45.7041  130.5148 C   0  0  0  0  0  0  0  0  0  0  0  0
    7.3236   46.1311  129.2206 C   0  0  0  0  0  0  0  0  0  0  0  0
    8.5077   45.8211  128.6264 C   0  0  0  0  0  0  0  0  0  0  0  0
    9.4790   45.0820  129.3182 C   0  0  0  0  0  0  0  0  0  0  0  0
    6.3298   46.8640  128.5659 O   0  0  0  0  0  0  0  0  0  0  0  0
    5.8703   48.1133  128.9738 C   0  0  0  0  0  0  0  0  0  0  0  0
    7.0740   49.0285  129.0872 C   0  0  0  0  0  0  0  0  0  0  0  0
    7.3883   49.3325  130.4632 N   0  0  0  0  0  0  0  0  0  0  0  0
    7.9309   50.6626  130.6256 C   0  0  0  0  0  0  0  0  0  0  0  0
    9.2902   50.5772  131.2633 C   0  0  0  0  0  0  0  0  0  0  0  0
   10.1626   49.7146  130.3613 C   0  0  0  0  0  0  0  0  0  0  0  0
    9.6166   48.3041  130.4438 C   0  0  0  0  0  0  0  0  0  0  0  0
    8.2346   48.3315  131.0356 C   0  0  0  0  0  0  0  0  0  0  0  0
    8.3715   48.6588  132.5234 C   0  0  0  0  0  0  0  0  0  0  0  0
    9.2385   49.9067  132.6035 C   0  0  0  0  0  0  0  0  0  0  0  0
 13 14  1  0  0  0
 14 15  2  0  0  0
 15 16  1  0  0  0
 16 17  2  0  0  0
 17 18  1  0  0  0
 18 19  2  0  0  0
 17  1  1  0  0  0
  1  2  1  0  0  0
  2  3  1  0  0  0
  3  4  2  0  0  0
  4  5  1  0  0  0
  5  6  1  0  0  0
  5  7  2  0  0  0
  7  8  1  0  0  0
  8  9  2  0  0  0
  9 10  1  0  0  0
 10 11  1  0  0  0
 11 21  1  0  0  0
 21 22  2  0  0  0
 22 23  1  0  0  0
 23 24  2  0  0  0
 24 27  1  0  0  0
 27 28  1  0  0  0
 28 29  1  0  0  0
 29 30  1  0  0  0
 30 31  1  0  0  0
 31 32  1  0  0  0
 32 33  1  0  0  0
 33 34  1  0  0  0
 34 35  1  0  0  0
 35 36  1  0  0  0
 36 37  1  0  0  0
 24 25  1  0  0  0
 25 26  2  0  0  0
 19 14  1  0  0  0
 11  1  1  0  0  0
 26 21  1  0  0  0
  9  3  1  0  0  0
 35 30  1  0  0  0
 37 32  1  0  0  0
 13 20  1  0  0  0
  6 12  1  0  0  0
M  END
> <minimizedAffinity>
6.64550

> <CNNscore>
0.2841697931

> <CNNaffinity>
7.4721517563

> <CNN_VS>
2.1233599186

> <CNNaffinity_variance>
0.1288271844

$$$$
[H]Oc1c([H])c([H])c([C@@]2([H])Sc3c([H])c(O[H])c([H])c([H])c3O[C@@]2([H])c2c([H])c([H])c(OC([H])([H])C([H])([H])N3C([H])([H])C4([H])C([H])([H])C([H])([H])C3([H])C([H])([H])C4([H])[H])c([H])c2[H])c([H])c1[H]


 37 42  0  0  0  0  0  0  0  0999 V2000
    9.5756   46.5591  129.1822 C   0  0  0  0  0  0  0  0  0  0  0  0
    8.1168   45.5895  129.7532 S   0  0  0  0  0  0  0  0  0  0  0  0
    6.8144   46.7774  129.6182 C   0  0  0  0  0  0  0  0  0  0  0  0
    5.5139   46.3853  129.6828 C   0  0  0  0  0  0  0  0  0  0  0  0
    4.4608   47.2859  129.5766 C   0  0  0  0  0  0  0  0  0  0  0  0
    3.1290   46.9173  129.6382 O   0  0  0  0  0  0  0  0  0  0  0  0
    4.7515   48.6201  129.3999 C   0  0  0  0  0  0  0  0  0  0  0  0
    6.0719   49.0233  129.3336 C   0  0  0  0  0  0  0  0  0  0  0  0
    7.1114   48.0977  129.4434 C   0  0  0  0  0  0  0  0  0  0  0  0
    8.3991   48.5988  129.3648 O   0  0  0  0  0  0  0  0  0  0  0  0
    9.5189   47.8520  129.8718 C   0  0  0  0  0  0  0  0  0  0  0  0
    2.6776   46.6756  128.7440 H   0  0  0  0  0  0  0  0  0  0  0  0
   14.4131   43.6367  128.9235 O   0  0  0  0  0  0  0  0  0  0  0  0
   13.2067   44.3679  128.9893 C   0  0  0  0  0  0  0  0  0  0  0  0
   12.8439   45.0256  130.1394 C   0  0  0  0  0  0  0  0  0  0  0  0
   11.6605   45.7339  130.1814 C   0  0  0  0  0  0  0  0  0  0  0  0
   10.8027   45.8222  129.1149 C   0  0  0  0  0  0  0  0  0  0  0  0
   11.1752   45.1596  127.9668 C   0  0  0  0  0  0  0  0  0  0  0  0
   12.3655   44.4389  127.9027 C   0  0  0  0  0  0  0  0  0  0  0  0
   14.6794   43.1574  128.0914 H   0  0  0  0  0  0  0  0  0  0  0  0
    9.4071   47.8759  131.3292 C   0  0  0  0  0  0  0  0  0  0  0  0
    8.4729   47.0581  131.9790 C   0  0  0  0  0  0  0  0  0  0  0  0
    8.3277   47.0414  133.3427 C   0  0  0  0  0  0  0  0  0  0  0  0
    9.1188   47.8509  134.1340 C   0  0  0  0  0  0  0  0  0  0  0  0
   10.0358   48.6565  133.5328 C   0  0  0  0  0  0  0  0  0  0  0  0
   10.1714   48.6617  132.1364 C   0  0  0  0  0  0  0  0  0  0  0  0
    8.9515   47.8168  135.5212 O   0  0  0  0  0  0  0  0  0  0  0  0
    9.1786   46.6979  136.3179 C   0  0  0  0  0  0  0  0  0  0  0  0
   10.4883   46.0773  135.8718 C   0  0  0  0  0  0  0  0  0  0  0  0
   10.2756   44.9015  135.0616 N   0  0  0  0  0  0  0  0  0  0  0  0
   11.1157   43.7950  135.4614 C   0  0  0  0  0  0  0  0  0  0  0  0
   11.9601   43.3576  134.2963 C   0  0  0  0  0  0  0  0  0  0  0  0
   12.7803   44.5610  133.8515 C   0  0  0  0  0  0  0  0  0  0  0  0
   11.8067   45.5592  133.2597 C   0  0  0  0  0  0  0  0  0  0  0  0
   10.4049   45.2006  133.6688 C   0  0  0  0  0  0  0  0  0  0  0  0
   10.0038   43.9398  132.9013 C   0  0  0  0  0  0  0  0  0  0  0  0
   11.1233   42.9341  133.1264 C   0  0  0  0  0  0  0  0  0  0  0  0
 13 14  1  0  0  0
 14 15  2  0  0  0
 15 16  1  0  0  0
 16 17  2  0  0  0
 17 18  1  0  0  0
 18 19  2  0  0  0
 17  1  1  0  0  0
  1  2  1  0  0  0
  2  3  1  0  0  0
  3  4  2  0  0  0
  4  5  1  0  0  0
  5  6  1  0  0  0
  5  7  2  0  0  0
  7  8  1  0  0  0
  8  9  2  0  0  0
  9 10  1  0  0  0
 10 11  1  0  0  0
 11 21  1  0  0  0
 21 22  2  0  0  0
 22 23  1  0  0  0
 23 24  2  0  0  0
 24 27  1  0  0  0
 27 28  1  0  0  0
 28 29  1  0  0  0
 29 30  1  0  0  0
 30 31  1  0  0  0
 31 32  1  0  0  0
 32 33  1  0  0  0
 33 34  1  0  0  0
 34 35  1  0  0  0
 35 36  1  0  0  0
 36 37  1  0  0  0
 24 25  1  0  0  0
 25 26  2  0  0  0
 19 14  1  0  0  0
 11  1  1  0  0  0
 26 21  1  0  0  0
  9  3  1  0  0  0
 35 30  1  0  0  0
 37 32  1  0  0  0
 13 20  1  0  0  0
  6 12  1  0  0  0
M  END
> <minimizedAffinity>
4.52114

> <CNNscore>
0.2296527028

> <CNNaffinity>
7.5344910622

> <CNN_VS>
1.7303162813

> <CNNaffinity_variance>
0.1959732026

$$$$
[H]Oc1c([H])c([H])c([C@@]2([H])Sc3c([H])c(O[H])c([H])c([H])c3O[C@@]2([H])c2c([H])c([H])c(OC([H])([H])C([H])([H])N3C([H])([H])C4([H])C([H])([H])C([H])([H])C3([H])C([H])([H])C4([H])[H])c([H])c2[H])c([H])c1[H]


 37 42  0  0  0  0  0  0  0  0999 V2000
    9.3441   42.7505  131.8050 C   0  0  0  0  0  0  0  0  0  0  0  0
    8.5997   43.6837  130.4017 S   0  0  0  0  0  0  0  0  0  0  0  0
   10.0335   44.1960  129.5034 C   0  0  0  0  0  0  0  0  0  0  0  0
    9.9180   44.6815  128.2385 C   0  0  0  0  0  0  0  0  0  0  0  0
   11.0197   45.0905  127.4967 C   0  0  0  0  0  0  0  0  0  0  0  0
   10.9337   45.5879  126.2088 O   0  0  0  0  0  0  0  0  0  0  0  0
   12.2688   44.9981  128.0685 C   0  0  0  0  0  0  0  0  0  0  0  0
   12.3912   44.5052  129.3540 C   0  0  0  0  0  0  0  0  0  0  0  0
   11.2678   44.1011  130.0778 C   0  0  0  0  0  0  0  0  0  0  0  0
   11.4930   43.6219  131.3565 O   0  0  0  0  0  0  0  0  0  0  0  0
   10.4351   43.5777  132.3301 C   0  0  0  0  0  0  0  0  0  0  0  0
   10.9956   44.8987  125.4453 H   0  0  0  0  0  0  0  0  0  0  0  0
    5.6201   40.3236  135.3052 O   0  0  0  0  0  0  0  0  0  0  0  0
    6.5480   40.9310  134.4308 C   0  0  0  0  0  0  0  0  0  0  0  0
    6.1742   41.3208  133.1677 C   0  0  0  0  0  0  0  0  0  0  0  0
    7.0974   41.9121  132.3300 C   0  0  0  0  0  0  0  0  0  0  0  0
    8.4002   42.1395  132.6934 C   0  0  0  0  0  0  0  0  0  0  0  0
    8.7651   41.7454  133.9612 C   0  0  0  0  0  0  0  0  0  0  0  0
    7.8491   41.1467  134.8230 C   0  0  0  0  0  0  0  0  0  0  0  0
    5.8876   40.0386  136.2219 H   0  0  0  0  0  0  0  0  0  0  0  0
   10.1592   44.9635  132.7052 C   0  0  0  0  0  0  0  0  0  0  0  0
   11.0854   45.9726  132.4097 C   0  0  0  0  0  0  0  0  0  0  0  0
   10.8756   47.2875  132.7383 C   0  0  0  0  0  0  0  0  0  0  0  0
    9.7155   47.6634  133.3865 C   0  0  0  0  0  0  0  0  0  0  0  0
    8.7961   46.7065  133.6872 C   0  0  0  0  0  0  0  0  0  0  0  0
    9.0263   45.3657  133.3440 C   0  0  0  0  0  0  0  0  0  0  0  0
    9.5250   49.0092  133.7119 O   0  0  0  0  0  0  0  0  0  0  0  0
    9.3178   50.0256  132.7833 C   0  0  0  0  0  0  0  0  0  0  0  0
    9.1505   49.3756  131.4236 C   0  0  0  0  0  0  0  0  0  0  0  0
    7.7671   49.0759  131.1395 N   0  0  0  0  0  0  0  0  0  0  0  0
    7.5819   47.7267  130.6542 C   0  0  0  0  0  0  0  0  0  0  0  0
    6.9275   47.7641  129.3007 C   0  0  0  0  0  0  0  0  0  0  0  0
    7.8282   48.5789  128.3821 C   0  0  0  0  0  0  0  0  0  0  0  0
    7.7695   50.0116  128.8705 C   0  0  0  0  0  0  0  0  0  0  0  0
    7.1955   50.0483  130.2598 C   0  0  0  0  0  0  0  0  0  0  0  0
    5.7022   49.7341  130.1553 C   0  0  0  0  0  0  0  0  0  0  0  0
    5.5961   48.4526  129.3415 C   0  0  0  0  0  0  0  0  0  0  0  0
 13 14  1  0  0  0
 14 15  2  0  0  0
 15 16  1  0  0  0
 16 17  2  0  0  0
 17 18  1  0  0  0
 18 19  2  0  0  0
 17  1  1  0  0  0
  1  2  1  0  0  0
  2  3  1  0  0  0
  3  4  2  0  0  0
  4  5  1  0  0  0
  5  6  1  0  0  0
  5  7  2  0  0  0
  7  8  1  0  0  0
  8  9  2  0  0  0
  9 10  1  0  0  0
 10 11  1  0  0  0
 11 21  1  0  0  0
 21 22  2  0  0  0
 22 23  1  0  0  0
 23 24  2  0  0  0
 24 27  1  0  0  0
 27 28  1  0  0  0
 28 29  1  0  0  0
 29 30  1  0  0  0
 30 31  1  0  0  0
 31 32  1  0  0  0
 32 33  1  0  0  0
 33 34  1  0  0  0
 34 35  1  0  0  0
 35 36  1  0  0  0
 36 37  1  0  0  0
 24 25  1  0  0  0
 25 26  2  0  0  0
 19 14  1  0  0  0
 11  1  1  0  0  0
 26 21  1  0  0  0
  9  3  1  0  0  0
 35 30  1  0  0  0
 37 32  1  0  0  0
 13 20  1  0  0  0
  6 12  1  0  0  0
M  END
> <minimizedAffinity>
8.58974

> <CNNscore>
0.2240432501

> <CNNaffinity>
7.5554466248

> <CNN_VS>
1.6927467585

> <CNNaffinity_variance>
0.1063326001

$$$$
[H]c1c([H])c([H])c(/C(=C(\c2c([H])c([H])c(OC(=O)C([H])([H])C([H])([H])C([H])([H])C([H])([H])C([H])([H])C([H])([H])C([H])([H])C([H])([H])C([H])([H])[H])c([H])c2[H])c2c([H])c([H])c(OC([H])([H])C([H])([H])N3C([H])([H])C([H])([H])C([H])([H])C([H])([H])C3([H])[H])c([H])c2[H])C([H])([H])[H])c([H])c1[H]


 42 45  0  0  0  0  0  0  0  0999 V2000
    9.3871   45.0058  130.8750 C   0  0  0  0  0  0  0  0  0  0  0  0
    9.8142   45.0259  132.1157 C   0  0  0  0  0  0  0  0  0  0  0  0
   10.6057   43.8235  132.6099 C   0  0  0  0  0  0  0  0  0  0  0  0
    9.6307   43.9236  129.9238 C   0  0  0  0  0  0  0  0  0  0  0  0
    9.3464   42.6117  130.1631 C   0  0  0  0  0  0  0  0  0  0  0  0
    9.5684   41.6421  129.1745 C   0  0  0  0  0  0  0  0  0  0  0  0
   10.0732   41.9362  127.9349 C   0  0  0  0  0  0  0  0  0  0  0  0
   10.3640   43.2912  127.7000 C   0  0  0  0  0  0  0  0  0  0  0  0
   10.1492   44.2432  128.6608 C   0  0  0  0  0  0  0  0  0  0  0  0
   10.3208   41.0632  126.9166 O   0  0  0  0  0  0  0  0  0  0  0  0
   10.3485   39.6812  126.8828 C   0  0  0  0  0  0  0  0  0  0  0  0
   10.2300   39.0624  125.5352 C   0  0  0  0  0  0  0  0  0  0  0  0
   11.4357   38.6500  124.9158 N   0  0  0  0  0  0  0  0  0  0  0  0
   11.8563   37.3668  125.3719 C   0  0  0  0  0  0  0  0  0  0  0  0
   12.7701   37.5228  126.5763 C   0  0  0  0  0  0  0  0  0  0  0  0
   13.9021   38.4613  126.2762 C   0  0  0  0  0  0  0  0  0  0  0  0
   13.4644   39.7813  125.6800 C   0  0  0  0  0  0  0  0  0  0  0  0
   12.4324   39.5763  124.5882 C   0  0  0  0  0  0  0  0  0  0  0  0
    9.6434   46.1365  133.0451 C   0  0  0  0  0  0  0  0  0  0  0  0
   10.3318   47.3130  132.8013 C   0  0  0  0  0  0  0  0  0  0  0  0
   10.1639   48.4067  133.6373 C   0  0  0  0  0  0  0  0  0  0  0  0
    9.3225   48.3737  134.7253 C   0  0  0  0  0  0  0  0  0  0  0  0
    8.6381   47.2158  134.9740 C   0  0  0  0  0  0  0  0  0  0  0  0
    8.8146   46.1227  134.1263 C   0  0  0  0  0  0  0  0  0  0  0  0
    7.1986   48.3031  129.4541 C   0  0  0  0  0  0  0  0  0  0  0  0
    6.5221   47.1800  129.9064 C   0  0  0  0  0  0  0  0  0  0  0  0
    7.2328   46.1082  130.3504 C   0  0  0  0  0  0  0  0  0  0  0  0
    8.6165   46.1280  130.3543 C   0  0  0  0  0  0  0  0  0  0  0  0
    9.2723   47.2781  129.8909 C   0  0  0  0  0  0  0  0  0  0  0  0
    8.5674   48.3637  129.4418 C   0  0  0  0  0  0  0  0  0  0  0  0
    6.4682   49.3701  129.0089 O   0  0  0  0  0  0  0  0  0  0  0  0
    6.5988   50.6655  129.5111 C   0  0  0  0  0  0  0  0  0  0  0  0
    6.0089   50.9248  130.5692 O   0  0  0  0  0  0  0  0  0  0  0  0
    7.4317   51.5892  128.7145 C   0  0  0  0  0  0  0  0  0  0  0  0
    6.6462   52.6413  128.0044 C   0  0  0  0  0  0  0  0  0  0  0  0
    7.4298   53.8797  127.6704 C   0  0  0  0  0  0  0  0  0  0  0  0
    7.5468   53.9409  126.1559 C   0  0  0  0  0  0  0  0  0  0  0  0
    7.3349   55.3182  125.6075 C   0  0  0  0  0  0  0  0  0  0  0  0
    6.7074   55.2569  124.2562 C   0  0  0  0  0  0  0  0  0  0  0  0
    7.5909   54.6252  123.2120 C   0  0  0  0  0  0  0  0  0  0  0  0
    5.3254   53.8912  122.4465 C   0  0  0  0  0  0  0  0  0  0  0  0
    6.7443   54.2148  122.0136 C   0  0  0  0  0  0  0  0  0  0  0  0
 41 42  1  0  0  0
 42 40  1  0  0  0
 40 39  1  0  0  0
 39 38  1  0  0  0
 38 37  1  0  0  0
 37 36  1  0  0  0
 36 35  1  0  0  0
 35 34  1  0  0  0
 34 32  1  0  0  0
 32 33  2  0  0  0
 32 31  1  0  0  0
 31 25  1  0  0  0
 25 26  2  0  0  0
 26 27  1  0  0  0
 27 28  2  0  0  0
 28 29  1  0  0  0
 29 30  2  0  0  0
 28  1  1  0  0  0
  1  2  2  0  0  0
  2  3  1  0  0  0
  2 19  1  0  0  0
 19 20  2  0  0  0
 20 21  1  0  0  0
 21 22  2  0  0  0
 22 23  1  0  0  0
 23 24  2  0  0  0
  1  4  1  0  0  0
  4  5  2  0  0  0
  5  6  1  0  0  0
  6  7  2  0  0  0
  7 10  1  0  0  0
 10 11  1  0  0  0
 11 12  1  0  0  0
 12 13  1  0  0  0
 13 14  1  0  0  0
 14 15  1  0  0  0
 15 16  1  0  0  0
 16 17  1  0  0  0
 17 18  1  0  0  0
  7  8  1  0  0  0
  8  9  2  0  0  0
 30 25  1  0  0  0
 24 19  1  0  0  0
  9  4  1  0  0  0
 18 13  1  0  0  0
M  END
> <minimizedAffinity>
7.75456

> <CNNscore>
0.5381094813

> <CNNaffinity>
7.9319596291

> <CNN_VS>
4.2682628632

> <CNNaffinity_variance>
0.8255016208

$$$$
[H]c1c([H])c([H])c(/C(=C(\c2c([H])c([H])c(OC(=O)C([H])([H])C([H])([H])C([H])([H])C([H])([H])C([H])([H])C([H])([H])C([H])([H])C([H])([H])C([H])([H])[H])c([H])c2[H])c2c([H])c([H])c(OC([H])([H])C([H])([H])N3C([H])([H])C([H])([H])C([H])([H])C([H])([H])C3([H])[H])c([H])c2[H])C([H])([H])[H])c([H])c1[H]


 42 45  0  0  0  0  0  0  0  0999 V2000
    9.1083   46.1070  130.1758 C   0  0  0  0  0  0  0  0  0  0  0  0
    8.4607   45.1338  129.5793 C   0  0  0  0  0  0  0  0  0  0  0  0
    7.2924   45.5103  128.6795 C   0  0  0  0  0  0  0  0  0  0  0  0
    8.8051   47.5286  130.0263 C   0  0  0  0  0  0  0  0  0  0  0  0
    9.3163   48.5110  130.8219 C   0  0  0  0  0  0  0  0  0  0  0  0
    9.0096   49.8576  130.5780 C   0  0  0  0  0  0  0  0  0  0  0  0
    8.1974   50.2687  129.5538 C   0  0  0  0  0  0  0  0  0  0  0  0
    7.6750   49.2475  128.7414 C   0  0  0  0  0  0  0  0  0  0  0  0
    7.9708   47.9306  128.9736 C   0  0  0  0  0  0  0  0  0  0  0  0
    7.8458   51.5495  129.2429 O   0  0  0  0  0  0  0  0  0  0  0  0
    6.6131   52.1741  129.1966 C   0  0  0  0  0  0  0  0  0  0  0  0
    6.3467   52.9954  127.9853 C   0  0  0  0  0  0  0  0  0  0  0  0
    7.4662   53.6167  127.3784 N   0  0  0  0  0  0  0  0  0  0  0  0
    7.2979   55.0279  127.2708 C   0  0  0  0  0  0  0  0  0  0  0  0
    6.6477   55.3687  125.9400 C   0  0  0  0  0  0  0  0  0  0  0  0
    7.4064   54.7590  124.7976 C   0  0  0  0  0  0  0  0  0  0  0  0
    7.6897   53.2824  124.9664 C   0  0  0  0  0  0  0  0  0  0  0  0
    8.1871   52.9743  126.3653 C   0  0  0  0  0  0  0  0  0  0  0  0
    8.8077   43.7199  129.6610 C   0  0  0  0  0  0  0  0  0  0  0  0
    8.2965   42.9743  130.7099 C   0  0  0  0  0  0  0  0  0  0  0  0
    8.5680   41.6172  130.7998 C   0  0  0  0  0  0  0  0  0  0  0  0
    9.3422   40.9627  129.8697 C   0  0  0  0  0  0  0  0  0  0  0  0
    9.8513   41.6911  128.8299 C   0  0  0  0  0  0  0  0  0  0  0  0
    9.5713   43.0548  128.7496 C   0  0  0  0  0  0  0  0  0  0  0  0
   12.2942   45.2779  132.7918 C   0  0  0  0  0  0  0  0  0  0  0  0
   12.5161   46.0753  131.6788 C   0  0  0  0  0  0  0  0  0  0  0  0
   11.4875   46.3287  130.8252 C   0  0  0  0  0  0  0  0  0  0  0  0
   10.2292   45.8006  131.0555 C   0  0  0  0  0  0  0  0  0  0  0  0
   10.0357   44.9980  132.1895 C   0  0  0  0  0  0  0  0  0  0  0  0
   11.0638   44.7363  133.0566 C   0  0  0  0  0  0  0  0  0  0  0  0
   13.3402   45.0315  133.6376 O   0  0  0  0  0  0  0  0  0  0  0  0
   13.8090   45.9463  134.5814 C   0  0  0  0  0  0  0  0  0  0  0  0
   14.4382   45.4915  135.5469 O   0  0  0  0  0  0  0  0  0  0  0  0
   13.4962   47.3659  134.3201 C   0  0  0  0  0  0  0  0  0  0  0  0
   12.4017   47.9052  135.1801 C   0  0  0  0  0  0  0  0  0  0  0  0
   11.1200   47.1228  135.1145 C   0  0  0  0  0  0  0  0  0  0  0  0
   10.0420   48.0704  134.6133 C   0  0  0  0  0  0  0  0  0  0  0  0
    8.6564   47.5380  134.8112 C   0  0  0  0  0  0  0  0  0  0  0  0
    7.8144   47.7992  133.6085 C   0  0  0  0  0  0  0  0  0  0  0  0
    7.4515   46.5510  132.8469 C   0  0  0  0  0  0  0  0  0  0  0  0
    6.7037   45.0685  134.7178 C   0  0  0  0  0  0  0  0  0  0  0  0
    7.7903   45.3275  133.6893 C   0  0  0  0  0  0  0  0  0  0  0  0
 41 42  1  0  0  0
 42 40  1  0  0  0
 40 39  1  0  0  0
 39 38  1  0  0  0
 38 37  1  0  0  0
 37 36  1  0  0  0
 36 35  1  0  0  0
 35 34  1  0  0  0
 34 32  1  0  0  0
 32 33  2  0  0  0
 32 31  1  0  0  0
 31 25  1  0  0  0
 25 26  2  0  0  0
 26 27  1  0  0  0
 27 28  2  0  0  0
 28 29  1  0  0  0
 29 30  2  0  0  0
 28  1  1  0  0  0
  1  2  2  0  0  0
  2  3  1  0  0  0
  2 19  1  0  0  0
 19 20  2  0  0  0
 20 21  1  0  0  0
 21 22  2  0  0  0
 22 23  1  0  0  0
 23 24  2  0  0  0
  1  4  1  0  0  0
  4  5  2  0  0  0
  5  6  1  0  0  0
  6  7  2  0  0  0
  7 10  1  0  0  0
 10 11  1  0  0  0
 11 12  1  0  0  0
 12 13  1  0  0  0
 13 14  1  0  0  0
 14 15  1  0  0  0
 15 16  1  0  0  0
 16 17  1  0  0  0
 17 18  1  0  0  0
  7  8  1  0  0  0
  8  9  2  0  0  0
 30 25  1  0  0  0
 24 19  1  0  0  0
  9  4  1  0  0  0
 18 13  1  0  0  0
M  END
> <minimizedAffinity>
16.94116

> <CNNscore>
0.4218958318

> <CNNaffinity>
7.6073408127

> <CNN_VS>
3.2095053196

> <CNNaffinity_variance>
0.4318925738

$$$$
[H]c1c([H])c([H])c(/C(=C(\c2c([H])c([H])c(OC(=O)C([H])([H])C([H])([H])C([H])([H])C([H])([H])C([H])([H])C([H])([H])C([H])([H])C([H])([H])C([H])([H])[H])c([H])c2[H])c2c([H])c([H])c(OC([H])([H])C([H])([H])N3C([H])([H])C([H])([H])C([H])([H])C([H])([H])C3([H])[H])c([H])c2[H])C([H])([H])[H])c([H])c1[H]


 42 45  0  0  0  0  0  0  0  0999 V2000
    9.3946   45.1860  131.3073 C   0  0  0  0  0  0  0  0  0  0  0  0
    9.4664   44.8495  132.5737 C   0  0  0  0  0  0  0  0  0  0  0  0
    9.7689   43.3945  132.9019 C   0  0  0  0  0  0  0  0  0  0  0  0
    9.6028   44.2726  130.1857 C   0  0  0  0  0  0  0  0  0  0  0  0
   10.2896   44.5919  129.0520 C   0  0  0  0  0  0  0  0  0  0  0  0
   10.4832   43.6374  128.0429 C   0  0  0  0  0  0  0  0  0  0  0  0
   10.0085   42.3544  128.1226 C   0  0  0  0  0  0  0  0  0  0  0  0
    9.3008   42.0370  129.2948 C   0  0  0  0  0  0  0  0  0  0  0  0
    9.1084   42.9641  130.2843 C   0  0  0  0  0  0  0  0  0  0  0  0
   10.1482   41.3640  127.1952 O   0  0  0  0  0  0  0  0  0  0  0  0
   10.4278   40.0166  127.3307 C   0  0  0  0  0  0  0  0  0  0  0  0
   11.1728   39.3919  126.2049 C   0  0  0  0  0  0  0  0  0  0  0  0
   10.4739   38.4292  125.4353 N   0  0  0  0  0  0  0  0  0  0  0  0
   11.1875   38.0724  124.2542 C   0  0  0  0  0  0  0  0  0  0  0  0
   10.7763   38.9834  123.1094 C   0  0  0  0  0  0  0  0  0  0  0  0
    9.2854   38.9942  122.9378 C   0  0  0  0  0  0  0  0  0  0  0  0
    8.5214   39.2560  124.2172 C   0  0  0  0  0  0  0  0  0  0  0  0
    9.0761   38.4369  125.3664 C   0  0  0  0  0  0  0  0  0  0  0  0
    9.3389   45.7713  133.6964 C   0  0  0  0  0  0  0  0  0  0  0  0
   10.4939   46.2600  134.2834 C   0  0  0  0  0  0  0  0  0  0  0  0
   10.4159   47.1716  135.3257 C   0  0  0  0  0  0  0  0  0  0  0  0
    9.2116   47.6230  135.8144 C   0  0  0  0  0  0  0  0  0  0  0  0
    8.0654   47.1458  135.2406 C   0  0  0  0  0  0  0  0  0  0  0  0
    8.1561   46.2300  134.1930 C   0  0  0  0  0  0  0  0  0  0  0  0
    8.5520   49.1915  130.3445 C   0  0  0  0  0  0  0  0  0  0  0  0
    7.5610   48.2323  130.1976 C   0  0  0  0  0  0  0  0  0  0  0  0
    7.8410   46.9344  130.4943 C   0  0  0  0  0  0  0  0  0  0  0  0
    9.0985   46.5645  130.9381 C   0  0  0  0  0  0  0  0  0  0  0  0
   10.0799   47.5571  131.0767 C   0  0  0  0  0  0  0  0  0  0  0  0
    9.8096   48.8674  130.7816 C   0  0  0  0  0  0  0  0  0  0  0  0
    8.2537   50.4907  130.0391 O   0  0  0  0  0  0  0  0  0  0  0  0
    7.0151   50.9102  129.5520 C   0  0  0  0  0  0  0  0  0  0  0  0
    6.0432   50.8088  130.3136 O   0  0  0  0  0  0  0  0  0  0  0  0
    7.0039   51.4300  128.1696 C   0  0  0  0  0  0  0  0  0  0  0  0
    6.9025   52.9172  128.0907 C   0  0  0  0  0  0  0  0  0  0  0  0
    7.5677   53.5203  126.8853 C   0  0  0  0  0  0  0  0  0  0  0  0
    7.0775   54.9550  126.7742 C   0  0  0  0  0  0  0  0  0  0  0  0
    6.8351   55.3830  125.3597 C   0  0  0  0  0  0  0  0  0  0  0  0
    5.3938   55.2399  125.0051 C   0  0  0  0  0  0  0  0  0  0  0  0
    5.1547   55.0455  123.5304 C   0  0  0  0  0  0  0  0  0  0  0  0
    3.9936   53.4608  121.9818 C   0  0  0  0  0  0  0  0  0  0  0  0
    3.9316   54.1598  123.3284 C   0  0  0  0  0  0  0  0  0  0  0  0
 41 42  1  0  0  0
 42 40  1  0  0  0
 40 39  1  0  0  0
 39 38  1  0  0  0
 38 37  1  0  0  0
 37 36  1  0  0  0
 36 35  1  0  0  0
 35 34  1  0  0  0
 34 32  1  0  0  0
 32 33  2  0  0  0
 32 31  1  0  0  0
 31 25  1  0  0  0
 25 26  2  0  0  0
 26 27  1  0  0  0
 27 28  2  0  0  0
 28 29  1  0  0  0
 29 30  2  0  0  0
 28  1  1  0  0  0
  1  2  2  0  0  0
  2  3  1  0  0  0
  2 19  1  0  0  0
 19 20  2  0  0  0
 20 21  1  0  0  0
 21 22  2  0  0  0
 22 23  1  0  0  0
 23 24  2  0  0  0
  1  4  1  0  0  0
  4  5  2  0  0  0
  5  6  1  0  0  0
  6  7  2  0  0  0
  7 10  1  0  0  0
 10 11  1  0  0  0
 11 12  1  0  0  0
 12 13  1  0  0  0
 13 14  1  0  0  0
 14 15  1  0  0  0
 15 16  1  0  0  0
 16 17  1  0  0  0
 17 18  1  0  0  0
  7  8  1  0  0  0
  8  9  2  0  0  0
 30 25  1  0  0  0
 24 19  1  0  0  0
  9  4  1  0  0  0
 18 13  1  0  0  0
M  END
> <minimizedAffinity>
11.07571

> <CNNscore>
0.3911224902

> <CNNaffinity>
7.5559716225

> <CNN_VS>
2.9553103447

> <CNNaffinity_variance>
0.5473600626

$$$$
[H]c1c([H])c([H])c(/C(=C(\c2c([H])c([H])c(OC(=O)C([H])([H])C([H])([H])C([H])([H])C([H])([H])C([H])([H])C([H])([H])C([H])([H])C([H])([H])C([H])([H])[H])c([H])c2[H])c2c([H])c([H])c(OC([H])([H])C([H])([H])N3C([H])([H])C([H])([H])C([H])([H])C([H])([H])C3([H])[H])c([H])c2[H])C([H])([H])[H])c([H])c1[H]


 42 45  0  0  0  0  0  0  0  0999 V2000
    7.9883   47.2197  130.0309 C   0  0  0  0  0  0  0  0  0  0  0  0
    8.0485   46.2239  129.1782 C   0  0  0  0  0  0  0  0  0  0  0  0
    7.8868   46.5490  127.7002 C   0  0  0  0  0  0  0  0  0  0  0  0
    7.7968   48.6221  129.6675 C   0  0  0  0  0  0  0  0  0  0  0  0
    8.8123   49.5113  129.4747 C   0  0  0  0  0  0  0  0  0  0  0  0
    8.5405   50.8294  129.0800 C   0  0  0  0  0  0  0  0  0  0  0  0
    7.2722   51.3027  128.8678 C   0  0  0  0  0  0  0  0  0  0  0  0
    6.2334   50.3778  129.0710 C   0  0  0  0  0  0  0  0  0  0  0  0
    6.4918   49.0892  129.4560 C   0  0  0  0  0  0  0  0  0  0  0  0
    6.9150   52.5622  128.4848 O   0  0  0  0  0  0  0  0  0  0  0  0
    6.8659   53.1602  127.2391 C   0  0  0  0  0  0  0  0  0  0  0  0
    5.6173   53.9057  126.9257 C   0  0  0  0  0  0  0  0  0  0  0  0
    5.7305   54.9806  126.0096 N   0  0  0  0  0  0  0  0  0  0  0  0
    4.6255   55.0322  125.1109 C   0  0  0  0  0  0  0  0  0  0  0  0
    4.9335   54.2123  123.8688 C   0  0  0  0  0  0  0  0  0  0  0  0
    6.2361   54.6337  123.2540 C   0  0  0  0  0  0  0  0  0  0  0  0
    7.3873   54.6940  124.2340 C   0  0  0  0  0  0  0  0  0  0  0  0
    6.9783   55.3840  125.5208 C   0  0  0  0  0  0  0  0  0  0  0  0
    8.3188   44.8342  129.5273 C   0  0  0  0  0  0  0  0  0  0  0  0
    9.3735   44.1900  128.9028 C   0  0  0  0  0  0  0  0  0  0  0  0
    9.6900   42.8819  129.2377 C   0  0  0  0  0  0  0  0  0  0  0  0
    8.9848   42.1785  130.1867 C   0  0  0  0  0  0  0  0  0  0  0  0
    7.9413   42.8068  130.8091 C   0  0  0  0  0  0  0  0  0  0  0  0
    7.6326   44.1223  130.4645 C   0  0  0  0  0  0  0  0  0  0  0  0
    8.2947   46.5197  134.1658 C   0  0  0  0  0  0  0  0  0  0  0  0
    9.1576   47.4219  133.5615 C   0  0  0  0  0  0  0  0  0  0  0  0
    9.0672   47.6344  132.2208 C   0  0  0  0  0  0  0  0  0  0  0  0
    8.1279   46.9621  131.4586 C   0  0  0  0  0  0  0  0  0  0  0  0
    7.2691   46.0560  132.0982 C   0  0  0  0  0  0  0  0  0  0  0  0
    7.3503   45.8341  133.4478 C   0  0  0  0  0  0  0  0  0  0  0  0
    8.4016   46.3166  135.5139 O   0  0  0  0  0  0  0  0  0  0  0  0
    9.5702   45.8891  136.1455 C   0  0  0  0  0  0  0  0  0  0  0  0
   10.1065   46.6766  136.9374 O   0  0  0  0  0  0  0  0  0  0  0  0
   10.0402   44.5342  135.7922 C   0  0  0  0  0  0  0  0  0  0  0  0
   11.1805   44.5290  134.8289 C   0  0  0  0  0  0  0  0  0  0  0  0
   11.5781   43.1618  134.3472 C   0  0  0  0  0  0  0  0  0  0  0  0
   11.0861   43.0310  132.9148 C   0  0  0  0  0  0  0  0  0  0  0  0
   11.5575   44.1434  132.0300 C   0  0  0  0  0  0  0  0  0  0  0  0
   12.5846   43.6521  131.0670 C   0  0  0  0  0  0  0  0  0  0  0  0
   12.7339   44.5273  129.8498 C   0  0  0  0  0  0  0  0  0  0  0  0
   15.0617   44.6984  128.9501 C   0  0  0  0  0  0  0  0  0  0  0  0
   13.7625   43.9136  128.9082 C   0  0  0  0  0  0  0  0  0  0  0  0
 41 42  1  0  0  0
 42 40  1  0  0  0
 40 39  1  0  0  0
 39 38  1  0  0  0
 38 37  1  0  0  0
 37 36  1  0  0  0
 36 35  1  0  0  0
 35 34  1  0  0  0
 34 32  1  0  0  0
 32 33  2  0  0  0
 32 31  1  0  0  0
 31 25  1  0  0  0
 25 26  2  0  0  0
 26 27  1  0  0  0
 27 28  2  0  0  0
 28 29  1  0  0  0
 29 30  2  0  0  0
 28  1  1  0  0  0
  1  2  2  0  0  0
  2  3  1  0  0  0
  2 19  1  0  0  0
 19 20  2  0  0  0
 20 21  1  0  0  0
 21 22  2  0  0  0
 22 23  1  0  0  0
 23 24  2  0  0  0
  1  4  1  0  0  0
  4  5  2  0  0  0
  5  6  1  0  0  0
  6  7  2  0  0  0
  7 10  1  0  0  0
 10 11  1  0  0  0
 11 12  1  0  0  0
 12 13  1  0  0  0
 13 14  1  0  0  0
 14 15  1  0  0  0
 15 16  1  0  0  0
 16 17  1  0  0  0
 17 18  1  0  0  0
  7  8  1  0  0  0
  8  9  2  0  0  0
 30 25  1  0  0  0
 24 19  1  0  0  0
  9  4  1  0  0  0
 18 13  1  0  0  0
M  END
> <minimizedAffinity>
6.55361

> <CNNscore>
0.3774335086

> <CNNaffinity>
7.6998124123

> <CNN_VS>
2.9061672688

> <CNNaffinity_variance>
0.3236394525

$$$$
[H]c1c([H])c([H])c(/C(=C(\c2c([H])c([H])c(OC(=O)C([H])([H])C([H])([H])C([H])([H])C([H])([H])C([H])([H])C([H])([H])C([H])([H])C([H])([H])C([H])([H])[H])c([H])c2[H])c2c([H])c([H])c(OC([H])([H])C([H])([H])N3C([H])([H])C([H])([H])C([H])([H])C([H])([H])C3([H])[H])c([H])c2[H])C([H])([H])[H])c([H])c1[H]


 42 45  0  0  0  0  0  0  0  0999 V2000
    9.1328   46.1938  129.3477 C   0  0  0  0  0  0  0  0  0  0  0  0
    9.3085   45.5869  128.1976 C   0  0  0  0  0  0  0  0  0  0  0  0
    8.8373   46.3046  126.9409 C   0  0  0  0  0  0  0  0  0  0  0  0
    8.5359   47.5174  129.5127 C   0  0  0  0  0  0  0  0  0  0  0  0
    7.6443   47.8415  130.4922 C   0  0  0  0  0  0  0  0  0  0  0  0
    7.1563   49.1513  130.6070 C   0  0  0  0  0  0  0  0  0  0  0  0
    7.5292   50.1675  129.7668 C   0  0  0  0  0  0  0  0  0  0  0  0
    8.4472   49.8215  128.7602 C   0  0  0  0  0  0  0  0  0  0  0  0
    8.9282   48.5446  128.6426 C   0  0  0  0  0  0  0  0  0  0  0  0
    7.1084   51.4644  129.8031 O   0  0  0  0  0  0  0  0  0  0  0  0
    5.9173   52.0509  129.4168 C   0  0  0  0  0  0  0  0  0  0  0  0
    6.0195   53.0924  128.3596 C   0  0  0  0  0  0  0  0  0  0  0  0
    7.2843   53.2492  127.7405 N   0  0  0  0  0  0  0  0  0  0  0  0
    7.7764   54.5810  127.8657 C   0  0  0  0  0  0  0  0  0  0  0  0
    7.3220   55.4116  126.6769 C   0  0  0  0  0  0  0  0  0  0  0  0
    7.6909   54.7473  125.3826 C   0  0  0  0  0  0  0  0  0  0  0  0
    7.2727   53.2959  125.2956 C   0  0  0  0  0  0  0  0  0  0  0  0
    7.6078   52.5496  126.5723 C   0  0  0  0  0  0  0  0  0  0  0  0
    9.9752   44.3024  128.0187 C   0  0  0  0  0  0  0  0  0  0  0  0
    9.2270   43.1455  128.1573 C   0  0  0  0  0  0  0  0  0  0  0  0
    9.8137   41.9055  127.9533 C   0  0  0  0  0  0  0  0  0  0  0  0
   11.1393   41.7707  127.6107 C   0  0  0  0  0  0  0  0  0  0  0  0
   11.8862   42.9080  127.4713 C   0  0  0  0  0  0  0  0  0  0  0  0
   11.2855   44.1493  127.6785 C   0  0  0  0  0  0  0  0  0  0  0  0
   10.2876   44.3848  132.9637 C   0  0  0  0  0  0  0  0  0  0  0  0
   11.1923   45.1862  132.2832 C   0  0  0  0  0  0  0  0  0  0  0  0
   10.8217   45.7572  131.1053 C   0  0  0  0  0  0  0  0  0  0  0  0
    9.5578   45.5465  130.5825 C   0  0  0  0  0  0  0  0  0  0  0  0
    8.6649   44.7312  131.2937 C   0  0  0  0  0  0  0  0  0  0  0  0
    9.0266   44.1512  132.4811 C   0  0  0  0  0  0  0  0  0  0  0  0
   10.6781   43.8168  134.1448 O   0  0  0  0  0  0  0  0  0  0  0  0
   10.8362   44.5282  135.3349 C   0  0  0  0  0  0  0  0  0  0  0  0
   10.9091   43.8707  136.3823 O   0  0  0  0  0  0  0  0  0  0  0  0
   10.8969   45.9985  135.2086 C   0  0  0  0  0  0  0  0  0  0  0  0
    9.6961   46.6958  135.7564 C   0  0  0  0  0  0  0  0  0  0  0  0
    8.3853   46.1622  135.2500 C   0  0  0  0  0  0  0  0  0  0  0  0
    7.8852   47.1330  134.1924 C   0  0  0  0  0  0  0  0  0  0  0  0
    8.9934   47.7772  133.4181 C   0  0  0  0  0  0  0  0  0  0  0  0
    8.6466   49.1861  133.0743 C   0  0  0  0  0  0  0  0  0  0  0  0
    9.8482   50.0857  132.9444 C   0  0  0  0  0  0  0  0  0  0  0  0
   10.8892   49.4115  130.7721 C   0  0  0  0  0  0  0  0  0  0  0  0
   10.9865   49.3177  132.2845 C   0  0  0  0  0  0  0  0  0  0  0  0
 41 42  1  0  0  0
 42 40  1  0  0  0
 40 39  1  0  0  0
 39 38  1  0  0  0
 38 37  1  0  0  0
 37 36  1  0  0  0
 36 35  1  0  0  0
 35 34  1  0  0  0
 34 32  1  0  0  0
 32 33  2  0  0  0
 32 31  1  0  0  0
 31 25  1  0  0  0
 25 26  2  0  0  0
 26 27  1  0  0  0
 27 28  2  0  0  0
 28 29  1  0  0  0
 29 30  2  0  0  0
 28  1  1  0  0  0
  1  2  2  0  0  0
  2  3  1  0  0  0
  2 19  1  0  0  0
 19 20  2  0  0  0
 20 21  1  0  0  0
 21 22  2  0  0  0
 22 23  1  0  0  0
 23 24  2  0  0  0
  1  4  1  0  0  0
  4  5  2  0  0  0
  5  6  1  0  0  0
  6  7  2  0  0  0
  7 10  1  0  0  0
 10 11  1  0  0  0
 11 12  1  0  0  0
 12 13  1  0  0  0
 13 14  1  0  0  0
 14 15  1  0  0  0
 15 16  1  0  0  0
 16 17  1  0  0  0
 17 18  1  0  0  0
  7  8  1  0  0  0
  8  9  2  0  0  0
 30 25  1  0  0  0
 24 19  1  0  0  0
  9  4  1  0  0  0
 18 13  1  0  0  0
M  END
> <minimizedAffinity>
18.52105

> <CNNscore>
0.3640697300

> <CNNaffinity>
7.6233358383

> <CNN_VS>
2.7754259109

> <CNNaffinity_variance>
0.4143829942

$$$$
[H]c1c([H])c([H])c(/C(=C(\c2c([H])c([H])c(OC(=O)C([H])([H])C([H])([H])C([H])([H])C([H])([H])C([H])([H])C([H])([H])C([H])([H])C([H])([H])C([H])([H])[H])c([H])c2[H])c2c([H])c([H])c(OC([H])([H])C([H])([H])N3C([H])([H])C([H])([H])C([H])([H])C([H])([H])C3([H])[H])c([H])c2[H])C([H])([H])[H])c([H])c1[H]


 42 45  0  0  0  0  0  0  0  0999 V2000
    8.2389   44.9057  130.5130 C   0  0  0  0  0  0  0  0  0  0  0  0
    8.9193   44.0076  129.8403 C   0  0  0  0  0  0  0  0  0  0  0  0
    8.7020   43.9382  128.3354 C   0  0  0  0  0  0  0  0  0  0  0  0
    7.3012   45.8592  129.9240 C   0  0  0  0  0  0  0  0  0  0  0  0
    6.0126   46.0252  130.3379 C   0  0  0  0  0  0  0  0  0  0  0  0
    5.1939   46.9987  129.7472 C   0  0  0  0  0  0  0  0  0  0  0  0
    5.6185   47.8265  128.7411 C   0  0  0  0  0  0  0  0  0  0  0  0
    6.9478   47.6452  128.3215 C   0  0  0  0  0  0  0  0  0  0  0  0
    7.7529   46.6968  128.8943 C   0  0  0  0  0  0  0  0  0  0  0  0
    4.8960   48.7964  128.1106 O   0  0  0  0  0  0  0  0  0  0  0  0
    4.5330   50.0703  128.5073 C   0  0  0  0  0  0  0  0  0  0  0  0
    4.7175   50.3778  129.9510 C   0  0  0  0  0  0  0  0  0  0  0  0
    5.9308   51.0112  130.3170 N   0  0  0  0  0  0  0  0  0  0  0  0
    6.5806   51.6043  129.1956 C   0  0  0  0  0  0  0  0  0  0  0  0
    7.5339   50.6031  128.5642 C   0  0  0  0  0  0  0  0  0  0  0  0
    8.4787   50.0403  129.5855 C   0  0  0  0  0  0  0  0  0  0  0  0
    7.7972   49.5171  130.8309 C   0  0  0  0  0  0  0  0  0  0  0  0
    6.7426   50.4861  131.3289 C   0  0  0  0  0  0  0  0  0  0  0  0
    9.9150   43.1074  130.4100 C   0  0  0  0  0  0  0  0  0  0  0  0
   11.1802   43.6046  130.6736 C   0  0  0  0  0  0  0  0  0  0  0  0
   12.1428   42.7927  131.2547 C   0  0  0  0  0  0  0  0  0  0  0  0
   11.8898   41.4824  131.5893 C   0  0  0  0  0  0  0  0  0  0  0  0
   10.6426   40.9826  131.3329 C   0  0  0  0  0  0  0  0  0  0  0  0
    9.6828   41.8084  130.7487 C   0  0  0  0  0  0  0  0  0  0  0  0
    8.7983   45.2618  134.6653 C   0  0  0  0  0  0  0  0  0  0  0  0
    8.9339   44.0196  134.0635 C   0  0  0  0  0  0  0  0  0  0  0  0
    8.7364   43.9041  132.7224 C   0  0  0  0  0  0  0  0  0  0  0  0
    8.4027   45.0082  131.9576 C   0  0  0  0  0  0  0  0  0  0  0  0
    8.2728   46.2511  132.5948 C   0  0  0  0  0  0  0  0  0  0  0  0
    8.4698   46.3799  133.9445 C   0  0  0  0  0  0  0  0  0  0  0  0
    8.9978   45.3589  136.0148 O   0  0  0  0  0  0  0  0  0  0  0  0
   10.0935   44.8078  136.6803 C   0  0  0  0  0  0  0  0  0  0  0  0
   10.3327   45.2273  137.8212 O   0  0  0  0  0  0  0  0  0  0  0  0
   10.8517   43.7788  135.9402 C   0  0  0  0  0  0  0  0  0  0  0  0
   12.0977   44.2973  135.3024 C   0  0  0  0  0  0  0  0  0  0  0  0
   11.9122   45.5709  134.5260 C   0  0  0  0  0  0  0  0  0  0  0  0
   12.9585   45.5796  133.4231 C   0  0  0  0  0  0  0  0  0  0  0  0
   12.4041   45.9881  132.0933 C   0  0  0  0  0  0  0  0  0  0  0  0
   11.0904   46.6742  132.2580 C   0  0  0  0  0  0  0  0  0  0  0  0
   10.7889   47.6646  131.1634 C   0  0  0  0  0  0  0  0  0  0  0  0
   10.1967   49.1168  133.1122 C   0  0  0  0  0  0  0  0  0  0  0  0
   10.8308   49.0770  131.7330 C   0  0  0  0  0  0  0  0  0  0  0  0
 41 42  1  0  0  0
 42 40  1  0  0  0
 40 39  1  0  0  0
 39 38  1  0  0  0
 38 37  1  0  0  0
 37 36  1  0  0  0
 36 35  1  0  0  0
 35 34  1  0  0  0
 34 32  1  0  0  0
 32 33  2  0  0  0
 32 31  1  0  0  0
 31 25  1  0  0  0
 25 26  2  0  0  0
 26 27  1  0  0  0
 27 28  2  0  0  0
 28 29  1  0  0  0
 29 30  2  0  0  0
 28  1  1  0  0  0
  1  2  2  0  0  0
  2  3  1  0  0  0
  2 19  1  0  0  0
 19 20  2  0  0  0
 20 21  1  0  0  0
 21 22  2  0  0  0
 22 23  1  0  0  0
 23 24  2  0  0  0
  1  4  1  0  0  0
  4  5  2  0  0  0
  5  6  1  0  0  0
  6  7  2  0  0  0
  7 10  1  0  0  0
 10 11  1  0  0  0
 11 12  1  0  0  0
 12 13  1  0  0  0
 13 14  1  0  0  0
 14 15  1  0  0  0
 15 16  1  0  0  0
 16 17  1  0  0  0
 17 18  1  0  0  0
  7  8  1  0  0  0
  8  9  2  0  0  0
 30 25  1  0  0  0
 24 19  1  0  0  0
  9  4  1  0  0  0
 18 13  1  0  0  0
M  END
> <minimizedAffinity>
9.27327

> <CNNscore>
0.2448482960

> <CNNaffinity>
8.1351556778

> <CNN_VS>
1.9918789864

> <CNNaffinity_variance>
0.3988279700

$$$$
[H]c1c([H])c([H])c(/C(=C(\c2c([H])c([H])c(OC(=O)C([H])([H])C([H])([H])C([H])([H])C([H])([H])C([H])([H])C([H])([H])C([H])([H])C([H])([H])C([H])([H])[H])c([H])c2[H])c2c([H])c([H])c(OC([H])([H])C([H])([H])N3C([H])([H])C([H])([H])C([H])([H])C([H])([H])C3([H])[H])c([H])c2[H])C([H])([H])[H])c([H])c1[H]


 42 45  0  0  0  0  0  0  0  0999 V2000
    8.6058   47.4296  129.5527 C   0  0  0  0  0  0  0  0  0  0  0  0
    7.7715   48.1131  128.8050 C   0  0  0  0  0  0  0  0  0  0  0  0
    7.8200   47.8835  127.3013 C   0  0  0  0  0  0  0  0  0  0  0  0
    9.5664   46.4485  129.0526 C   0  0  0  0  0  0  0  0  0  0  0  0
    9.2410   45.1813  128.6686 C   0  0  0  0  0  0  0  0  0  0  0  0
   10.2199   44.3186  128.1544 C   0  0  0  0  0  0  0  0  0  0  0  0
   11.5341   44.6776  128.0072 C   0  0  0  0  0  0  0  0  0  0  0  0
   11.8582   45.9854  128.4077 C   0  0  0  0  0  0  0  0  0  0  0  0
   10.9072   46.8332  128.9102 C   0  0  0  0  0  0  0  0  0  0  0  0
   12.5497   43.9089  127.5191 O   0  0  0  0  0  0  0  0  0  0  0  0
   13.7844   43.5812  128.0480 C   0  0  0  0  0  0  0  0  0  0  0  0
   14.3349   44.5332  129.0498 C   0  0  0  0  0  0  0  0  0  0  0  0
   14.0571   44.2559  130.4112 N   0  0  0  0  0  0  0  0  0  0  0  0
   13.2241   43.1092  130.5613 C   0  0  0  0  0  0  0  0  0  0  0  0
   11.7638   43.5305  130.5632 C   0  0  0  0  0  0  0  0  0  0  0  0
   11.5129   44.6009  131.5848 C   0  0  0  0  0  0  0  0  0  0  0  0
   12.4737   45.7667  131.5022 C   0  0  0  0  0  0  0  0  0  0  0  0
   13.9042   45.2900  131.3418 C   0  0  0  0  0  0  0  0  0  0  0  0
    6.7568   49.0337  129.3042 C   0  0  0  0  0  0  0  0  0  0  0  0
    5.4243   48.6785  129.1788 C   0  0  0  0  0  0  0  0  0  0  0  0
    4.4305   49.5066  129.6790 C   0  0  0  0  0  0  0  0  0  0  0  0
    4.7173   50.6950  130.3100 C   0  0  0  0  0  0  0  0  0  0  0  0
    6.0308   51.0540  130.4388 C   0  0  0  0  0  0  0  0  0  0  0  0
    7.0214   50.2133  129.9324 C   0  0  0  0  0  0  0  0  0  0  0  0
    8.5029   47.9787  133.7203 C   0  0  0  0  0  0  0  0  0  0  0  0
    9.0613   48.9618  132.9170 C   0  0  0  0  0  0  0  0  0  0  0  0
    9.1081   48.7745  131.5703 C   0  0  0  0  0  0  0  0  0  0  0  0
    8.6071   47.6184  130.9979 C   0  0  0  0  0  0  0  0  0  0  0  0
    8.0484   46.6424  131.8363 C   0  0  0  0  0  0  0  0  0  0  0  0
    7.9952   46.8200  133.1938 C   0  0  0  0  0  0  0  0  0  0  0  0
    8.4667   48.1826  135.0721 O   0  0  0  0  0  0  0  0  0  0  0  0
    8.9801   47.2838  136.0079 C   0  0  0  0  0  0  0  0  0  0  0  0
    9.3988   47.7545  137.0747 O   0  0  0  0  0  0  0  0  0  0  0  0
    8.9677   45.8601  135.6148 C   0  0  0  0  0  0  0  0  0  0  0  0
   10.2839   45.1790  135.7934 C   0  0  0  0  0  0  0  0  0  0  0  0
   11.0977   45.0641  134.5349 C   0  0  0  0  0  0  0  0  0  0  0  0
   11.4399   43.5938  134.3555 C   0  0  0  0  0  0  0  0  0  0  0  0
   10.2366   42.7033  134.3969 C   0  0  0  0  0  0  0  0  0  0  0  0
    9.6923   42.4883  133.0254 C   0  0  0  0  0  0  0  0  0  0  0  0
    8.4910   43.3431  132.7153 C   0  0  0  0  0  0  0  0  0  0  0  0
    8.9439   42.1234  130.5788 C   0  0  0  0  0  0  0  0  0  0  0  0
    7.9386   42.9627  131.3473 C   0  0  0  0  0  0  0  0  0  0  0  0
 41 42  1  0  0  0
 42 40  1  0  0  0
 40 39  1  0  0  0
 39 38  1  0  0  0
 38 37  1  0  0  0
 37 36  1  0  0  0
 36 35  1  0  0  0
 35 34  1  0  0  0
 34 32  1  0  0  0
 32 33  2  0  0  0
 32 31  1  0  0  0
 31 25  1  0  0  0
 25 26  2  0  0  0
 26 27  1  0  0  0
 27 28  2  0  0  0
 28 29  1  0  0  0
 29 30  2  0  0  0
 28  1  1  0  0  0
  1  2  2  0  0  0
  2  3  1  0  0  0
  2 19  1  0  0  0
 19 20  2  0  0  0
 20 21  1  0  0  0
 21 22  2  0  0  0
 22 23  1  0  0  0
 23 24  2  0  0  0
  1  4  1  0  0  0
  4  5  2  0  0  0
  5  6  1  0  0  0
  6  7  2  0  0  0
  7 10  1  0  0  0
 10 11  1  0  0  0
 11 12  1  0  0  0
 12 13  1  0  0  0
 13 14  1  0  0  0
 14 15  1  0  0  0
 15 16  1  0  0  0
 16 17  1  0  0  0
 17 18  1  0  0  0
  7  8  1  0  0  0
  8  9  2  0  0  0
 30 25  1  0  0  0
 24 19  1  0  0  0
  9  4  1  0  0  0
 18 13  1  0  0  0
M  END
> <minimizedAffinity>
11.21640

> <CNNscore>
0.2394965887

> <CNNaffinity>
7.9525194168

> <CNN_VS>
1.9046012163

> <CNNaffinity_variance>
0.3171292841

$$$$
[H]c1c([H])c([H])c(/C(=C(\c2c([H])c([H])c(OC(=O)C([H])([H])C([H])([H])C([H])([H])C([H])([H])C([H])([H])C([H])([H])C([H])([H])C([H])([H])C([H])([H])[H])c([H])c2[H])c2c([H])c([H])c(OC([H])([H])C([H])([H])N3C([H])([H])C([H])([H])C([H])([H])C([H])([H])C3([H])[H])c([H])c2[H])C([H])([H])[H])c([H])c1[H]


 42 45  0  0  0  0  0  0  0  0999 V2000
    8.1548   46.8592  130.2701 C   0  0  0  0  0  0  0  0  0  0  0  0
    8.5141   45.8916  129.4595 C   0  0  0  0  0  0  0  0  0  0  0  0
    8.0077   45.9471  128.0253 C   0  0  0  0  0  0  0  0  0  0  0  0
    7.3201   47.9984  129.8950 C   0  0  0  0  0  0  0  0  0  0  0  0
    7.7136   49.3010  129.9819 C   0  0  0  0  0  0  0  0  0  0  0  0
    6.8647   50.3323  129.5547 C   0  0  0  0  0  0  0  0  0  0  0  0
    5.6159   50.1100  129.0361 C   0  0  0  0  0  0  0  0  0  0  0  0
    5.2203   48.7638  128.9527 C   0  0  0  0  0  0  0  0  0  0  0  0
    6.0444   47.7518  129.3677 C   0  0  0  0  0  0  0  0  0  0  0  0
    4.7262   51.0462  128.5975 O   0  0  0  0  0  0  0  0  0  0  0  0
    3.4345   50.9271  128.1187 C   0  0  0  0  0  0  0  0  0  0  0  0
    2.6443   52.1862  128.0626 C   0  0  0  0  0  0  0  0  0  0  0  0
    1.8119   52.3654  126.9301 N   0  0  0  0  0  0  0  0  0  0  0  0
    0.4354   52.1729  127.2460 C   0  0  0  0  0  0  0  0  0  0  0  0
    0.0580   50.7158  127.0354 C   0  0  0  0  0  0  0  0  0  0  0  0
    0.4349   50.2549  125.6578 C   0  0  0  0  0  0  0  0  0  0  0  0
    1.8655   50.5655  125.2758 C   0  0  0  0  0  0  0  0  0  0  0  0
    2.2394   51.9858  125.6527 C   0  0  0  0  0  0  0  0  0  0  0  0
    9.4112   44.7954  129.8055 C   0  0  0  0  0  0  0  0  0  0  0  0
    8.8615   43.5549  130.0820 C   0  0  0  0  0  0  0  0  0  0  0  0
    9.6829   42.4761  130.3736 C   0  0  0  0  0  0  0  0  0  0  0  0
   11.0540   42.5867  130.4008 C   0  0  0  0  0  0  0  0  0  0  0  0
   11.6060   43.8083  130.1287 C   0  0  0  0  0  0  0  0  0  0  0  0
   10.7702   44.8856  129.8365 C   0  0  0  0  0  0  0  0  0  0  0  0
    9.3524   46.8505  134.3009 C   0  0  0  0  0  0  0  0  0  0  0  0
    9.8220   47.8422  133.4526 C   0  0  0  0  0  0  0  0  0  0  0  0
    9.4460   47.8334  132.1451 C   0  0  0  0  0  0  0  0  0  0  0  0
    8.6046   46.8493  131.6564 C   0  0  0  0  0  0  0  0  0  0  0  0
    8.1461   45.8598  132.5387 C   0  0  0  0  0  0  0  0  0  0  0  0
    8.5175   45.8586  133.8575 C   0  0  0  0  0  0  0  0  0  0  0  0
    9.7427   46.8733  135.6113 O   0  0  0  0  0  0  0  0  0  0  0  0
    9.9651   45.7277  136.3764 C   0  0  0  0  0  0  0  0  0  0  0  0
    9.8027   45.8241  137.6008 O   0  0  0  0  0  0  0  0  0  0  0  0
   10.3749   44.5198  135.6318 C   0  0  0  0  0  0  0  0  0  0  0  0
   11.7974   44.5496  135.1802 C   0  0  0  0  0  0  0  0  0  0  0  0
   12.6135   43.3685  135.6254 C   0  0  0  0  0  0  0  0  0  0  0  0
   12.1732   43.0276  137.0400 C   0  0  0  0  0  0  0  0  0  0  0  0
   13.2219   42.2956  137.8192 C   0  0  0  0  0  0  0  0  0  0  0  0
   14.5647   42.4785  137.1971 C   0  0  0  0  0  0  0  0  0  0  0  0
   15.7050   42.2854  138.1626 C   0  0  0  0  0  0  0  0  0  0  0  0
   17.3390   40.4171  137.8508 C   0  0  0  0  0  0  0  0  0  0  0  0
   15.9579   40.7954  138.3558 C   0  0  0  0  0  0  0  0  0  0  0  0
 41 42  1  0  0  0
 42 40  1  0  0  0
 40 39  1  0  0  0
 39 38  1  0  0  0
 38 37  1  0  0  0
 37 36  1  0  0  0
 36 35  1  0  0  0
 35 34  1  0  0  0
 34 32  1  0  0  0
 32 33  2  0  0  0
 32 31  1  0  0  0
 31 25  1  0  0  0
 25 26  2  0  0  0
 26 27  1  0  0  0
 27 28  2  0  0  0
 28 29  1  0  0  0
 29 30  2  0  0  0
 28  1  1  0  0  0
  1  2  2  0  0  0
  2  3  1  0  0  0
  2 19  1  0  0  0
 19 20  2  0  0  0
 20 21  1  0  0  0
 21 22  2  0  0  0
 22 23  1  0  0  0
 23 24  2  0  0  0
  1  4  1  0  0  0
  4  5  2  0  0  0
  5  6  1  0  0  0
  6  7  2  0  0  0
  7 10  1  0  0  0
 10 11  1  0  0  0
 11 12  1  0  0  0
 12 13  1  0  0  0
 13 14  1  0  0  0
 14 15  1  0  0  0
 15 16  1  0  0  0
 16 17  1  0  0  0
 17 18  1  0  0  0
  7  8  1  0  0  0
  8  9  2  0  0  0
 30 25  1  0  0  0
 24 19  1  0  0  0
  9  4  1  0  0  0
 18 13  1  0  0  0
M  END
> <minimizedAffinity>
20.30680

> <CNNscore>
0.2326261550

> <CNNaffinity>
7.6176710129

> <CNN_VS>
1.7720695734

> <CNNaffinity_variance>
0.1701069772

$$$$
[H]c1c([H])c([H])c(/C(=C(\c2c([H])c([H])c(OC(=O)C([H])([H])C([H])([H])C([H])([H])C([H])([H])C([H])([H])C([H])([H])C([H])([H])C([H])([H])C([H])([H])[H])c([H])c2[H])c2c([H])c([H])c(OC([H])([H])C([H])([H])N3C([H])([H])C([H])([H])C([H])([H])C([H])([H])C3([H])[H])c([H])c2[H])C([H])([H])[H])c([H])c1[H]


 42 45  0  0  0  0  0  0  0  0999 V2000
    9.1144   44.0517  131.0212 C   0  0  0  0  0  0  0  0  0  0  0  0
    9.3677   43.8914  132.2988 C   0  0  0  0  0  0  0  0  0  0  0  0
   10.0315   42.5912  132.7295 C   0  0  0  0  0  0  0  0  0  0  0  0
    9.4392   43.0837  129.9758 C   0  0  0  0  0  0  0  0  0  0  0  0
    9.5929   41.7457  130.1886 C   0  0  0  0  0  0  0  0  0  0  0  0
    9.8580   40.8794  129.1180 C   0  0  0  0  0  0  0  0  0  0  0  0
    9.9789   41.3044  127.8209 C   0  0  0  0  0  0  0  0  0  0  0  0
    9.8202   42.6856  127.6138 C   0  0  0  0  0  0  0  0  0  0  0  0
    9.5608   43.5371  128.6546 C   0  0  0  0  0  0  0  0  0  0  0  0
   10.2344   40.5379  126.7220 O   0  0  0  0  0  0  0  0  0  0  0  0
    9.9941   39.2010  126.4632 C   0  0  0  0  0  0  0  0  0  0  0  0
   10.1812   38.7692  125.0520 C   0  0  0  0  0  0  0  0  0  0  0  0
   11.5033   38.4525  124.6530 N   0  0  0  0  0  0  0  0  0  0  0  0
   11.9576   37.2342  125.2368 C   0  0  0  0  0  0  0  0  0  0  0  0
   12.6466   37.5231  126.5603 C   0  0  0  0  0  0  0  0  0  0  0  0
   13.7236   38.5549  126.3934 C   0  0  0  0  0  0  0  0  0  0  0  0
   13.2719   39.8029  125.6669 C   0  0  0  0  0  0  0  0  0  0  0  0
   12.4529   39.4579  124.4384 C   0  0  0  0  0  0  0  0  0  0  0  0
    9.1191   44.8858  133.3359 C   0  0  0  0  0  0  0  0  0  0  0  0
    7.8317   45.3723  133.4887 C   0  0  0  0  0  0  0  0  0  0  0  0
    7.5451   46.2872  134.4909 C   0  0  0  0  0  0  0  0  0  0  0  0
    8.5073   46.7441  135.3616 C   0  0  0  0  0  0  0  0  0  0  0  0
    9.7819   46.2689  135.2184 C   0  0  0  0  0  0  0  0  0  0  0  0
   10.0582   45.3490  134.2074 C   0  0  0  0  0  0  0  0  0  0  0  0
    7.3279   47.6362  129.7401 C   0  0  0  0  0  0  0  0  0  0  0  0
    6.5975   46.7512  130.5192 C   0  0  0  0  0  0  0  0  0  0  0  0
    7.1724   45.5846  130.9187 C   0  0  0  0  0  0  0  0  0  0  0  0
    8.4715   45.2745  130.5566 C   0  0  0  0  0  0  0  0  0  0  0  0
    9.1848   46.1895  129.7682 C   0  0  0  0  0  0  0  0  0  0  0  0
    8.6167   47.3676  129.3602 C   0  0  0  0  0  0  0  0  0  0  0  0
    6.7333   48.8027  129.3452 O   0  0  0  0  0  0  0  0  0  0  0  0
    7.1005   50.0622  129.8207 C   0  0  0  0  0  0  0  0  0  0  0  0
    6.9155   51.0280  129.0671 O   0  0  0  0  0  0  0  0  0  0  0  0
    7.6755   50.1000  131.1806 C   0  0  0  0  0  0  0  0  0  0  0  0
    9.1671   50.1552  131.1978 C   0  0  0  0  0  0  0  0  0  0  0  0
    9.7924   49.6132  132.4527 C   0  0  0  0  0  0  0  0  0  0  0  0
   10.0179   48.1258  132.2344 C   0  0  0  0  0  0  0  0  0  0  0  0
   11.4653   47.7425  132.2637 C   0  0  0  0  0  0  0  0  0  0  0  0
   11.7180   46.5690  131.3791 C   0  0  0  0  0  0  0  0  0  0  0  0
   12.4169   45.4309  132.0763 C   0  0  0  0  0  0  0  0  0  0  0  0
   12.3954   44.6516  129.6994 C   0  0  0  0  0  0  0  0  0  0  0  0
   13.0986   44.5451  131.0410 C   0  0  0  0  0  0  0  0  0  0  0  0
 41 42  1  0  0  0
 42 40  1  0  0  0
 40 39  1  0  0  0
 39 38  1  0  0  0
 38 37  1  0  0  0
 37 36  1  0  0  0
 36 35  1  0  0  0
 35 34  1  0  0  0
 34 32  1  0  0  0
 32 33  2  0  0  0
 32 31  1  0  0  0
 31 25  1  0  0  0
 25 26  2  0  0  0
 26 27  1  0  0  0
 27 28  2  0  0  0
 28 29  1  0  0  0
 29 30  2  0  0  0
 28  1  1  0  0  0
  1  2  2  0  0  0
  2  3  1  0  0  0
  2 19  1  0  0  0
 19 20  2  0  0  0
 20 21  1  0  0  0
 21 22  2  0  0  0
 22 23  1  0  0  0
 23 24  2  0  0  0
  1  4  1  0  0  0
  4  5  2  0  0  0
  5  6  1  0  0  0
  6  7  2  0  0  0
  7 10  1  0  0  0
 10 11  1  0  0  0
 11 12  1  0  0  0
 12 13  1  0  0  0
 13 14  1  0  0  0
 14 15  1  0  0  0
 15 16  1  0  0  0
 16 17  1  0  0  0
 17 18  1  0  0  0
  7  8  1  0  0  0
  8  9  2  0  0  0
 30 25  1  0  0  0
 24 19  1  0  0  0
  9  4  1  0  0  0
 18 13  1  0  0  0
M  END
> <minimizedAffinity>
9.21726

> <CNNscore>
0.2257884294

> <CNNaffinity>
8.0717563629

> <CNN_VS>
1.8225091696

> <CNNaffinity_variance>
0.2499868125

$$$$
[H]Oc1c([H])c([H])c2c(c1[H])OC([H])([H])C([H])([H])C1=C2[C@@]([H])(c2c([H])c([H])c(OC([H])([H])C([H])([H])N(C([H])([H])C([H])([H])[H])C([H])([H])C([H])([H])[H])c([H])c2[H])Oc2c([H])c(F)c([H])c([H])c21


 36 40  0  0  0  0  0  0  0  0999 V2000
    8.0241   44.7844  131.5607 C   0  0  0  0  0  0  0  0  0  0  0  0
    8.7764   44.0824  132.5186 O   0  0  0  0  0  0  0  0  0  0  0  0
    9.6763   44.5422  133.3993 C   0  0  0  0  0  0  0  0  0  0  0  0
   10.3368   43.6975  134.2764 C   0  0  0  0  0  0  0  0  0  0  0  0
   11.2443   44.1602  135.1632 C   0  0  0  0  0  0  0  0  0  0  0  0
   11.9037   43.3138  136.0401 F   0  0  0  0  0  0  0  0  0  0  0  0
   11.5070   45.5001  135.1832 C   0  0  0  0  0  0  0  0  0  0  0  0
   10.8785   46.3943  134.3315 C   0  0  0  0  0  0  0  0  0  0  0  0
    9.9448   45.8978  133.4240 C   0  0  0  0  0  0  0  0  0  0  0  0
    9.2378   46.7430  132.4955 C   0  0  0  0  0  0  0  0  0  0  0  0
    8.3457   46.1688  131.6431 C   0  0  0  0  0  0  0  0  0  0  0  0
    7.6200   47.0450  130.6906 C   0  0  0  0  0  0  0  0  0  0  0  0
    6.4119   46.5226  130.3904 C   0  0  0  0  0  0  0  0  0  0  0  0
    5.5464   47.1519  129.5144 C   0  0  0  0  0  0  0  0  0  0  0  0
    5.9493   48.3494  128.9419 C   0  0  0  0  0  0  0  0  0  0  0  0
    5.0968   49.0209  128.0447 O   0  0  0  0  0  0  0  0  0  0  0  0
    7.1724   48.9065  129.2291 C   0  0  0  0  0  0  0  0  0  0  0  0
    8.0188   48.2402  130.1189 C   0  0  0  0  0  0  0  0  0  0  0  0
    9.2148   48.8944  130.3305 O   0  0  0  0  0  0  0  0  0  0  0  0
   10.2095   48.6870  131.3014 C   0  0  0  0  0  0  0  0  0  0  0  0
    9.6069   48.1633  132.5933 C   0  0  0  0  0  0  0  0  0  0  0  0
    4.4263   49.7023  128.3537 H   0  0  0  0  0  0  0  0  0  0  0  0
    9.5754   42.6669  128.1515 C   0  0  0  0  0  0  0  0  0  0  0  0
    9.2183   42.0165  129.3113 C   0  0  0  0  0  0  0  0  0  0  0  0
    8.7252   42.7290  130.3842 C   0  0  0  0  0  0  0  0  0  0  0  0
    8.5778   44.0801  130.3292 C   0  0  0  0  0  0  0  0  0  0  0  0
    8.9237   44.7454  129.1913 C   0  0  0  0  0  0  0  0  0  0  0  0
    9.4125   44.0575  128.1224 C   0  0  0  0  0  0  0  0  0  0  0  0
   10.0786   42.0238  127.0421 O   0  0  0  0  0  0  0  0  0  0  0  0
   10.8672   40.9199  126.8979 C   0  0  0  0  0  0  0  0  0  0  0  0
   10.2690   39.6733  126.3620 C   0  0  0  0  0  0  0  0  0  0  0  0
   11.0829   38.9828  125.4011 N   0  0  0  0  0  0  0  0  0  0  0  0
   13.2798   39.8493  124.9138 C   0  0  0  0  0  0  0  0  0  0  0  0
   12.4388   38.8569  125.6697 C   0  0  0  0  0  0  0  0  0  0  0  0
   10.5168   38.6950  124.1622 C   0  0  0  0  0  0  0  0  0  0  0  0
    9.0329   38.9371  124.1245 C   0  0  0  0  0  0  0  0  0  0  0  0
 33 34  1  0  0  0
 34 32  1  0  0  0
 32 35  1  0  0  0
 35 36  1  0  0  0
 32 31  1  0  0  0
 31 30  1  0  0  0
 30 29  1  0  0  0
 29 23  1  0  0  0
 23 24  2  0  0  0
 24 25  1  0  0  0
 25 26  2  0  0  0
 26 27  1  0  0  0
 27 28  2  0  0  0
 26  1  1  0  0  0
  1  2  1  0  0  0
  2  3  1  0  0  0
  3  4  2  0  0  0
  4  5  1  0  0  0
  5  6  1  0  0  0
  5  7  2  0  0  0
  7  8  1  0  0  0
  8  9  2  0  0  0
  9 10  1  0  0  0
 10 11  2  0  0  0
 11 12  1  0  0  0
 12 13  2  0  0  0
 13 14  1  0  0  0
 14 15  2  0  0  0
 15 16  1  0  0  0
 15 17  1  0  0  0
 17 18  2  0  0  0
 18 19  1  0  0  0
 19 20  1  0  0  0
 20 21  1  0  0  0
 28 23  1  0  0  0
 11  1  1  0  0  0
 18 12  1  0  0  0
  9  3  1  0  0  0
 21 10  1  0  0  0
 16 22  1  0  0  0
M  END
> <minimizedAffinity>
8.49565

> <CNNscore>
0.4305799901

> <CNNaffinity>
7.9262099266

> <CNN_VS>
3.4128673077

> <CNNaffinity_variance>
1.2951028347

$$$$
[H]Oc1c([H])c([H])c2c(c1[H])OC([H])([H])C([H])([H])C1=C2[C@@]([H])(c2c([H])c([H])c(OC([H])([H])C([H])([H])N(C([H])([H])C([H])([H])[H])C([H])([H])C([H])([H])[H])c([H])c2[H])Oc2c([H])c(F)c([H])c([H])c21


 36 40  0  0  0  0  0  0  0  0999 V2000
   10.0117   45.3776  133.8052 C   0  0  0  0  0  0  0  0  0  0  0  0
    8.8061   44.6820  134.0022 O   0  0  0  0  0  0  0  0  0  0  0  0
    8.3927   43.5247  133.4665 C   0  0  0  0  0  0  0  0  0  0  0  0
    7.1557   42.9804  133.7704 C   0  0  0  0  0  0  0  0  0  0  0  0
    6.7384   41.8150  133.2302 C   0  0  0  0  0  0  0  0  0  0  0  0
    5.5008   41.2717  133.5357 F   0  0  0  0  0  0  0  0  0  0  0  0
    7.5705   41.1677  132.3623 C   0  0  0  0  0  0  0  0  0  0  0  0
    8.8190   41.6618  132.0200 C   0  0  0  0  0  0  0  0  0  0  0  0
    9.2319   42.8654  132.5882 C   0  0  0  0  0  0  0  0  0  0  0  0
   10.5098   43.4643  132.2972 C   0  0  0  0  0  0  0  0  0  0  0  0
   10.8265   44.6442  132.8969 C   0  0  0  0  0  0  0  0  0  0  0  0
   12.1445   45.2547  132.5941 C   0  0  0  0  0  0  0  0  0  0  0  0
   12.5779   45.9919  133.6387 C   0  0  0  0  0  0  0  0  0  0  0  0
   13.7824   46.6702  133.5983 C   0  0  0  0  0  0  0  0  0  0  0  0
   14.5493   46.5760  132.4464 C   0  0  0  0  0  0  0  0  0  0  0  0
   15.7818   47.2520  132.3659 O   0  0  0  0  0  0  0  0  0  0  0  0
   14.1353   45.8322  131.3673 C   0  0  0  0  0  0  0  0  0  0  0  0
   12.9120   45.1618  131.4466 C   0  0  0  0  0  0  0  0  0  0  0  0
   12.6040   44.4483  130.3067 O   0  0  0  0  0  0  0  0  0  0  0  0
   11.6130   43.4788  130.0764 C   0  0  0  0  0  0  0  0  0  0  0  0
   11.3181   42.6921  131.3415 C   0  0  0  0  0  0  0  0  0  0  0  0
   16.6445   46.8257  132.6546 H   0  0  0  0  0  0  0  0  0  0  0  0
    8.2052   48.8872  132.0930 C   0  0  0  0  0  0  0  0  0  0  0  0
    7.7582   47.6195  131.7947 C   0  0  0  0  0  0  0  0  0  0  0  0
    8.3628   46.5177  132.3625 C   0  0  0  0  0  0  0  0  0  0  0  0
    9.4065   46.6488  133.2250 C   0  0  0  0  0  0  0  0  0  0  0  0
    9.8655   47.8937  133.5359 C   0  0  0  0  0  0  0  0  0  0  0  0
    9.2803   48.9926  132.9841 C   0  0  0  0  0  0  0  0  0  0  0  0
    7.6549   50.0329  131.5619 O   0  0  0  0  0  0  0  0  0  0  0  0
    7.0177   50.2858  130.3824 C   0  0  0  0  0  0  0  0  0  0  0  0
    7.5837   49.7367  129.1266 C   0  0  0  0  0  0  0  0  0  0  0  0
    7.0291   48.4759  128.7200 N   0  0  0  0  0  0  0  0  0  0  0  0
    5.2735   46.9201  129.2787 C   0  0  0  0  0  0  0  0  0  0  0  0
    5.6563   48.3045  128.8307 C   0  0  0  0  0  0  0  0  0  0  0  0
    7.9144   47.4311  128.4690 C   0  0  0  0  0  0  0  0  0  0  0  0
    9.3101   47.7157  128.9515 C   0  0  0  0  0  0  0  0  0  0  0  0
 33 34  1  0  0  0
 34 32  1  0  0  0
 32 35  1  0  0  0
 35 36  1  0  0  0
 32 31  1  0  0  0
 31 30  1  0  0  0
 30 29  1  0  0  0
 29 23  1  0  0  0
 23 24  2  0  0  0
 24 25  1  0  0  0
 25 26  2  0  0  0
 26 27  1  0  0  0
 27 28  2  0  0  0
 26  1  1  0  0  0
  1  2  1  0  0  0
  2  3  1  0  0  0
  3  4  2  0  0  0
  4  5  1  0  0  0
  5  6  1  0  0  0
  5  7  2  0  0  0
  7  8  1  0  0  0
  8  9  2  0  0  0
  9 10  1  0  0  0
 10 11  2  0  0  0
 11 12  1  0  0  0
 12 13  2  0  0  0
 13 14  1  0  0  0
 14 15  2  0  0  0
 15 16  1  0  0  0
 15 17  1  0  0  0
 17 18  2  0  0  0
 18 19  1  0  0  0
 19 20  1  0  0  0
 20 21  1  0  0  0
 28 23  1  0  0  0
 11  1  1  0  0  0
 18 12  1  0  0  0
  9  3  1  0  0  0
 21 10  1  0  0  0
 16 22  1  0  0  0
M  END
> <minimizedAffinity>
17.57809

> <CNNscore>
0.4267011285

> <CNNaffinity>
7.7299451828

> <CNN_VS>
3.2983763218

> <CNNaffinity_variance>
1.0245687962

$$$$
[H]Oc1c([H])c([H])c2c(c1[H])OC([H])([H])C([H])([H])C1=C2[C@@]([H])(c2c([H])c([H])c(OC([H])([H])C([H])([H])N(C([H])([H])C([H])([H])[H])C([H])([H])C([H])([H])[H])c([H])c2[H])Oc2c([H])c(F)c([H])c([H])c21


 36 40  0  0  0  0  0  0  0  0999 V2000
    9.5842   44.5609  130.3902 C   0  0  0  0  0  0  0  0  0  0  0  0
   10.4846   44.2485  129.3568 O   0  0  0  0  0  0  0  0  0  0  0  0
   11.8249   44.2366  129.3690 C   0  0  0  0  0  0  0  0  0  0  0  0
   12.5623   43.9067  128.2437 C   0  0  0  0  0  0  0  0  0  0  0  0
   13.9129   43.8955  128.2554 C   0  0  0  0  0  0  0  0  0  0  0  0
   14.6488   43.5648  127.1288 F   0  0  0  0  0  0  0  0  0  0  0  0
   14.5542   44.2209  129.4161 C   0  0  0  0  0  0  0  0  0  0  0  0
   13.8717   44.5591  130.5737 C   0  0  0  0  0  0  0  0  0  0  0  0
   12.4785   44.5644  130.5419 C   0  0  0  0  0  0  0  0  0  0  0  0
   11.6762   44.9024  131.6901 C   0  0  0  0  0  0  0  0  0  0  0  0
   10.3212   44.8839  131.5646 C   0  0  0  0  0  0  0  0  0  0  0  0
    9.5009   45.2315  132.7511 C   0  0  0  0  0  0  0  0  0  0  0  0
    8.3082   44.6008  132.7054 C   0  0  0  0  0  0  0  0  0  0  0  0
    7.3597   44.7690  133.6978 C   0  0  0  0  0  0  0  0  0  0  0  0
    7.6626   45.6104  134.7581 C   0  0  0  0  0  0  0  0  0  0  0  0
    6.7234   45.8082  135.7883 O   0  0  0  0  0  0  0  0  0  0  0  0
    8.8688   46.2651  134.8329 C   0  0  0  0  0  0  0  0  0  0  0  0
    9.8007   46.0695  133.8105 C   0  0  0  0  0  0  0  0  0  0  0  0
   10.9717   46.7751  133.9951 O   0  0  0  0  0  0  0  0  0  0  0  0
   12.2115   46.6737  133.3410 C   0  0  0  0  0  0  0  0  0  0  0  0
   12.4677   45.2495  132.8801 C   0  0  0  0  0  0  0  0  0  0  0  0
    6.6973   45.2255  136.6063 H   0  0  0  0  0  0  0  0  0  0  0  0
    7.8451   47.9752  128.4330 C   0  0  0  0  0  0  0  0  0  0  0  0
    9.2041   47.7540  128.4391 C   0  0  0  0  0  0  0  0  0  0  0  0
    9.7254   46.6485  129.0778 C   0  0  0  0  0  0  0  0  0  0  0  0
    8.9219   45.7533  129.7129 C   0  0  0  0  0  0  0  0  0  0  0  0
    7.5736   45.9509  129.7192 C   0  0  0  0  0  0  0  0  0  0  0  0
    7.0419   47.0375  129.0937 C   0  0  0  0  0  0  0  0  0  0  0  0
    7.2529   49.0578  127.8209 O   0  0  0  0  0  0  0  0  0  0  0  0
    6.9607   50.3162  128.2596 C   0  0  0  0  0  0  0  0  0  0  0  0
    7.6103   50.8164  129.4952 C   0  0  0  0  0  0  0  0  0  0  0  0
    7.2765   50.0861  130.6859 N   0  0  0  0  0  0  0  0  0  0  0  0
    5.0185   50.1857  129.8453 C   0  0  0  0  0  0  0  0  0  0  0  0
    5.9344   49.9648  131.0183 C   0  0  0  0  0  0  0  0  0  0  0  0
    8.3140   49.7533  131.5524 C   0  0  0  0  0  0  0  0  0  0  0  0
    9.6565   49.7204  130.8753 C   0  0  0  0  0  0  0  0  0  0  0  0
 33 34  1  0  0  0
 34 32  1  0  0  0
 32 35  1  0  0  0
 35 36  1  0  0  0
 32 31  1  0  0  0
 31 30  1  0  0  0
 30 29  1  0  0  0
 29 23  1  0  0  0
 23 24  2  0  0  0
 24 25  1  0  0  0
 25 26  2  0  0  0
 26 27  1  0  0  0
 27 28  2  0  0  0
 26  1  1  0  0  0
  1  2  1  0  0  0
  2  3  1  0  0  0
  3  4  2  0  0  0
  4  5  1  0  0  0
  5  6  1  0  0  0
  5  7  2  0  0  0
  7  8  1  0  0  0
  8  9  2  0  0  0
  9 10  1  0  0  0
 10 11  2  0  0  0
 11 12  1  0  0  0
 12 13  2  0  0  0
 13 14  1  0  0  0
 14 15  2  0  0  0
 15 16  1  0  0  0
 15 17  1  0  0  0
 17 18  2  0  0  0
 18 19  1  0  0  0
 19 20  1  0  0  0
 20 21  1  0  0  0
 28 23  1  0  0  0
 11  1  1  0  0  0
 18 12  1  0  0  0
  9  3  1  0  0  0
 21 10  1  0  0  0
 16 22  1  0  0  0
M  END
> <minimizedAffinity>
8.15266

> <CNNscore>
0.4084418714

> <CNNaffinity>
7.5196189880

> <CNN_VS>
3.0713272095

> <CNNaffinity_variance>
0.5270031095

$$$$
[H]Oc1c([H])c([H])c2c(c1[H])OC([H])([H])C([H])([H])C1=C2[C@@]([H])(c2c([H])c([H])c(OC([H])([H])C([H])([H])N(C([H])([H])C([H])([H])[H])C([H])([H])C([H])([H])[H])c([H])c2[H])Oc2c([H])c(F)c([H])c([H])c21


 36 40  0  0  0  0  0  0  0  0999 V2000
   11.2582   45.8357  131.5162 C   0  0  0  0  0  0  0  0  0  0  0  0
   11.4447   45.7343  132.9059 O   0  0  0  0  0  0  0  0  0  0  0  0
   11.1523   44.7209  133.7331 C   0  0  0  0  0  0  0  0  0  0  0  0
   11.4003   44.7947  135.0940 C   0  0  0  0  0  0  0  0  0  0  0  0
   11.1050   43.7741  135.9280 C   0  0  0  0  0  0  0  0  0  0  0  0
   11.3543   43.8496  137.2890 F   0  0  0  0  0  0  0  0  0  0  0  0
   10.5468   42.6455  135.3996 C   0  0  0  0  0  0  0  0  0  0  0  0
   10.2757   42.5124  134.0473 C   0  0  0  0  0  0  0  0  0  0  0  0
   10.5881   43.5760  133.2028 C   0  0  0  0  0  0  0  0  0  0  0  0
   10.3449   43.5385  131.7830 C   0  0  0  0  0  0  0  0  0  0  0  0
   10.6797   44.6264  131.0371 C   0  0  0  0  0  0  0  0  0  0  0  0
   10.4280   44.5807  129.5756 C   0  0  0  0  0  0  0  0  0  0  0  0
   11.3135   45.3578  128.9165 C   0  0  0  0  0  0  0  0  0  0  0  0
   11.2813   45.4880  127.5400 C   0  0  0  0  0  0  0  0  0  0  0  0
   10.3072   44.7929  126.8386 C   0  0  0  0  0  0  0  0  0  0  0  0
   10.2411   44.8993  125.4361 O   0  0  0  0  0  0  0  0  0  0  0  0
    9.3930   43.9930  127.4815 C   0  0  0  0  0  0  0  0  0  0  0  0
    9.4581   43.8877  128.8732 C   0  0  0  0  0  0  0  0  0  0  0  0
    8.4932   43.0573  129.4049 O   0  0  0  0  0  0  0  0  0  0  0  0
    8.3664   42.5137  130.6947 C   0  0  0  0  0  0  0  0  0  0  0  0
    9.7293   42.2842  131.3239 C   0  0  0  0  0  0  0  0  0  0  0  0
   10.7439   44.2764  124.8290 H   0  0  0  0  0  0  0  0  0  0  0  0
    8.6699   49.2728  131.4979 C   0  0  0  0  0  0  0  0  0  0  0  0
    9.9081   49.2911  130.8959 C   0  0  0  0  0  0  0  0  0  0  0  0
   10.7107   48.1699  130.9229 C   0  0  0  0  0  0  0  0  0  0  0  0
   10.3075   47.0252  131.5372 C   0  0  0  0  0  0  0  0  0  0  0  0
    9.0856   46.9832  132.1389 C   0  0  0  0  0  0  0  0  0  0  0  0
    8.2803   48.0813  132.1221 C   0  0  0  0  0  0  0  0  0  0  0  0
    7.8162   50.3537  131.5157 O   0  0  0  0  0  0  0  0  0  0  0  0
    6.8878   50.8071  130.6248 C   0  0  0  0  0  0  0  0  0  0  0  0
    6.9837   50.3829  129.2071 C   0  0  0  0  0  0  0  0  0  0  0  0
    6.5443   49.0395  128.9523 N   0  0  0  0  0  0  0  0  0  0  0  0
    8.0347   47.1586  128.7170 C   0  0  0  0  0  0  0  0  0  0  0  0
    7.2767   48.2763  128.0539 C   0  0  0  0  0  0  0  0  0  0  0  0
    5.2909   48.6677  129.4307 C   0  0  0  0  0  0  0  0  0  0  0  0
    5.0942   47.1770  129.4648 C   0  0  0  0  0  0  0  0  0  0  0  0
 33 34  1  0  0  0
 34 32  1  0  0  0
 32 35  1  0  0  0
 35 36  1  0  0  0
 32 31  1  0  0  0
 31 30  1  0  0  0
 30 29  1  0  0  0
 29 23  1  0  0  0
 23 24  2  0  0  0
 24 25  1  0  0  0
 25 26  2  0  0  0
 26 27  1  0  0  0
 27 28  2  0  0  0
 26  1  1  0  0  0
  1  2  1  0  0  0
  2  3  1  0  0  0
  3  4  2  0  0  0
  4  5  1  0  0  0
  5  6  1  0  0  0
  5  7  2  0  0  0
  7  8  1  0  0  0
  8  9  2  0  0  0
  9 10  1  0  0  0
 10 11  2  0  0  0
 11 12  1  0  0  0
 12 13  2  0  0  0
 13 14  1  0  0  0
 14 15  2  0  0  0
 15 16  1  0  0  0
 15 17  1  0  0  0
 17 18  2  0  0  0
 18 19  1  0  0  0
 19 20  1  0  0  0
 20 21  1  0  0  0
 28 23  1  0  0  0
 11  1  1  0  0  0
 18 12  1  0  0  0
  9  3  1  0  0  0
 21 10  1  0  0  0
 16 22  1  0  0  0
M  END
> <minimizedAffinity>
4.42548

> <CNNscore>
0.3882429898

> <CNNaffinity>
7.8024191856

> <CNN_VS>
3.0292346478

> <CNNaffinity_variance>
0.2545257807

$$$$
[H]Oc1c([H])c([H])c2c(c1[H])OC([H])([H])C([H])([H])C1=C2[C@@]([H])(c2c([H])c([H])c(OC([H])([H])C([H])([H])N(C([H])([H])C([H])([H])[H])C([H])([H])C([H])([H])[H])c([H])c2[H])Oc2c([H])c(F)c([H])c([H])c21


 36 40  0  0  0  0  0  0  0  0999 V2000
    7.4115   46.7103  132.0217 C   0  0  0  0  0  0  0  0  0  0  0  0
    7.7947   45.8779  133.0878 O   0  0  0  0  0  0  0  0  0  0  0  0
    8.6801   46.1030  134.0688 C   0  0  0  0  0  0  0  0  0  0  0  0
    8.9429   45.1570  135.0461 C   0  0  0  0  0  0  0  0  0  0  0  0
    9.8355   45.3830  136.0342 C   0  0  0  0  0  0  0  0  0  0  0  0
   10.0968   44.4357  137.0112 F   0  0  0  0  0  0  0  0  0  0  0  0
   10.4888   46.5819  136.0564 C   0  0  0  0  0  0  0  0  0  0  0  0
   10.2683   47.5671  135.1073 C   0  0  0  0  0  0  0  0  0  0  0  0
    9.3431   47.3154  134.0960 C   0  0  0  0  0  0  0  0  0  0  0  0
    9.0427   48.2726  133.0616 C   0  0  0  0  0  0  0  0  0  0  0  0
    8.1266   47.9379  132.1125 C   0  0  0  0  0  0  0  0  0  0  0  0
    7.8207   48.9286  131.0510 C   0  0  0  0  0  0  0  0  0  0  0  0
    6.5559   48.7726  130.6058 C   0  0  0  0  0  0  0  0  0  0  0  0
    6.0337   49.5747  129.6074 C   0  0  0  0  0  0  0  0  0  0  0  0
    6.8469   50.5586  129.0647 C   0  0  0  0  0  0  0  0  0  0  0  0
    6.3524   51.3957  128.0462 O   0  0  0  0  0  0  0  0  0  0  0  0
    8.1382   50.7424  129.4983 C   0  0  0  0  0  0  0  0  0  0  0  0
    8.6293   49.9116  130.5085 C   0  0  0  0  0  0  0  0  0  0  0  0
    9.9334   50.1911  130.8612 O   0  0  0  0  0  0  0  0  0  0  0  0
   10.6947   49.7583  131.9605 C   0  0  0  0  0  0  0  0  0  0  0  0
    9.8118   49.5212  133.1731 C   0  0  0  0  0  0  0  0  0  0  0  0
    5.8891   52.2643  128.2467 H   0  0  0  0  0  0  0  0  0  0  0  0
    8.6770   44.0130  128.9175 C   0  0  0  0  0  0  0  0  0  0  0  0
    8.2905   43.5625  130.1599 C   0  0  0  0  0  0  0  0  0  0  0  0
    7.8916   44.4574  131.1305 C   0  0  0  0  0  0  0  0  0  0  0  0
    7.8675   45.7963  130.8921 C   0  0  0  0  0  0  0  0  0  0  0  0
    8.2448   46.2654  129.6696 C   0  0  0  0  0  0  0  0  0  0  0  0
    8.6418   45.3959  128.6996 C   0  0  0  0  0  0  0  0  0  0  0  0
    9.0914   43.1807  127.9011 O   0  0  0  0  0  0  0  0  0  0  0  0
   10.3262   42.7559  127.5060 C   0  0  0  0  0  0  0  0  0  0  0  0
   11.5266   43.4676  128.0076 C   0  0  0  0  0  0  0  0  0  0  0  0
   11.5222   43.7289  129.4198 N   0  0  0  0  0  0  0  0  0  0  0  0
   11.4934   45.5333  131.0191 C   0  0  0  0  0  0  0  0  0  0  0  0
   12.1946   44.8549  129.8738 C   0  0  0  0  0  0  0  0  0  0  0  0
   11.0552   42.7233  130.2618 C   0  0  0  0  0  0  0  0  0  0  0  0
   11.6879   42.7589  131.6257 C   0  0  0  0  0  0  0  0  0  0  0  0
 33 34  1  0  0  0
 34 32  1  0  0  0
 32 35  1  0  0  0
 35 36  1  0  0  0
 32 31  1  0  0  0
 31 30  1  0  0  0
 30 29  1  0  0  0
 29 23  1  0  0  0
 23 24  2  0  0  0
 24 25  1  0  0  0
 25 26  2  0  0  0
 26 27  1  0  0  0
 27 28  2  0  0  0
 26  1  1  0  0  0
  1  2  1  0  0  0
  2  3  1  0  0  0
  3  4  2  0  0  0
  4  5  1  0  0  0
  5  6  1  0  0  0
  5  7  2  0  0  0
  7  8  1  0  0  0
  8  9  2  0  0  0
  9 10  1  0  0  0
 10 11  2  0  0  0
 11 12  1  0  0  0
 12 13  2  0  0  0
 13 14  1  0  0  0
 14 15  2  0  0  0
 15 16  1  0  0  0
 15 17  1  0  0  0
 17 18  2  0  0  0
 18 19  1  0  0  0
 19 20  1  0  0  0
 20 21  1  0  0  0
 28 23  1  0  0  0
 11  1  1  0  0  0
 18 12  1  0  0  0
  9  3  1  0  0  0
 21 10  1  0  0  0
 16 22  1  0  0  0
M  END
> <minimizedAffinity>
4.08324

> <CNNscore>
0.3860117793

> <CNNaffinity>
7.7476110458

> <CNN_VS>
2.9906690121

> <CNNaffinity_variance>
0.5438534021

$$$$
[H]Oc1c([H])c([H])c2c(c1[H])OC([H])([H])C([H])([H])C1=C2[C@@]([H])(c2c([H])c([H])c(OC([H])([H])C([H])([H])N(C([H])([H])C([H])([H])[H])C([H])([H])C([H])([H])[H])c([H])c2[H])Oc2c([H])c(F)c([H])c([H])c21


 36 40  0  0  0  0  0  0  0  0999 V2000
   10.9190   45.8799  131.3546 C   0  0  0  0  0  0  0  0  0  0  0  0
   10.9355   46.5974  132.5634 O   0  0  0  0  0  0  0  0  0  0  0  0
   10.4398   46.2589  133.7620 C   0  0  0  0  0  0  0  0  0  0  0  0
   10.5400   47.1008  134.8576 C   0  0  0  0  0  0  0  0  0  0  0  0
   10.0399   46.7605  136.0652 C   0  0  0  0  0  0  0  0  0  0  0  0
   10.1414   47.6037  137.1600 F   0  0  0  0  0  0  0  0  0  0  0  0
    9.4213   45.5499  136.1933 C   0  0  0  0  0  0  0  0  0  0  0  0
    9.2907   44.6653  135.1348 C   0  0  0  0  0  0  0  0  0  0  0  0
    9.8137   45.0341  133.8969 C   0  0  0  0  0  0  0  0  0  0  0  0
    9.7291   44.1875  132.7339 C   0  0  0  0  0  0  0  0  0  0  0  0
   10.2658   44.6327  131.5652 C   0  0  0  0  0  0  0  0  0  0  0  0
   10.1766   43.7554  130.3719 C   0  0  0  0  0  0  0  0  0  0  0  0
   11.2123   43.9830  129.5365 C   0  0  0  0  0  0  0  0  0  0  0  0
   11.3499   43.2924  128.3462 C   0  0  0  0  0  0  0  0  0  0  0  0
   10.3889   42.3459  128.0227 C   0  0  0  0  0  0  0  0  0  0  0  0
   10.4933   41.6218  126.8196 O   0  0  0  0  0  0  0  0  0  0  0  0
    9.3241   42.0912  128.8536 C   0  0  0  0  0  0  0  0  0  0  0  0
    9.2200   42.8099  130.0471 C   0  0  0  0  0  0  0  0  0  0  0  0
    8.1142   42.4673  130.7976 O   0  0  0  0  0  0  0  0  0  0  0  0
    7.7829   42.7752  132.1282 C   0  0  0  0  0  0  0  0  0  0  0  0
    9.0320   42.9161  132.9804 C   0  0  0  0  0  0  0  0  0  0  0  0
   10.9879   40.7492  126.7627 H   0  0  0  0  0  0  0  0  0  0  0  0
    8.5495   48.6154  129.0275 C   0  0  0  0  0  0  0  0  0  0  0  0
    8.2614   47.2703  129.0850 C   0  0  0  0  0  0  0  0  0  0  0  0
    9.0443   46.4235  129.8413 C   0  0  0  0  0  0  0  0  0  0  0  0
   10.1118   46.8865  130.5458 C   0  0  0  0  0  0  0  0  0  0  0  0
   10.4157   48.2143  130.5049 C   0  0  0  0  0  0  0  0  0  0  0  0
    9.6534   49.0646  129.7629 C   0  0  0  0  0  0  0  0  0  0  0  0
    7.8168   49.5200  128.2912 O   0  0  0  0  0  0  0  0  0  0  0  0
    6.4743   49.7170  128.1488 C   0  0  0  0  0  0  0  0  0  0  0  0
    5.8994   51.0375  128.5021 C   0  0  0  0  0  0  0  0  0  0  0  0
    6.8273   51.9539  129.1033 N   0  0  0  0  0  0  0  0  0  0  0  0
    6.5878   50.5237  131.0299 C   0  0  0  0  0  0  0  0  0  0  0  0
    7.3498   51.6265  130.3467 C   0  0  0  0  0  0  0  0  0  0  0  0
    6.9620   53.2119  128.5222 C   0  0  0  0  0  0  0  0  0  0  0  0
    6.9438   53.1690  127.0190 C   0  0  0  0  0  0  0  0  0  0  0  0
 33 34  1  0  0  0
 34 32  1  0  0  0
 32 35  1  0  0  0
 35 36  1  0  0  0
 32 31  1  0  0  0
 31 30  1  0  0  0
 30 29  1  0  0  0
 29 23  1  0  0  0
 23 24  2  0  0  0
 24 25  1  0  0  0
 25 26  2  0  0  0
 26 27  1  0  0  0
 27 28  2  0  0  0
 26  1  1  0  0  0
  1  2  1  0  0  0
  2  3  1  0  0  0
  3  4  2  0  0  0
  4  5  1  0  0  0
  5  6  1  0  0  0
  5  7  2  0  0  0
  7  8  1  0  0  0
  8  9  2  0  0  0
  9 10  1  0  0  0
 10 11  2  0  0  0
 11 12  1  0  0  0
 12 13  2  0  0  0
 13 14  1  0  0  0
 14 15  2  0  0  0
 15 16  1  0  0  0
 15 17  1  0  0  0
 17 18  2  0  0  0
 18 19  1  0  0  0
 19 20  1  0  0  0
 20 21  1  0  0  0
 28 23  1  0  0  0
 11  1  1  0  0  0
 18 12  1  0  0  0
  9  3  1  0  0  0
 21 10  1  0  0  0
 16 22  1  0  0  0
M  END
> <minimizedAffinity>
13.10062

> <CNNscore>
0.3741019368

> <CNNaffinity>
7.6184182167

> <CNN_VS>
2.8500649929

> <CNNaffinity_variance>
1.5693643093

$$$$
[H]Oc1c([H])c([H])c2c(c1[H])OC([H])([H])C([H])([H])C1=C2[C@@]([H])(c2c([H])c([H])c(OC([H])([H])C([H])([H])N(C([H])([H])C([H])([H])[H])C([H])([H])C([H])([H])[H])c([H])c2[H])Oc2c([H])c(F)c([H])c([H])c21


 36 40  0  0  0  0  0  0  0  0999 V2000
   10.7445   43.8090  132.6939 C   0  0  0  0  0  0  0  0  0  0  0  0
    9.6562   43.3254  133.4408 O   0  0  0  0  0  0  0  0  0  0  0  0
    8.5901   42.6211  133.0351 C   0  0  0  0  0  0  0  0  0  0  0  0
    7.5963   42.2284  133.9165 C   0  0  0  0  0  0  0  0  0  0  0  0
    6.5216   41.5196  133.5081 C   0  0  0  0  0  0  0  0  0  0  0  0
    5.5286   41.1273  134.3914 F   0  0  0  0  0  0  0  0  0  0  0  0
    6.4267   41.1891  132.1866 C   0  0  0  0  0  0  0  0  0  0  0  0
    7.3884   41.5528  131.2577 C   0  0  0  0  0  0  0  0  0  0  0  0
    8.4902   42.2833  131.6986 C   0  0  0  0  0  0  0  0  0  0  0  0
    9.5439   42.7110  130.8136 C   0  0  0  0  0  0  0  0  0  0  0  0
   10.5801   43.4238  131.3333 C   0  0  0  0  0  0  0  0  0  0  0  0
   11.6625   43.8598  130.4168 C   0  0  0  0  0  0  0  0  0  0  0  0
   12.8333   43.9655  131.0806 C   0  0  0  0  0  0  0  0  0  0  0  0
   13.9948   44.3645  130.4446 C   0  0  0  0  0  0  0  0  0  0  0  0
   13.9329   44.6574  129.0902 C   0  0  0  0  0  0  0  0  0  0  0  0
   15.0937   45.0672  128.4066 O   0  0  0  0  0  0  0  0  0  0  0  0
   12.7561   44.5578  128.3873 C   0  0  0  0  0  0  0  0  0  0  0  0
   11.6041   44.1517  129.0656 C   0  0  0  0  0  0  0  0  0  0  0  0
   10.4876   44.0869  128.2577 O   0  0  0  0  0  0  0  0  0  0  0  0
    9.2251   43.5146  128.4894 C   0  0  0  0  0  0  0  0  0  0  0  0
    9.3340   42.3141  129.4131 C   0  0  0  0  0  0  0  0  0  0  0  0
   15.7125   44.4111  127.9640 H   0  0  0  0  0  0  0  0  0  0  0  0
    9.9587   47.9730  133.4396 C   0  0  0  0  0  0  0  0  0  0  0  0
    8.9453   47.0740  133.1931 C   0  0  0  0  0  0  0  0  0  0  0  0
    9.2358   45.7466  132.9575 C   0  0  0  0  0  0  0  0  0  0  0  0
   10.5174   45.2907  132.9623 C   0  0  0  0  0  0  0  0  0  0  0  0
   11.5368   46.1618  133.2049 C   0  0  0  0  0  0  0  0  0  0  0  0
   11.2680   47.4761  133.4392 C   0  0  0  0  0  0  0  0  0  0  0  0
    9.7461   49.3128  133.6785 O   0  0  0  0  0  0  0  0  0  0  0  0
    9.4012   50.3493  132.8613 C   0  0  0  0  0  0  0  0  0  0  0  0
    9.6702   50.2395  131.4071 C   0  0  0  0  0  0  0  0  0  0  0  0
    8.7972   49.3432  130.7020 N   0  0  0  0  0  0  0  0  0  0  0  0
    8.4536   47.2265  129.5993 C   0  0  0  0  0  0  0  0  0  0  0  0
    9.3761   48.3793  129.8883 C   0  0  0  0  0  0  0  0  0  0  0  0
    7.4377   49.6427  130.6879 C   0  0  0  0  0  0  0  0  0  0  0  0
    7.0568   50.5899  129.5836 C   0  0  0  0  0  0  0  0  0  0  0  0
 33 34  1  0  0  0
 34 32  1  0  0  0
 32 35  1  0  0  0
 35 36  1  0  0  0
 32 31  1  0  0  0
 31 30  1  0  0  0
 30 29  1  0  0  0
 29 23  1  0  0  0
 23 24  2  0  0  0
 24 25  1  0  0  0
 25 26  2  0  0  0
 26 27  1  0  0  0
 27 28  2  0  0  0
 26  1  1  0  0  0
  1  2  1  0  0  0
  2  3  1  0  0  0
  3  4  2  0  0  0
  4  5  1  0  0  0
  5  6  1  0  0  0
  5  7  2  0  0  0
  7  8  1  0  0  0
  8  9  2  0  0  0
  9 10  1  0  0  0
 10 11  2  0  0  0
 11 12  1  0  0  0
 12 13  2  0  0  0
 13 14  1  0  0  0
 14 15  2  0  0  0
 15 16  1  0  0  0
 15 17  1  0  0  0
 17 18  2  0  0  0
 18 19  1  0  0  0
 19 20  1  0  0  0
 20 21  1  0  0  0
 28 23  1  0  0  0
 11  1  1  0  0  0
 18 12  1  0  0  0
  9  3  1  0  0  0
 21 10  1  0  0  0
 16 22  1  0  0  0
M  END
> <minimizedAffinity>
5.68462

> <CNNscore>
0.3654004335

> <CNNaffinity>
7.6146326065

> <CNN_VS>
2.7823901176

> <CNNaffinity_variance>
0.3037148118

$$$$
[H]Oc1c([H])c([H])c2c(c1[H])OC([H])([H])C([H])([H])C1=C2[C@@]([H])(c2c([H])c([H])c(OC([H])([H])C([H])([H])N(C([H])([H])C([H])([H])[H])C([H])([H])C([H])([H])[H])c([H])c2[H])Oc2c([H])c(F)c([H])c([H])c21


 36 40  0  0  0  0  0  0  0  0999 V2000
   10.0211   44.4729  129.9321 C   0  0  0  0  0  0  0  0  0  0  0  0
   11.0808   44.9189  129.1232 O   0  0  0  0  0  0  0  0  0  0  0  0
   12.3962   44.6877  129.2382 C   0  0  0  0  0  0  0  0  0  0  0  0
   13.3116   45.2187  128.3443 C   0  0  0  0  0  0  0  0  0  0  0  0
   14.6371   44.9868  128.4604 C   0  0  0  0  0  0  0  0  0  0  0  0
   15.5512   45.5184  127.5649 F   0  0  0  0  0  0  0  0  0  0  0  0
   15.0709   44.2055  129.4928 C   0  0  0  0  0  0  0  0  0  0  0  0
   14.2040   43.6464  130.4181 C   0  0  0  0  0  0  0  0  0  0  0  0
   12.8400   43.8967  130.2812 C   0  0  0  0  0  0  0  0  0  0  0  0
   11.8569   43.3638  131.1900 C   0  0  0  0  0  0  0  0  0  0  0  0
   10.5464   43.6644  130.9794 C   0  0  0  0  0  0  0  0  0  0  0  0
    9.5392   43.1113  131.9181 C   0  0  0  0  0  0  0  0  0  0  0  0
    8.3534   42.9402  131.2958 C   0  0  0  0  0  0  0  0  0  0  0  0
    7.2488   42.4425  131.9628 C   0  0  0  0  0  0  0  0  0  0  0  0
    7.3852   42.1162  133.3040 C   0  0  0  0  0  0  0  0  0  0  0  0
    6.2839   41.6068  134.0184 O   0  0  0  0  0  0  0  0  0  0  0  0
    8.5797   42.2780  133.9642 C   0  0  0  0  0  0  0  0  0  0  0  0
    9.6725   42.7840  133.2558 C   0  0  0  0  0  0  0  0  0  0  0  0
   10.8146   42.8999  134.0209 O   0  0  0  0  0  0  0  0  0  0  0  0
   12.1473   43.1356  133.6421 C   0  0  0  0  0  0  0  0  0  0  0  0
   12.4339   42.5498  132.2706 C   0  0  0  0  0  0  0  0  0  0  0  0
    6.0923   40.6221  134.0735 H   0  0  0  0  0  0  0  0  0  0  0  0
    8.5746   48.2837  131.3098 C   0  0  0  0  0  0  0  0  0  0  0  0
    8.3161   47.1169  131.9935 C   0  0  0  0  0  0  0  0  0  0  0  0
    8.7959   45.9134  131.5208 C   0  0  0  0  0  0  0  0  0  0  0  0
    9.5311   45.8440  130.3784 C   0  0  0  0  0  0  0  0  0  0  0  0
    9.8004   46.9859  129.6853 C   0  0  0  0  0  0  0  0  0  0  0  0
    9.3342   48.1828  130.1376 C   0  0  0  0  0  0  0  0  0  0  0  0
    8.1255   49.5204  131.7177 O   0  0  0  0  0  0  0  0  0  0  0  0
    7.2604   50.4150  131.1586 C   0  0  0  0  0  0  0  0  0  0  0  0
    6.0296   49.9119  130.5021 C   0  0  0  0  0  0  0  0  0  0  0  0
    6.2463   49.2622  129.2398 N   0  0  0  0  0  0  0  0  0  0  0  0
    7.1053   51.3617  128.4219 C   0  0  0  0  0  0  0  0  0  0  0  0
    7.1225   49.8592  128.3442 C   0  0  0  0  0  0  0  0  0  0  0  0
    5.3950   48.2153  128.8970 C   0  0  0  0  0  0  0  0  0  0  0  0
    5.9624   46.8635  129.2327 C   0  0  0  0  0  0  0  0  0  0  0  0
 33 34  1  0  0  0
 34 32  1  0  0  0
 32 35  1  0  0  0
 35 36  1  0  0  0
 32 31  1  0  0  0
 31 30  1  0  0  0
 30 29  1  0  0  0
 29 23  1  0  0  0
 23 24  2  0  0  0
 24 25  1  0  0  0
 25 26  2  0  0  0
 26 27  1  0  0  0
 27 28  2  0  0  0
 26  1  1  0  0  0
  1  2  1  0  0  0
  2  3  1  0  0  0
  3  4  2  0  0  0
  4  5  1  0  0  0
  5  6  1  0  0  0
  5  7  2  0  0  0
  7  8  1  0  0  0
  8  9  2  0  0  0
  9 10  1  0  0  0
 10 11  2  0  0  0
 11 12  1  0  0  0
 12 13  2  0  0  0
 13 14  1  0  0  0
 14 15  2  0  0  0
 15 16  1  0  0  0
 15 17  1  0  0  0
 17 18  2  0  0  0
 18 19  1  0  0  0
 19 20  1  0  0  0
 20 21  1  0  0  0
 28 23  1  0  0  0
 11  1  1  0  0  0
 18 12  1  0  0  0
  9  3  1  0  0  0
 21 10  1  0  0  0
 16 22  1  0  0  0
M  END
> <minimizedAffinity>
10.49471

> <CNNscore>
0.3471386433

> <CNNaffinity>
7.4206228256

> <CNN_VS>
2.5759849548

> <CNNaffinity_variance>
0.5961069465

$$$$
[H]Oc1c([H])c([H])c2c(c1[H])OC([H])([H])C([H])([H])C1=C2[C@@]([H])(c2c([H])c([H])c(OC([H])([H])C([H])([H])N(C([H])([H])C([H])([H])[H])C([H])([H])C([H])([H])[H])c([H])c2[H])Oc2c([H])c(F)c([H])c([H])c21


 36 40  0  0  0  0  0  0  0  0999 V2000
    7.8459   45.3558  130.0770 C   0  0  0  0  0  0  0  0  0  0  0  0
    6.5832   45.9622  130.1965 O   0  0  0  0  0  0  0  0  0  0  0  0
    6.1711   47.1637  129.7682 C   0  0  0  0  0  0  0  0  0  0  0  0
    4.8770   47.6099  129.9805 C   0  0  0  0  0  0  0  0  0  0  0  0
    4.4616   48.8208  129.5500 C   0  0  0  0  0  0  0  0  0  0  0  0
    3.1665   49.2652  129.7629 F   0  0  0  0  0  0  0  0  0  0  0  0
    5.3540   49.6153  128.8889 C   0  0  0  0  0  0  0  0  0  0  0  0
    6.6610   49.2243  128.6463 C   0  0  0  0  0  0  0  0  0  0  0  0
    7.0706   47.9711  129.0977 C   0  0  0  0  0  0  0  0  0  0  0  0
    8.4072   47.4715  128.8975 C   0  0  0  0  0  0  0  0  0  0  0  0
    8.7181   46.2362  129.3765 C   0  0  0  0  0  0  0  0  0  0  0  0
   10.0957   45.7271  129.1656 C   0  0  0  0  0  0  0  0  0  0  0  0
   10.0987   44.3789  129.0970 C   0  0  0  0  0  0  0  0  0  0  0  0
   11.2681   43.6641  128.9113 C   0  0  0  0  0  0  0  0  0  0  0  0
   12.4562   44.3703  128.7940 C   0  0  0  0  0  0  0  0  0  0  0  0
   13.6682   43.6791  128.6043 O   0  0  0  0  0  0  0  0  0  0  0  0
   12.4847   45.7429  128.8584 C   0  0  0  0  0  0  0  0  0  0  0  0
   11.2823   46.4289  129.0473 C   0  0  0  0  0  0  0  0  0  0  0  0
   11.4354   47.7992  129.0934 O   0  0  0  0  0  0  0  0  0  0  0  0
   10.4791   48.8273  129.0337 C   0  0  0  0  0  0  0  0  0  0  0  0
    9.2876   48.4124  128.1884 C   0  0  0  0  0  0  0  0  0  0  0  0
   14.0196   43.4585  127.6893 H   0  0  0  0  0  0  0  0  0  0  0  0
    8.6765   44.8539  134.2688 C   0  0  0  0  0  0  0  0  0  0  0  0
    8.5341   43.7781  133.4213 C   0  0  0  0  0  0  0  0  0  0  0  0
    8.2673   43.9780  132.0831 C   0  0  0  0  0  0  0  0  0  0  0  0
    8.1391   45.2296  131.5661 C   0  0  0  0  0  0  0  0  0  0  0  0
    8.2769   46.3097  132.3855 C   0  0  0  0  0  0  0  0  0  0  0  0
    8.5402   46.1305  133.7096 C   0  0  0  0  0  0  0  0  0  0  0  0
    8.9387   44.7323  135.6156 O   0  0  0  0  0  0  0  0  0  0  0  0
   10.1027   44.6930  136.3261 C   0  0  0  0  0  0  0  0  0  0  0  0
   11.2245   43.8632  135.8240 C   0  0  0  0  0  0  0  0  0  0  0  0
   11.6671   44.1925  134.4980 N   0  0  0  0  0  0  0  0  0  0  0  0
   11.8980   45.9166  132.8280 C   0  0  0  0  0  0  0  0  0  0  0  0
   12.0896   45.4927  134.2588 C   0  0  0  0  0  0  0  0  0  0  0  0
   11.4233   43.2673  133.4867 C   0  0  0  0  0  0  0  0  0  0  0  0
   12.5567   43.1597  132.5040 C   0  0  0  0  0  0  0  0  0  0  0  0
 33 34  1  0  0  0
 34 32  1  0  0  0
 32 35  1  0  0  0
 35 36  1  0  0  0
 32 31  1  0  0  0
 31 30  1  0  0  0
 30 29  1  0  0  0
 29 23  1  0  0  0
 23 24  2  0  0  0
 24 25  1  0  0  0
 25 26  2  0  0  0
 26 27  1  0  0  0
 27 28  2  0  0  0
 26  1  1  0  0  0
  1  2  1  0  0  0
  2  3  1  0  0  0
  3  4  2  0  0  0
  4  5  1  0  0  0
  5  6  1  0  0  0
  5  7  2  0  0  0
  7  8  1  0  0  0
  8  9  2  0  0  0
  9 10  1  0  0  0
 10 11  2  0  0  0
 11 12  1  0  0  0
 12 13  2  0  0  0
 13 14  1  0  0  0
 14 15  2  0  0  0
 15 16  1  0  0  0
 15 17  1  0  0  0
 17 18  2  0  0  0
 18 19  1  0  0  0
 19 20  1  0  0  0
 20 21  1  0  0  0
 28 23  1  0  0  0
 11  1  1  0  0  0
 18 12  1  0  0  0
  9  3  1  0  0  0
 21 10  1  0  0  0
 16 22  1  0  0  0
M  END
> <minimizedAffinity>
12.06149

> <CNNscore>
0.3400239646

> <CNNaffinity>
7.4914026260

> <CNN_VS>
2.5472564697

> <CNNaffinity_variance>
1.2108256817

$$$$
[H]OC(=O)/C([H])=C(\[H])c1c([H])c([H])c(Oc2c(-c3c([H])c([H])c([H])c([H])c3[C@]([H])(O[H])C([H])([H])[H])sc3c([H])c(O[H])c([H])c([H])c23)c([H])c1[H]


 34 37  0  0  0  0  0  0  0  0999 V2000
    9.3911   46.9168  132.4645 C   0  0  0  0  0  0  0  0  0  0  0  0
    9.4009   48.6343  132.5163 S   0  0  0  0  0  0  0  0  0  0  0  0
    8.5200   48.9869  131.1222 C   0  0  0  0  0  0  0  0  0  0  0  0
    8.1312   50.1876  130.5289 C   0  0  0  0  0  0  0  0  0  0  0  0
    7.3959   50.1742  129.3616 C   0  0  0  0  0  0  0  0  0  0  0  0
    7.0022   51.3417  128.7600 O   0  0  0  0  0  0  0  0  0  0  0  0
    7.0971   48.9172  128.8622 C   0  0  0  0  0  0  0  0  0  0  0  0
    7.4736   47.7459  129.4365 C   0  0  0  0  0  0  0  0  0  0  0  0
    8.2267   47.7548  130.6319 C   0  0  0  0  0  0  0  0  0  0  0  0
    8.6744   46.6751  131.3237 C   0  0  0  0  0  0  0  0  0  0  0  0
    6.0971   51.7289  129.0413 H   0  0  0  0  0  0  0  0  0  0  0  0
   10.9735   45.0956  133.1247 C   0  0  0  0  0  0  0  0  0  0  0  0
   11.4736   44.1937  134.0719 C   0  0  0  0  0  0  0  0  0  0  0  0
   10.9624   44.1775  135.3415 C   0  0  0  0  0  0  0  0  0  0  0  0
    9.9577   45.0333  135.7161 C   0  0  0  0  0  0  0  0  0  0  0  0
    9.4959   45.9070  134.7420 C   0  0  0  0  0  0  0  0  0  0  0  0
    9.9696   45.9717  133.4537 C   0  0  0  0  0  0  0  0  0  0  0  0
   12.9810   45.6406  131.7807 C   0  0  0  0  0  0  0  0  0  0  0  0
   11.5793   45.0092  131.7932 C   0  0  0  0  0  0  0  0  0  0  0  0
   11.8611   43.6605  131.4570 O   0  0  0  0  0  0  0  0  0  0  0  0
   11.7401   43.1101  132.2481 H   0  0  0  0  0  0  0  0  0  0  0  0
    8.4137   45.3207  130.9028 O   0  0  0  0  0  0  0  0  0  0  0  0
    9.1967   44.8270  129.8372 C   0  0  0  0  0  0  0  0  0  0  0  0
    9.0359   43.5241  129.4431 C   0  0  0  0  0  0  0  0  0  0  0  0
    9.7696   42.9939  128.4151 C   0  0  0  0  0  0  0  0  0  0  0  0
   10.7097   43.7605  127.7293 C   0  0  0  0  0  0  0  0  0  0  0  0
   10.8733   45.0682  128.1224 C   0  0  0  0  0  0  0  0  0  0  0  0
   10.1203   45.5920  129.1687 C   0  0  0  0  0  0  0  0  0  0  0  0
   11.4705   43.1407  126.6326 C   0  0  0  0  0  0  0  0  0  0  0  0
   12.7775   42.9927  126.6539 C   0  0  0  0  0  0  0  0  0  0  0  0
   13.4305   42.3675  125.5191 C   0  0  0  0  0  0  0  0  0  0  0  0
   14.1620   43.1166  124.6370 O   0  0  0  0  0  0  0  0  0  0  0  0
   13.3147   41.1321  125.3592 O   0  0  0  0  0  0  0  0  0  0  0  0
   14.7814   43.8679  124.8508 H   0  0  0  0  0  0  0  0  0  0  0  0
 18 19  1  0  0  0
 19 20  1  0  0  0
 19 12  1  0  0  0
 12 13  2  0  0  0
 13 14  1  0  0  0
 14 15  2  0  0  0
 15 16  1  0  0  0
 16 17  2  0  0  0
 17  1  1  0  0  0
  1  2  1  0  0  0
  2  3  1  0  0  0
  3  4  2  0  0  0
  4  5  1  0  0  0
  5  6  1  0  0  0
  5  7  2  0  0  0
  7  8  1  0  0  0
  8  9  2  0  0  0
  9 10  1  0  0  0
 10 22  1  0  0  0
 22 23  1  0  0  0
 23 24  2  0  0  0
 24 25  1  0  0  0
 25 26  2  0  0  0
 26 29  1  0  0  0
 29 30  2  0  0  0
 30 31  1  0  0  0
 31 32  1  0  0  0
 31 33  2  0  0  0
 26 27  1  0  0  0
 27 28  2  0  0  0
 17 12  1  0  0  0
 10  1  2  0  0  0
 28 23  1  0  0  0
  9  3  1  0  0  0
 20 21  1  0  0  0
  6 11  1  0  0  0
 32 34  1  0  0  0
M  END
> <minimizedAffinity>
3.86336

> <CNNscore>
0.5513197780

> <CNNaffinity>
7.9670763016

> <CNN_VS>
4.3924069405

> <CNNaffinity_variance>
0.7600554824

$$$$
[H]OC(=O)/C([H])=C(\[H])c1c([H])c([H])c(Oc2c(-c3c([H])c([H])c([H])c([H])c3[C@]([H])(O[H])C([H])([H])[H])sc3c([H])c(O[H])c([H])c([H])c23)c([H])c1[H]


 34 37  0  0  0  0  0  0  0  0999 V2000
    9.8590   46.6974  131.5933 C   0  0  0  0  0  0  0  0  0  0  0  0
   10.1510   48.3817  131.4191 S   0  0  0  0  0  0  0  0  0  0  0  0
    8.7796   48.8414  130.5519 C   0  0  0  0  0  0  0  0  0  0  0  0
    8.3424   50.0698  130.0575 C   0  0  0  0  0  0  0  0  0  0  0  0
    7.1497   50.1515  129.3690 C   0  0  0  0  0  0  0  0  0  0  0  0
    6.6992   51.3481  128.8736 O   0  0  0  0  0  0  0  0  0  0  0  0
    6.4645   48.9565  129.2239 C   0  0  0  0  0  0  0  0  0  0  0  0
    6.8865   47.7585  129.7035 C   0  0  0  0  0  0  0  0  0  0  0  0
    8.1073   47.6700  130.4092 C   0  0  0  0  0  0  0  0  0  0  0  0
    8.6605   46.5528  130.9481 C   0  0  0  0  0  0  0  0  0  0  0  0
    6.1053   51.9127  129.4874 H   0  0  0  0  0  0  0  0  0  0  0  0
   10.5508   45.4781  133.6648 C   0  0  0  0  0  0  0  0  0  0  0  0
   11.3705   44.5535  134.3237 C   0  0  0  0  0  0  0  0  0  0  0  0
   12.3204   43.8581  133.6255 C   0  0  0  0  0  0  0  0  0  0  0  0
   12.4940   44.0461  132.2776 C   0  0  0  0  0  0  0  0  0  0  0  0
   11.6581   44.9727  131.6709 C   0  0  0  0  0  0  0  0  0  0  0  0
   10.6867   45.6988  132.3171 C   0  0  0  0  0  0  0  0  0  0  0  0
    8.1793   45.5739  134.3723 C   0  0  0  0  0  0  0  0  0  0  0  0
    9.5851   46.1798  134.5148 C   0  0  0  0  0  0  0  0  0  0  0  0
    9.8659   45.9524  135.8862 O   0  0  0  0  0  0  0  0  0  0  0  0
   10.5355   45.2522  135.9555 H   0  0  0  0  0  0  0  0  0  0  0  0
    8.0307   45.2579  130.8669 O   0  0  0  0  0  0  0  0  0  0  0  0
    8.6234   44.3192  129.9953 C   0  0  0  0  0  0  0  0  0  0  0  0
    8.9735   44.7158  128.7309 C   0  0  0  0  0  0  0  0  0  0  0  0
    9.5516   43.8459  127.8447 C   0  0  0  0  0  0  0  0  0  0  0  0
    9.8063   42.5216  128.1955 C   0  0  0  0  0  0  0  0  0  0  0  0
    9.4562   42.1206  129.4636 C   0  0  0  0  0  0  0  0  0  0  0  0
    8.8696   43.0164  130.3522 C   0  0  0  0  0  0  0  0  0  0  0  0
   10.4295   41.6298  127.2046 C   0  0  0  0  0  0  0  0  0  0  0  0
   10.1193   40.3572  127.0824 C   0  0  0  0  0  0  0  0  0  0  0  0
   10.7943   39.5653  126.0713 C   0  0  0  0  0  0  0  0  0  0  0  0
   12.1603   39.4758  126.0541 O   0  0  0  0  0  0  0  0  0  0  0  0
   10.1080   38.9649  125.2148 O   0  0  0  0  0  0  0  0  0  0  0  0
   12.7698   39.3837  126.8377 H   0  0  0  0  0  0  0  0  0  0  0  0
 18 19  1  0  0  0
 19 20  1  0  0  0
 19 12  1  0  0  0
 12 13  2  0  0  0
 13 14  1  0  0  0
 14 15  2  0  0  0
 15 16  1  0  0  0
 16 17  2  0  0  0
 17  1  1  0  0  0
  1  2  1  0  0  0
  2  3  1  0  0  0
  3  4  2  0  0  0
  4  5  1  0  0  0
  5  6  1  0  0  0
  5  7  2  0  0  0
  7  8  1  0  0  0
  8  9  2  0  0  0
  9 10  1  0  0  0
 10 22  1  0  0  0
 22 23  1  0  0  0
 23 24  2  0  0  0
 24 25  1  0  0  0
 25 26  2  0  0  0
 26 29  1  0  0  0
 29 30  2  0  0  0
 30 31  1  0  0  0
 31 32  1  0  0  0
 31 33  2  0  0  0
 26 27  1  0  0  0
 27 28  2  0  0  0
 17 12  1  0  0  0
 10  1  2  0  0  0
 28 23  1  0  0  0
  9  3  1  0  0  0
 20 21  1  0  0  0
  6 11  1  0  0  0
 32 34  1  0  0  0
M  END
> <minimizedAffinity>
2.65874

> <CNNscore>
0.5493328571

> <CNNaffinity>
8.1769618988

> <CNN_VS>
4.4918737411

> <CNNaffinity_variance>
1.1842668056

$$$$
[H]OC(=O)/C([H])=C(\[H])c1c([H])c([H])c(Oc2c(-c3c([H])c([H])c([H])c([H])c3[C@]([H])(O[H])C([H])([H])[H])sc3c([H])c(O[H])c([H])c([H])c23)c([H])c1[H]


 34 37  0  0  0  0  0  0  0  0999 V2000
    9.7383   46.7180  132.1259 C   0  0  0  0  0  0  0  0  0  0  0  0
   10.0544   48.3949  131.9241 S   0  0  0  0  0  0  0  0  0  0  0  0
    8.7859   48.8237  130.8990 C   0  0  0  0  0  0  0  0  0  0  0  0
    8.4094   50.0338  130.3172 C   0  0  0  0  0  0  0  0  0  0  0  0
    7.2977   50.0913  129.5022 C   0  0  0  0  0  0  0  0  0  0  0  0
    6.9081   51.2696  128.9191 O   0  0  0  0  0  0  0  0  0  0  0  0
    6.6270   48.8921  129.3271 C   0  0  0  0  0  0  0  0  0  0  0  0
    6.9900   47.7119  129.8915 C   0  0  0  0  0  0  0  0  0  0  0  0
    8.1277   47.6482  130.7268 C   0  0  0  0  0  0  0  0  0  0  0  0
    8.6152   46.5508  131.3614 C   0  0  0  0  0  0  0  0  0  0  0  0
    6.2542   51.8560  129.4452 H   0  0  0  0  0  0  0  0  0  0  0  0
   11.6341   45.1400  132.5408 C   0  0  0  0  0  0  0  0  0  0  0  0
   12.2904   44.2019  133.3470 C   0  0  0  0  0  0  0  0  0  0  0  0
   11.7831   43.8783  134.5764 C   0  0  0  0  0  0  0  0  0  0  0  0
   10.6311   44.4566  135.0465 C   0  0  0  0  0  0  0  0  0  0  0  0
   10.0180   45.3791  134.2107 C   0  0  0  0  0  0  0  0  0  0  0  0
   10.4795   45.7456  132.9693 C   0  0  0  0  0  0  0  0  0  0  0  0
   12.9487   44.1296  130.7011 C   0  0  0  0  0  0  0  0  0  0  0  0
   12.2543   45.3922  131.2374 C   0  0  0  0  0  0  0  0  0  0  0  0
   11.2653   45.6266  130.2483 O   0  0  0  0  0  0  0  0  0  0  0  0
   10.3949   45.4076  130.6197 H   0  0  0  0  0  0  0  0  0  0  0  0
    7.9923   45.2542  131.2593 O   0  0  0  0  0  0  0  0  0  0  0  0
    8.5620   44.3489  130.3383 C   0  0  0  0  0  0  0  0  0  0  0  0
    8.5424   44.6593  129.0034 C   0  0  0  0  0  0  0  0  0  0  0  0
    9.0809   43.8169  128.0671 C   0  0  0  0  0  0  0  0  0  0  0  0
    9.6704   42.6096  128.4367 C   0  0  0  0  0  0  0  0  0  0  0  0
    9.6916   42.2953  129.7754 C   0  0  0  0  0  0  0  0  0  0  0  0
    9.1403   43.1617  130.7143 C   0  0  0  0  0  0  0  0  0  0  0  0
   10.2338   41.7424  127.3897 C   0  0  0  0  0  0  0  0  0  0  0  0
   10.0143   40.4467  127.3297 C   0  0  0  0  0  0  0  0  0  0  0  0
   10.6184   39.6826  126.2544 C   0  0  0  0  0  0  0  0  0  0  0  0
   11.9800   39.6067  126.1337 O   0  0  0  0  0  0  0  0  0  0  0  0
    9.8750   39.0936  125.4386 O   0  0  0  0  0  0  0  0  0  0  0  0
   12.6470   39.5041  126.8676 H   0  0  0  0  0  0  0  0  0  0  0  0
 18 19  1  0  0  0
 19 20  1  0  0  0
 19 12  1  0  0  0
 12 13  2  0  0  0
 13 14  1  0  0  0
 14 15  2  0  0  0
 15 16  1  0  0  0
 16 17  2  0  0  0
 17  1  1  0  0  0
  1  2  1  0  0  0
  2  3  1  0  0  0
  3  4  2  0  0  0
  4  5  1  0  0  0
  5  6  1  0  0  0
  5  7  2  0  0  0
  7  8  1  0  0  0
  8  9  2  0  0  0
  9 10  1  0  0  0
 10 22  1  0  0  0
 22 23  1  0  0  0
 23 24  2  0  0  0
 24 25  1  0  0  0
 25 26  2  0  0  0
 26 29  1  0  0  0
 29 30  2  0  0  0
 30 31  1  0  0  0
 31 32  1  0  0  0
 31 33  2  0  0  0
 26 27  1  0  0  0
 27 28  2  0  0  0
 17 12  1  0  0  0
 10  1  2  0  0  0
 28 23  1  0  0  0
  9  3  1  0  0  0
 20 21  1  0  0  0
  6 11  1  0  0  0
 32 34  1  0  0  0
M  END
> <minimizedAffinity>
2.70222

> <CNNscore>
0.5406415462

> <CNNaffinity>
8.0546474457

> <CNN_VS>
4.3546772003

> <CNNaffinity_variance>
1.2028347254

$$$$
[H]OC(=O)/C([H])=C(\[H])c1c([H])c([H])c(Oc2c(-c3c([H])c([H])c([H])c([H])c3[C@]([H])(O[H])C([H])([H])[H])sc3c([H])c(O[H])c([H])c([H])c23)c([H])c1[H]


 34 37  0  0  0  0  0  0  0  0999 V2000
    9.9046   47.0465  131.7467 C   0  0  0  0  0  0  0  0  0  0  0  0
   10.0569   48.7574  131.7937 S   0  0  0  0  0  0  0  0  0  0  0  0
    8.7879   49.2051  130.7773 C   0  0  0  0  0  0  0  0  0  0  0  0
    8.3117   50.4443  130.3504 C   0  0  0  0  0  0  0  0  0  0  0  0
    7.2288   50.5111  129.4982 C   0  0  0  0  0  0  0  0  0  0  0  0
    6.7427   51.7179  129.0650 O   0  0  0  0  0  0  0  0  0  0  0  0
    6.6887   49.2907  129.1272 C   0  0  0  0  0  0  0  0  0  0  0  0
    7.1491   48.0822  129.5403 C   0  0  0  0  0  0  0  0  0  0  0  0
    8.2579   48.0089  130.4130 C   0  0  0  0  0  0  0  0  0  0  0  0
    8.8312   46.8838  130.9130 C   0  0  0  0  0  0  0  0  0  0  0  0
    6.0153   52.1589  129.6346 H   0  0  0  0  0  0  0  0  0  0  0  0
   10.4839   45.7489  133.8051 C   0  0  0  0  0  0  0  0  0  0  0  0
   11.2839   44.8183  134.4795 C   0  0  0  0  0  0  0  0  0  0  0  0
   12.3049   44.1865  133.8224 C   0  0  0  0  0  0  0  0  0  0  0  0
   12.5699   44.4450  132.5014 C   0  0  0  0  0  0  0  0  0  0  0  0
   11.7499   45.3747  131.8778 C   0  0  0  0  0  0  0  0  0  0  0  0
   10.7103   46.0391  132.4829 C   0  0  0  0  0  0  0  0  0  0  0  0
    8.0796   45.6886  134.3960 C   0  0  0  0  0  0  0  0  0  0  0  0
    9.4360   46.3793  134.6125 C   0  0  0  0  0  0  0  0  0  0  0  0
    9.6636   46.1539  135.9941 O   0  0  0  0  0  0  0  0  0  0  0  0
   10.3718   45.4960  136.0903 H   0  0  0  0  0  0  0  0  0  0  0  0
    8.3461   45.5615  130.6030 O   0  0  0  0  0  0  0  0  0  0  0  0
    9.0919   44.8176  129.6635 C   0  0  0  0  0  0  0  0  0  0  0  0
   10.0397   45.4597  128.9099 C   0  0  0  0  0  0  0  0  0  0  0  0
   10.7915   44.7861  127.9840 C   0  0  0  0  0  0  0  0  0  0  0  0
   10.6212   43.4194  127.7724 C   0  0  0  0  0  0  0  0  0  0  0  0
    9.6710   42.7723  128.5272 C   0  0  0  0  0  0  0  0  0  0  0  0
    8.9152   43.4707  129.4637 C   0  0  0  0  0  0  0  0  0  0  0  0
   11.4559   42.7453  126.7652 C   0  0  0  0  0  0  0  0  0  0  0  0
   12.7016   43.0858  126.5146 C   0  0  0  0  0  0  0  0  0  0  0  0
   13.4372   42.3549  125.4998 C   0  0  0  0  0  0  0  0  0  0  0  0
   14.3051   43.0057  124.6645 O   0  0  0  0  0  0  0  0  0  0  0  0
   13.2661   41.1197  125.4000 O   0  0  0  0  0  0  0  0  0  0  0  0
   14.9410   43.7355  124.9033 H   0  0  0  0  0  0  0  0  0  0  0  0
 18 19  1  0  0  0
 19 20  1  0  0  0
 19 12  1  0  0  0
 12 13  2  0  0  0
 13 14  1  0  0  0
 14 15  2  0  0  0
 15 16  1  0  0  0
 16 17  2  0  0  0
 17  1  1  0  0  0
  1  2  1  0  0  0
  2  3  1  0  0  0
  3  4  2  0  0  0
  4  5  1  0  0  0
  5  6  1  0  0  0
  5  7  2  0  0  0
  7  8  1  0  0  0
  8  9  2  0  0  0
  9 10  1  0  0  0
 10 22  1  0  0  0
 22 23  1  0  0  0
 23 24  2  0  0  0
 24 25  1  0  0  0
 25 26  2  0  0  0
 26 29  1  0  0  0
 29 30  2  0  0  0
 30 31  1  0  0  0
 31 32  1  0  0  0
 31 33  2  0  0  0
 26 27  1  0  0  0
 27 28  2  0  0  0
 17 12  1  0  0  0
 10  1  2  0  0  0
 28 23  1  0  0  0
  9  3  1  0  0  0
 20 21  1  0  0  0
  6 11  1  0  0  0
 32 34  1  0  0  0
M  END
> <minimizedAffinity>
3.59844

> <CNNscore>
0.4622180760

> <CNNaffinity>
7.8046989441

> <CNN_VS>
3.6074728966

> <CNNaffinity_variance>
0.3510348499

$$$$
[H]OC(=O)/C([H])=C(\[H])c1c([H])c([H])c(Oc2c(-c3c([H])c([H])c([H])c([H])c3[C@]([H])(O[H])C([H])([H])[H])sc3c([H])c(O[H])c([H])c([H])c23)c([H])c1[H]


 34 37  0  0  0  0  0  0  0  0999 V2000
    8.1391   45.6050  130.6385 C   0  0  0  0  0  0  0  0  0  0  0  0
    6.4346   45.6795  130.4336 S   0  0  0  0  0  0  0  0  0  0  0  0
    6.2562   47.2818  129.9391 C   0  0  0  0  0  0  0  0  0  0  0  0
    5.1416   48.0451  129.5932 C   0  0  0  0  0  0  0  0  0  0  0  0
    5.2976   49.3634  129.2173 C   0  0  0  0  0  0  0  0  0  0  0  0
    4.2168   50.1336  128.8729 O   0  0  0  0  0  0  0  0  0  0  0  0
    6.6016   49.8307  129.2174 C   0  0  0  0  0  0  0  0  0  0  0  0
    7.6895   49.0912  129.5535 C   0  0  0  0  0  0  0  0  0  0  0  0
    7.5345   47.7407  129.9390 C   0  0  0  0  0  0  0  0  0  0  0  0
    8.5177   46.8759  130.2997 C   0  0  0  0  0  0  0  0  0  0  0  0
    3.9421   50.1367  127.8866 H   0  0  0  0  0  0  0  0  0  0  0  0
    9.6981   43.7216  130.1103 C   0  0  0  0  0  0  0  0  0  0  0  0
   10.4346   42.5971  130.5022 C   0  0  0  0  0  0  0  0  0  0  0  0
   10.4247   42.1910  131.8093 C   0  0  0  0  0  0  0  0  0  0  0  0
    9.7009   42.8658  132.7596 C   0  0  0  0  0  0  0  0  0  0  0  0
    8.9878   43.9726  132.3216 C   0  0  0  0  0  0  0  0  0  0  0  0
    8.9601   44.4293  131.0258 C   0  0  0  0  0  0  0  0  0  0  0  0
   11.1259   44.6664  128.3208 C   0  0  0  0  0  0  0  0  0  0  0  0
    9.7646   44.0510  128.6839 C   0  0  0  0  0  0  0  0  0  0  0  0
    9.7553   42.8718  127.8960 O   0  0  0  0  0  0  0  0  0  0  0  0
    9.8708   42.1050  128.4809 H   0  0  0  0  0  0  0  0  0  0  0  0
    9.9101   47.2504  130.3255 O   0  0  0  0  0  0  0  0  0  0  0  0
   10.4774   47.4914  131.5953 C   0  0  0  0  0  0  0  0  0  0  0  0
   11.4050   46.6098  132.0863 C   0  0  0  0  0  0  0  0  0  0  0  0
   11.9869   46.7956  133.3124 C   0  0  0  0  0  0  0  0  0  0  0  0
   11.6573   47.8904  134.1090 C   0  0  0  0  0  0  0  0  0  0  0  0
   10.7269   48.7768  133.6190 C   0  0  0  0  0  0  0  0  0  0  0  0
   10.1448   48.5740  132.3717 C   0  0  0  0  0  0  0  0  0  0  0  0
   12.3129   48.0416  135.4178 C   0  0  0  0  0  0  0  0  0  0  0  0
   13.2469   48.9362  135.6586 C   0  0  0  0  0  0  0  0  0  0  0  0
   13.8291   49.0015  136.9859 C   0  0  0  0  0  0  0  0  0  0  0  0
   13.2937   49.8229  137.9415 O   0  0  0  0  0  0  0  0  0  0  0  0
   14.8287   48.2949  137.2439 O   0  0  0  0  0  0  0  0  0  0  0  0
   12.3276   49.9868  138.1252 H   0  0  0  0  0  0  0  0  0  0  0  0
 18 19  1  0  0  0
 19 20  1  0  0  0
 19 12  1  0  0  0
 12 13  2  0  0  0
 13 14  1  0  0  0
 14 15  2  0  0  0
 15 16  1  0  0  0
 16 17  2  0  0  0
 17  1  1  0  0  0
  1  2  1  0  0  0
  2  3  1  0  0  0
  3  4  2  0  0  0
  4  5  1  0  0  0
  5  6  1  0  0  0
  5  7  2  0  0  0
  7  8  1  0  0  0
  8  9  2  0  0  0
  9 10  1  0  0  0
 10 22  1  0  0  0
 22 23  1  0  0  0
 23 24  2  0  0  0
 24 25  1  0  0  0
 25 26  2  0  0  0
 26 29  1  0  0  0
 29 30  2  0  0  0
 30 31  1  0  0  0
 31 32  1  0  0  0
 31 33  2  0  0  0
 26 27  1  0  0  0
 27 28  2  0  0  0
 17 12  1  0  0  0
 10  1  2  0  0  0
 28 23  1  0  0  0
  9  3  1  0  0  0
 20 21  1  0  0  0
  6 11  1  0  0  0
 32 34  1  0  0  0
M  END
> <minimizedAffinity>
3.30285

> <CNNscore>
0.4579901993

> <CNNaffinity>
7.7337388992

> <CNN_VS>
3.5419766903

> <CNNaffinity_variance>
0.9990882874

$$$$
[H]OC(=O)/C([H])=C(\[H])c1c([H])c([H])c(Oc2c(-c3c([H])c([H])c([H])c([H])c3[C@]([H])(O[H])C([H])([H])[H])sc3c([H])c(O[H])c([H])c([H])c23)c([H])c1[H]


 34 37  0  0  0  0  0  0  0  0999 V2000
    8.2719   45.6107  130.6127 C   0  0  0  0  0  0  0  0  0  0  0  0
    6.5655   45.6529  130.4151 S   0  0  0  0  0  0  0  0  0  0  0  0
    6.3548   47.2512  129.9201 C   0  0  0  0  0  0  0  0  0  0  0  0
    5.2245   47.9930  129.5783 C   0  0  0  0  0  0  0  0  0  0  0  0
    5.3541   49.3137  129.2008 C   0  0  0  0  0  0  0  0  0  0  0  0
    4.2575   50.0631  128.8604 O   0  0  0  0  0  0  0  0  0  0  0  0
    6.6490   49.8054  129.1948 C   0  0  0  0  0  0  0  0  0  0  0  0
    7.7520   49.0868  129.5268 C   0  0  0  0  0  0  0  0  0  0  0  0
    7.6242   47.7341  129.9140 C   0  0  0  0  0  0  0  0  0  0  0  0
    8.6250   46.8882  130.2712 C   0  0  0  0  0  0  0  0  0  0  0  0
    3.9785   50.0602  127.8753 H   0  0  0  0  0  0  0  0  0  0  0  0
    9.2319   44.0328  132.2994 C   0  0  0  0  0  0  0  0  0  0  0  0
   10.0636   42.9568  132.6332 C   0  0  0  0  0  0  0  0  0  0  0  0
   10.7732   42.3092  131.6584 C   0  0  0  0  0  0  0  0  0  0  0  0
   10.6909   42.6923  130.3436 C   0  0  0  0  0  0  0  0  0  0  0  0
    9.8543   43.7634  130.0639 C   0  0  0  0  0  0  0  0  0  0  0  0
    9.1165   44.4510  130.9973 C   0  0  0  0  0  0  0  0  0  0  0  0
    9.4942   44.8906  134.6079 C   0  0  0  0  0  0  0  0  0  0  0  0
    8.5382   44.6641  133.4253 C   0  0  0  0  0  0  0  0  0  0  0  0
    8.1552   45.9900  133.0986 O   0  0  0  0  0  0  0  0  0  0  0  0
    8.5800   46.2401  132.2616 H   0  0  0  0  0  0  0  0  0  0  0  0
   10.0102   47.2889  130.2907 O   0  0  0  0  0  0  0  0  0  0  0  0
   10.6015   47.4615  131.5607 C   0  0  0  0  0  0  0  0  0  0  0  0
   10.2102   48.5213  132.3367 C   0  0  0  0  0  0  0  0  0  0  0  0
   10.7513   48.7358  133.5767 C   0  0  0  0  0  0  0  0  0  0  0  0
   11.7224   47.8830  134.0975 C   0  0  0  0  0  0  0  0  0  0  0  0
   12.1172   46.8186  133.3212 C   0  0  0  0  0  0  0  0  0  0  0  0
   11.5580   46.6144  132.0636 C   0  0  0  0  0  0  0  0  0  0  0  0
   12.2700   48.1600  135.4351 C   0  0  0  0  0  0  0  0  0  0  0  0
   13.4533   48.6994  135.6335 C   0  0  0  0  0  0  0  0  0  0  0  0
   13.8986   48.9308  136.9949 C   0  0  0  0  0  0  0  0  0  0  0  0
   13.2076   49.7778  137.8192 O   0  0  0  0  0  0  0  0  0  0  0  0
   14.9247   48.3435  137.4041 O   0  0  0  0  0  0  0  0  0  0  0  0
   12.2181   49.8672  137.9015 H   0  0  0  0  0  0  0  0  0  0  0  0
 18 19  1  0  0  0
 19 20  1  0  0  0
 19 12  1  0  0  0
 12 13  2  0  0  0
 13 14  1  0  0  0
 14 15  2  0  0  0
 15 16  1  0  0  0
 16 17  2  0  0  0
 17  1  1  0  0  0
  1  2  1  0  0  0
  2  3  1  0  0  0
  3  4  2  0  0  0
  4  5  1  0  0  0
  5  6  1  0  0  0
  5  7  2  0  0  0
  7  8  1  0  0  0
  8  9  2  0  0  0
  9 10  1  0  0  0
 10 22  1  0  0  0
 22 23  1  0  0  0
 23 24  2  0  0  0
 24 25  1  0  0  0
 25 26  2  0  0  0
 26 29  1  0  0  0
 29 30  2  0  0  0
 30 31  1  0  0  0
 31 32  1  0  0  0
 31 33  2  0  0  0
 26 27  1  0  0  0
 27 28  2  0  0  0
 17 12  1  0  0  0
 10  1  2  0  0  0
 28 23  1  0  0  0
  9  3  1  0  0  0
 20 21  1  0  0  0
  6 11  1  0  0  0
 32 34  1  0  0  0
M  END
> <minimizedAffinity>
4.34099

> <CNNscore>
0.4488599300

> <CNNaffinity>
7.3536009789

> <CNN_VS>
3.3007369041

> <CNNaffinity_variance>
0.3879913688

$$$$
[H]OC(=O)/C([H])=C(\[H])c1c([H])c([H])c(Oc2c(-c3c([H])c([H])c([H])c([H])c3[C@]([H])(O[H])C([H])([H])[H])sc3c([H])c(O[H])c([H])c([H])c23)c([H])c1[H]


 34 37  0  0  0  0  0  0  0  0999 V2000
   10.1806   45.4157  132.1517 C   0  0  0  0  0  0  0  0  0  0  0  0
   11.6815   44.8463  131.5389 S   0  0  0  0  0  0  0  0  0  0  0  0
   11.2586   44.5342  129.9365 C   0  0  0  0  0  0  0  0  0  0  0  0
   11.9802   44.0487  128.8465 C   0  0  0  0  0  0  0  0  0  0  0  0
   11.3611   43.8923  127.6235 C   0  0  0  0  0  0  0  0  0  0  0  0
   12.0500   43.4168  126.5375 O   0  0  0  0  0  0  0  0  0  0  0  0
   10.0224   44.2459  127.5859 C   0  0  0  0  0  0  0  0  0  0  0  0
    9.3161   44.7189  128.6446 C   0  0  0  0  0  0  0  0  0  0  0  0
    9.9459   44.8807  129.8989 C   0  0  0  0  0  0  0  0  0  0  0  0
    9.3794   45.3404  131.0445 C   0  0  0  0  0  0  0  0  0  0  0  0
   12.5156   44.1073  125.9421 H   0  0  0  0  0  0  0  0  0  0  0  0
   10.3173   45.2531  134.6440 C   0  0  0  0  0  0  0  0  0  0  0  0
    9.9913   45.7278  135.9203 C   0  0  0  0  0  0  0  0  0  0  0  0
    9.2323   46.8583  136.0594 C   0  0  0  0  0  0  0  0  0  0  0  0
    8.7751   47.5486  134.9654 C   0  0  0  0  0  0  0  0  0  0  0  0
    9.1244   47.0381  133.7233 C   0  0  0  0  0  0  0  0  0  0  0  0
    9.8837   45.9109  133.5202 C   0  0  0  0  0  0  0  0  0  0  0  0
   11.4305   43.5353  136.0382 C   0  0  0  0  0  0  0  0  0  0  0  0
   11.1148   44.0240  134.6151 C   0  0  0  0  0  0  0  0  0  0  0  0
   10.3548   42.9452  134.0954 O   0  0  0  0  0  0  0  0  0  0  0  0
    9.4265   43.2225  134.0262 H   0  0  0  0  0  0  0  0  0  0  0  0
    7.9977   45.7468  131.1186 O   0  0  0  0  0  0  0  0  0  0  0  0
    7.6884   47.0321  130.6241 C   0  0  0  0  0  0  0  0  0  0  0  0
    8.4326   48.1028  131.0465 C   0  0  0  0  0  0  0  0  0  0  0  0
    8.1756   49.3715  130.5985 C   0  0  0  0  0  0  0  0  0  0  0  0
    7.1454   49.6226  129.6944 C   0  0  0  0  0  0  0  0  0  0  0  0
    6.3968   48.5502  129.2688 C   0  0  0  0  0  0  0  0  0  0  0  0
    6.6705   47.2675  129.7332 C   0  0  0  0  0  0  0  0  0  0  0  0
    6.9129   51.0047  129.2458 C   0  0  0  0  0  0  0  0  0  0  0  0
    7.4186   51.4986  128.1364 C   0  0  0  0  0  0  0  0  0  0  0  0
    7.1270   52.8760  127.7857 C   0  0  0  0  0  0  0  0  0  0  0  0
    7.3111   53.3223  126.5046 O   0  0  0  0  0  0  0  0  0  0  0  0
    6.7043   53.6500  128.6730 O   0  0  0  0  0  0  0  0  0  0  0  0
    7.0975   52.8384  125.6595 H   0  0  0  0  0  0  0  0  0  0  0  0
 18 19  1  0  0  0
 19 20  1  0  0  0
 19 12  1  0  0  0
 12 13  2  0  0  0
 13 14  1  0  0  0
 14 15  2  0  0  0
 15 16  1  0  0  0
 16 17  2  0  0  0
 17  1  1  0  0  0
  1  2  1  0  0  0
  2  3  1  0  0  0
  3  4  2  0  0  0
  4  5  1  0  0  0
  5  6  1  0  0  0
  5  7  2  0  0  0
  7  8  1  0  0  0
  8  9  2  0  0  0
  9 10  1  0  0  0
 10 22  1  0  0  0
 22 23  1  0  0  0
 23 24  2  0  0  0
 24 25  1  0  0  0
 25 26  2  0  0  0
 26 29  1  0  0  0
 29 30  2  0  0  0
 30 31  1  0  0  0
 31 32  1  0  0  0
 31 33  2  0  0  0
 26 27  1  0  0  0
 27 28  2  0  0  0
 17 12  1  0  0  0
 10  1  2  0  0  0
 28 23  1  0  0  0
  9  3  1  0  0  0
 20 21  1  0  0  0
  6 11  1  0  0  0
 32 34  1  0  0  0
M  END
> <minimizedAffinity>
1.17390

> <CNNscore>
0.4475359023

> <CNNaffinity>
7.5201101303

> <CNN_VS>
3.3655192852

> <CNNaffinity_variance>
1.1412941217

$$$$
[H]OC(=O)/C([H])=C(\[H])c1c([H])c([H])c(Oc2c(-c3c([H])c([H])c([H])c([H])c3[C@]([H])(O[H])C([H])([H])[H])sc3c([H])c(O[H])c([H])c([H])c23)c([H])c1[H]


 34 37  0  0  0  0  0  0  0  0999 V2000
    7.9188   46.2185  130.9356 C   0  0  0  0  0  0  0  0  0  0  0  0
    6.6899   46.8174  129.8946 S   0  0  0  0  0  0  0  0  0  0  0  0
    7.0416   48.4664  129.9238 C   0  0  0  0  0  0  0  0  0  0  0  0
    6.4532   49.5688  129.3050 C   0  0  0  0  0  0  0  0  0  0  0  0
    6.9658   50.8326  129.5139 C   0  0  0  0  0  0  0  0  0  0  0  0
    6.4043   51.9316  128.9163 O   0  0  0  0  0  0  0  0  0  0  0  0
    8.0647   50.8963  130.3548 C   0  0  0  0  0  0  0  0  0  0  0  0
    8.6406   49.8257  130.9593 C   0  0  0  0  0  0  0  0  0  0  0  0
    8.1191   48.5297  130.7482 C   0  0  0  0  0  0  0  0  0  0  0  0
    8.5812   47.3668  131.2765 C   0  0  0  0  0  0  0  0  0  0  0  0
    6.7675   52.1988  127.9972 H   0  0  0  0  0  0  0  0  0  0  0  0
    8.6531   43.8924  130.3821 C   0  0  0  0  0  0  0  0  0  0  0  0
    8.8728   42.5592  130.7495 C   0  0  0  0  0  0  0  0  0  0  0  0
    8.6324   42.1523  132.0340 C   0  0  0  0  0  0  0  0  0  0  0  0
    8.1744   43.0286  132.9851 C   0  0  0  0  0  0  0  0  0  0  0  0
    7.9719   44.3377  132.5718 C   0  0  0  0  0  0  0  0  0  0  0  0
    8.1967   44.8055  131.2994 C   0  0  0  0  0  0  0  0  0  0  0  0
   10.2526   43.5922  128.5152 C   0  0  0  0  0  0  0  0  0  0  0  0
    8.9226   44.2100  128.9771 C   0  0  0  0  0  0  0  0  0  0  0  0
    7.9877   43.5639  128.1287 O   0  0  0  0  0  0  0  0  0  0  0  0
    7.4779   42.9261  128.6548 H   0  0  0  0  0  0  0  0  0  0  0  0
    9.7236   47.3131  132.1549 O   0  0  0  0  0  0  0  0  0  0  0  0
   10.8066   46.5102  131.7368 C   0  0  0  0  0  0  0  0  0  0  0  0
   11.1345   46.4782  130.4063 C   0  0  0  0  0  0  0  0  0  0  0  0
   12.1758   45.7163  129.9463 C   0  0  0  0  0  0  0  0  0  0  0  0
   12.9431   44.9430  130.8153 C   0  0  0  0  0  0  0  0  0  0  0  0
   12.6165   44.9731  132.1509 C   0  0  0  0  0  0  0  0  0  0  0  0
   11.5557   45.7521  132.6024 C   0  0  0  0  0  0  0  0  0  0  0  0
   14.0504   44.1433  130.2676 C   0  0  0  0  0  0  0  0  0  0  0  0
   14.2529   43.9777  128.9784 C   0  0  0  0  0  0  0  0  0  0  0  0
   15.3761   43.1686  128.5437 C   0  0  0  0  0  0  0  0  0  0  0  0
   15.7884   43.1934  127.2384 O   0  0  0  0  0  0  0  0  0  0  0  0
   15.9625   42.4474  129.3810 O   0  0  0  0  0  0  0  0  0  0  0  0
   15.8560   43.9887  126.6411 H   0  0  0  0  0  0  0  0  0  0  0  0
 18 19  1  0  0  0
 19 20  1  0  0  0
 19 12  1  0  0  0
 12 13  2  0  0  0
 13 14  1  0  0  0
 14 15  2  0  0  0
 15 16  1  0  0  0
 16 17  2  0  0  0
 17  1  1  0  0  0
  1  2  1  0  0  0
  2  3  1  0  0  0
  3  4  2  0  0  0
  4  5  1  0  0  0
  5  6  1  0  0  0
  5  7  2  0  0  0
  7  8  1  0  0  0
  8  9  2  0  0  0
  9 10  1  0  0  0
 10 22  1  0  0  0
 22 23  1  0  0  0
 23 24  2  0  0  0
 24 25  1  0  0  0
 25 26  2  0  0  0
 26 29  1  0  0  0
 29 30  2  0  0  0
 30 31  1  0  0  0
 31 32  1  0  0  0
 31 33  2  0  0  0
 26 27  1  0  0  0
 27 28  2  0  0  0
 17 12  1  0  0  0
 10  1  2  0  0  0
 28 23  1  0  0  0
  9  3  1  0  0  0
 20 21  1  0  0  0
  6 11  1  0  0  0
 32 34  1  0  0  0
M  END
> <minimizedAffinity>
3.75017

> <CNNscore>
0.4352132082

> <CNNaffinity>
7.5927038193

> <CNN_VS>
3.3044450283

> <CNNaffinity_variance>
0.7294489741

$$$$
[H]OC(=O)/C([H])=C(\[H])c1c([H])c([H])c(Oc2c(-c3c([H])c([H])c([H])c([H])c3[C@]([H])(O[H])C([H])([H])[H])sc3c([H])c(O[H])c([H])c([H])c23)c([H])c1[H]


 34 37  0  0  0  0  0  0  0  0999 V2000
   11.6619   44.6565  131.8264 C   0  0  0  0  0  0  0  0  0  0  0  0
   11.2758   43.4781  133.0159 S   0  0  0  0  0  0  0  0  0  0  0  0
   10.8583   44.4757  134.3099 C   0  0  0  0  0  0  0  0  0  0  0  0
   10.4369   44.2074  135.6118 C   0  0  0  0  0  0  0  0  0  0  0  0
   10.1574   45.2469  136.4747 C   0  0  0  0  0  0  0  0  0  0  0  0
    9.7416   45.0079  137.7592 O   0  0  0  0  0  0  0  0  0  0  0  0
   10.3276   46.5172  135.9492 C   0  0  0  0  0  0  0  0  0  0  0  0
   10.7377   46.7829  134.6825 C   0  0  0  0  0  0  0  0  0  0  0  0
   11.0250   45.7215  133.7953 C   0  0  0  0  0  0  0  0  0  0  0  0
   11.4408   45.8237  132.5064 C   0  0  0  0  0  0  0  0  0  0  0  0
    8.7329   44.9266  137.9151 H   0  0  0  0  0  0  0  0  0  0  0  0
   11.1673   44.0633  129.4473 C   0  0  0  0  0  0  0  0  0  0  0  0
   11.5886   43.8230  128.1337 C   0  0  0  0  0  0  0  0  0  0  0  0
   12.9105   43.9509  127.8023 C   0  0  0  0  0  0  0  0  0  0  0  0
   13.8476   44.3127  128.7367 C   0  0  0  0  0  0  0  0  0  0  0  0
   13.3806   44.5392  130.0236 C   0  0  0  0  0  0  0  0  0  0  0  0
   12.0682   44.4289  130.4160 C   0  0  0  0  0  0  0  0  0  0  0  0
    8.9520   43.8021  128.3713 C   0  0  0  0  0  0  0  0  0  0  0  0
    9.7348   43.8750  129.6925 C   0  0  0  0  0  0  0  0  0  0  0  0
    9.4858   42.5963  130.2530 O   0  0  0  0  0  0  0  0  0  0  0  0
   10.2993   42.0683  130.1990 H   0  0  0  0  0  0  0  0  0  0  0  0
   11.6410   47.0939  131.8535 O   0  0  0  0  0  0  0  0  0  0  0  0
   10.4892   47.7347  131.3486 C   0  0  0  0  0  0  0  0  0  0  0  0
   10.0738   48.9061  131.9265 C   0  0  0  0  0  0  0  0  0  0  0  0
    8.9631   49.5693  131.4761 C   0  0  0  0  0  0  0  0  0  0  0  0
    8.2114   49.0773  130.4110 C   0  0  0  0  0  0  0  0  0  0  0  0
    8.6257   47.9021  129.8290 C   0  0  0  0  0  0  0  0  0  0  0  0
    9.7561   47.2403  130.2981 C   0  0  0  0  0  0  0  0  0  0  0  0
    7.0272   49.8301  129.9675 C   0  0  0  0  0  0  0  0  0  0  0  0
    5.8088   49.5762  130.3937 C   0  0  0  0  0  0  0  0  0  0  0  0
    4.7095   50.3795  129.8924 C   0  0  0  0  0  0  0  0  0  0  0  0
    4.1802   51.3875  130.6528 O   0  0  0  0  0  0  0  0  0  0  0  0
    4.2525   50.1366  128.7534 O   0  0  0  0  0  0  0  0  0  0  0  0
    4.6755   52.0380  131.2233 H   0  0  0  0  0  0  0  0  0  0  0  0
 18 19  1  0  0  0
 19 20  1  0  0  0
 19 12  1  0  0  0
 12 13  2  0  0  0
 13 14  1  0  0  0
 14 15  2  0  0  0
 15 16  1  0  0  0
 16 17  2  0  0  0
 17  1  1  0  0  0
  1  2  1  0  0  0
  2  3  1  0  0  0
  3  4  2  0  0  0
  4  5  1  0  0  0
  5  6  1  0  0  0
  5  7  2  0  0  0
  7  8  1  0  0  0
  8  9  2  0  0  0
  9 10  1  0  0  0
 10 22  1  0  0  0
 22 23  1  0  0  0
 23 24  2  0  0  0
 24 25  1  0  0  0
 25 26  2  0  0  0
 26 29  1  0  0  0
 29 30  2  0  0  0
 30 31  1  0  0  0
 31 32  1  0  0  0
 31 33  2  0  0  0
 26 27  1  0  0  0
 27 28  2  0  0  0
 17 12  1  0  0  0
 10  1  2  0  0  0
 28 23  1  0  0  0
  9  3  1  0  0  0
 20 21  1  0  0  0
  6 11  1  0  0  0
 32 34  1  0  0  0
M  END
> <minimizedAffinity>
5.43981

> <CNNscore>
0.4327191412

> <CNNaffinity>
7.6707105637

> <CNN_VS>
3.3192632198

> <CNNaffinity_variance>
1.1341377497

$$$$
[H]Oc1c([H])c([H])c([C@@]2([H])Sc3c([H])c(O[H])c([H])c([H])c3O[C@@]2([H])c2c([H])c([H])c(O[C@@]([H])(C([H])([H])N3C([H])([H])C([H])([H])C([H])([H])C3([H])[H])C([H])([H])C([H])([H])[H])c([H])c2[H])c([H])c1[H]


 36 40  0  0  0  0  0  0  0  0999 V2000
    9.5082   46.3213  131.5977 C   0  0  0  0  0  0  0  0  0  0  0  0
   10.3502   46.0941  130.4925 O   0  0  0  0  0  0  0  0  0  0  0  0
   10.2251   45.0801  129.5614 C   0  0  0  0  0  0  0  0  0  0  0  0
   11.3059   44.5914  128.8570 C   0  0  0  0  0  0  0  0  0  0  0  0
   11.1364   43.5860  127.9445 C   0  0  0  0  0  0  0  0  0  0  0  0
    9.8798   43.0784  127.7480 C   0  0  0  0  0  0  0  0  0  0  0  0
    9.7229   42.0402  126.8045 O   0  0  0  0  0  0  0  0  0  0  0  0
    8.8072   43.5548  128.4390 C   0  0  0  0  0  0  0  0  0  0  0  0
    8.9452   44.5746  129.3707 C   0  0  0  0  0  0  0  0  0  0  0  0
    7.5291   45.1959  130.2586 S   0  0  0  0  0  0  0  0  0  0  0  0
    8.1144   46.6468  131.2510 C   0  0  0  0  0  0  0  0  0  0  0  0
    9.8248   41.0798  127.1370 H   0  0  0  0  0  0  0  0  0  0  0  0
    7.8368   47.8486  130.4754 C   0  0  0  0  0  0  0  0  0  0  0  0
    7.5509   47.8814  129.1311 C   0  0  0  0  0  0  0  0  0  0  0  0
    7.2868   49.0956  128.4823 C   0  0  0  0  0  0  0  0  0  0  0  0
    7.3012   50.2791  129.1452 C   0  0  0  0  0  0  0  0  0  0  0  0
    7.0370   51.5058  128.4966 O   0  0  0  0  0  0  0  0  0  0  0  0
    7.5867   50.2757  130.5059 C   0  0  0  0  0  0  0  0  0  0  0  0
    7.8395   49.0769  131.1077 C   0  0  0  0  0  0  0  0  0  0  0  0
    7.8376   52.0153  128.0943 H   0  0  0  0  0  0  0  0  0  0  0  0
   11.3054   48.8786  134.4927 C   0  0  0  0  0  0  0  0  0  0  0  0
   11.4481   47.5258  134.6276 C   0  0  0  0  0  0  0  0  0  0  0  0
   10.8638   46.6708  133.6785 C   0  0  0  0  0  0  0  0  0  0  0  0
   10.1515   47.1674  132.6175 C   0  0  0  0  0  0  0  0  0  0  0  0
   10.0365   48.5303  132.5250 C   0  0  0  0  0  0  0  0  0  0  0  0
   10.5911   49.4074  133.4294 C   0  0  0  0  0  0  0  0  0  0  0  0
   11.8449   49.7501  135.3771 O   0  0  0  0  0  0  0  0  0  0  0  0
   13.2003   50.0258  135.6504 C   0  0  0  0  0  0  0  0  0  0  0  0
   14.7684   48.1844  136.3620 C   0  0  0  0  0  0  0  0  0  0  0  0
   13.6976   49.1359  136.7831 C   0  0  0  0  0  0  0  0  0  0  0  0
   13.3932   51.4734  135.9458 C   0  0  0  0  0  0  0  0  0  0  0  0
   13.1918   52.3461  134.8699 N   0  0  0  0  0  0  0  0  0  0  0  0
   14.2999   52.6214  134.0370 C   0  0  0  0  0  0  0  0  0  0  0  0
   14.4645   54.0981  134.1237 C   0  0  0  0  0  0  0  0  0  0  0  0
   13.1146   54.6278  134.5112 C   0  0  0  0  0  0  0  0  0  0  0  0
   12.3125   53.4273  134.9543 C   0  0  0  0  0  0  0  0  0  0  0  0
 29 30  1  0  0  0
 30 28  1  0  0  0
 28 31  1  0  0  0
 31 32  1  0  0  0
 32 33  1  0  0  0
 33 34  1  0  0  0
 34 35  1  0  0  0
 35 36  1  0  0  0
 28 27  1  0  0  0
 27 21  1  0  0  0
 21 22  2  0  0  0
 22 23  1  0  0  0
 23 24  2  0  0  0
 24 25  1  0  0  0
 25 26  2  0  0  0
 24  1  1  0  0  0
  1  2  1  0  0  0
  2  3  1  0  0  0
  3  4  2  0  0  0
  4  5  1  0  0  0
  5  6  2  0  0  0
  6  7  1  0  0  0
  6  8  1  0  0  0
  8  9  2  0  0  0
  9 10  1  0  0  0
 10 11  1  0  0  0
 11 13  1  0  0  0
 13 14  2  0  0  0
 14 15  1  0  0  0
 15 16  2  0  0  0
 16 17  1  0  0  0
 16 18  1  0  0  0
 18 19  2  0  0  0
 36 32  1  0  0  0
 26 21  1  0  0  0
 11  1  1  0  0  0
 19 13  1  0  0  0
  9  3  1  0  0  0
  7 12  1  0  0  0
 17 20  1  0  0  0
M  END
> <minimizedAffinity>
18.72441

> <CNNscore>
0.5162863731

> <CNNaffinity>
7.5211157799

> <CNN_VS>
3.8830494881

> <CNNaffinity_variance>
0.9107178450

$$$$
[H]Oc1c([H])c([H])c([C@@]2([H])Sc3c([H])c(O[H])c([H])c([H])c3O[C@@]2([H])c2c([H])c([H])c(O[C@@]([H])(C([H])([H])N3C([H])([H])C([H])([H])C([H])([H])C3([H])[H])C([H])([H])C([H])([H])[H])c([H])c2[H])c([H])c1[H]


 36 40  0  0  0  0  0  0  0  0999 V2000
    9.4892   47.5466  130.1268 C   0  0  0  0  0  0  0  0  0  0  0  0
    9.3344   47.7767  131.5070 O   0  0  0  0  0  0  0  0  0  0  0  0
    9.4700   48.9896  132.1561 C   0  0  0  0  0  0  0  0  0  0  0  0
    9.8279   49.0759  133.4856 C   0  0  0  0  0  0  0  0  0  0  0  0
    9.9510   50.2981  134.0884 C   0  0  0  0  0  0  0  0  0  0  0  0
    9.7141   51.4256  133.3482 C   0  0  0  0  0  0  0  0  0  0  0  0
    9.8475   52.6784  133.9849 O   0  0  0  0  0  0  0  0  0  0  0  0
    9.3605   51.3498  132.0352 C   0  0  0  0  0  0  0  0  0  0  0  0
    9.2260   50.1255  131.3945 C   0  0  0  0  0  0  0  0  0  0  0  0
    8.7505   50.0425  129.6780 S   0  0  0  0  0  0  0  0  0  0  0  0
    8.5158   48.2496  129.2741 C   0  0  0  0  0  0  0  0  0  0  0  0
   10.7677   53.1215  133.9682 H   0  0  0  0  0  0  0  0  0  0  0  0
    7.0971   47.9501  129.4188 C   0  0  0  0  0  0  0  0  0  0  0  0
    6.0675   48.8222  129.1557 C   0  0  0  0  0  0  0  0  0  0  0  0
    4.7323   48.4270  129.3178 C   0  0  0  0  0  0  0  0  0  0  0  0
    4.4009   47.1801  129.7368 C   0  0  0  0  0  0  0  0  0  0  0  0
    3.0575   46.7766  129.9031 O   0  0  0  0  0  0  0  0  0  0  0  0
    5.4222   46.2769  130.0096 C   0  0  0  0  0  0  0  0  0  0  0  0
    6.7114   46.6928  129.8419 C   0  0  0  0  0  0  0  0  0  0  0  0
    2.6260   46.9230  130.8277 H   0  0  0  0  0  0  0  0  0  0  0  0
   10.0585   43.4002  129.3306 C   0  0  0  0  0  0  0  0  0  0  0  0
   10.8646   44.3094  128.7043 C   0  0  0  0  0  0  0  0  0  0  0  0
   10.6904   45.6796  128.9601 C   0  0  0  0  0  0  0  0  0  0  0  0
    9.7256   46.1239  129.8271 C   0  0  0  0  0  0  0  0  0  0  0  0
    8.9426   45.1743  130.4308 C   0  0  0  0  0  0  0  0  0  0  0  0
    9.0758   43.8218  130.2120 C   0  0  0  0  0  0  0  0  0  0  0  0
   10.1795   42.0682  129.1215 O   0  0  0  0  0  0  0  0  0  0  0  0
   10.0270   41.0009  130.0302 C   0  0  0  0  0  0  0  0  0  0  0  0
    7.9076   42.0855  130.8592 C   0  0  0  0  0  0  0  0  0  0  0  0
    8.5566   40.8255  130.3900 C   0  0  0  0  0  0  0  0  0  0  0  0
   10.8800   41.2094  131.2339 C   0  0  0  0  0  0  0  0  0  0  0  0
   10.8182   42.4837  131.8102 N   0  0  0  0  0  0  0  0  0  0  0  0
   11.9765   43.2900  131.7359 C   0  0  0  0  0  0  0  0  0  0  0  0
   12.3147   43.5759  133.1569 C   0  0  0  0  0  0  0  0  0  0  0  0
   11.0269   43.4209  133.9123 C   0  0  0  0  0  0  0  0  0  0  0  0
   10.0731   42.7340  132.9640 C   0  0  0  0  0  0  0  0  0  0  0  0
 29 30  1  0  0  0
 30 28  1  0  0  0
 28 31  1  0  0  0
 31 32  1  0  0  0
 32 33  1  0  0  0
 33 34  1  0  0  0
 34 35  1  0  0  0
 35 36  1  0  0  0
 28 27  1  0  0  0
 27 21  1  0  0  0
 21 22  2  0  0  0
 22 23  1  0  0  0
 23 24  2  0  0  0
 24 25  1  0  0  0
 25 26  2  0  0  0
 24  1  1  0  0  0
  1  2  1  0  0  0
  2  3  1  0  0  0
  3  4  2  0  0  0
  4  5  1  0  0  0
  5  6  2  0  0  0
  6  7  1  0  0  0
  6  8  1  0  0  0
  8  9  2  0  0  0
  9 10  1  0  0  0
 10 11  1  0  0  0
 11 13  1  0  0  0
 13 14  2  0  0  0
 14 15  1  0  0  0
 15 16  2  0  0  0
 16 17  1  0  0  0
 16 18  1  0  0  0
 18 19  2  0  0  0
 36 32  1  0  0  0
 26 21  1  0  0  0
 11  1  1  0  0  0
 19 13  1  0  0  0
  9  3  1  0  0  0
  7 12  1  0  0  0
 17 20  1  0  0  0
M  END
> <minimizedAffinity>
10.10915

> <CNNscore>
0.4625647068

> <CNNaffinity>
7.5556855202

> <CNN_VS>
3.4949934483

> <CNNaffinity_variance>
1.0261765718

$$$$
[H]Oc1c([H])c([H])c([C@@]2([H])Sc3c([H])c(O[H])c([H])c([H])c3O[C@@]2([H])c2c([H])c([H])c(O[C@@]([H])(C([H])([H])N3C([H])([H])C([H])([H])C([H])([H])C3([H])[H])C([H])([H])C([H])([H])[H])c([H])c2[H])c([H])c1[H]


 36 40  0  0  0  0  0  0  0  0999 V2000
    9.1567   47.8334  131.1658 C   0  0  0  0  0  0  0  0  0  0  0  0
    8.6770   48.3967  132.3635 O   0  0  0  0  0  0  0  0  0  0  0  0
    9.0521   49.6116  132.9059 C   0  0  0  0  0  0  0  0  0  0  0  0
    8.9800   49.8658  134.2599 C   0  0  0  0  0  0  0  0  0  0  0  0
    9.3624   51.0831  134.7540 C   0  0  0  0  0  0  0  0  0  0  0  0
    9.8160   52.0363  133.8816 C   0  0  0  0  0  0  0  0  0  0  0  0
   10.2083   53.2858  134.4082 O   0  0  0  0  0  0  0  0  0  0  0  0
    9.8906   51.7939  132.5435 C   0  0  0  0  0  0  0  0  0  0  0  0
    9.5095   50.5701  132.0103 C   0  0  0  0  0  0  0  0  0  0  0  0
    9.6016   50.2724  130.2547 S   0  0  0  0  0  0  0  0  0  0  0  0
    8.8432   48.6090  129.9537 C   0  0  0  0  0  0  0  0  0  0  0  0
   11.1827   53.3931  134.6951 H   0  0  0  0  0  0  0  0  0  0  0  0
    7.4493   48.8230  129.5873 C   0  0  0  0  0  0  0  0  0  0  0  0
    6.6522   47.9211  128.9232 C   0  0  0  0  0  0  0  0  0  0  0  0
    5.3156   48.2243  128.6287 C   0  0  0  0  0  0  0  0  0  0  0  0
    4.7557   49.4083  128.9823 C   0  0  0  0  0  0  0  0  0  0  0  0
    3.4100   49.7199  128.6874 O   0  0  0  0  0  0  0  0  0  0  0  0
    5.5387   50.3393  129.6557 C   0  0  0  0  0  0  0  0  0  0  0  0
    6.8361   50.0134  129.9272 C   0  0  0  0  0  0  0  0  0  0  0  0
    3.2140   50.1889  127.7906 H   0  0  0  0  0  0  0  0  0  0  0  0
    8.3895   43.6432  131.1021 C   0  0  0  0  0  0  0  0  0  0  0  0
    8.9816   44.2225  130.0147 C   0  0  0  0  0  0  0  0  0  0  0  0
    9.2437   45.6025  130.0233 C   0  0  0  0  0  0  0  0  0  0  0  0
    8.9163   46.3815  131.1031 C   0  0  0  0  0  0  0  0  0  0  0  0
    8.3248   45.7551  132.1694 C   0  0  0  0  0  0  0  0  0  0  0  0
    8.0487   44.4070  132.2070 C   0  0  0  0  0  0  0  0  0  0  0  0
    8.1117   42.3191  131.1492 O   0  0  0  0  0  0  0  0  0  0  0  0
    8.0709   41.4509  132.2593 C   0  0  0  0  0  0  0  0  0  0  0  0
    6.3842   41.0853  134.0970 C   0  0  0  0  0  0  0  0  0  0  0  0
    6.6253   41.1354  132.6245 C   0  0  0  0  0  0  0  0  0  0  0  0
    8.8279   42.0274  133.4058 C   0  0  0  0  0  0  0  0  0  0  0  0
   10.2163   42.1014  133.2427 N   0  0  0  0  0  0  0  0  0  0  0  0
   10.8945   43.1560  133.8947 C   0  0  0  0  0  0  0  0  0  0  0  0
   11.5625   43.8986  132.7912 C   0  0  0  0  0  0  0  0  0  0  0  0
   11.7128   42.9054  131.6759 C   0  0  0  0  0  0  0  0  0  0  0  0
   10.8374   41.7323  132.0480 C   0  0  0  0  0  0  0  0  0  0  0  0
 29 30  1  0  0  0
 30 28  1  0  0  0
 28 31  1  0  0  0
 31 32  1  0  0  0
 32 33  1  0  0  0
 33 34  1  0  0  0
 34 35  1  0  0  0
 35 36  1  0  0  0
 28 27  1  0  0  0
 27 21  1  0  0  0
 21 22  2  0  0  0
 22 23  1  0  0  0
 23 24  2  0  0  0
 24 25  1  0  0  0
 25 26  2  0  0  0
 24  1  1  0  0  0
  1  2  1  0  0  0
  2  3  1  0  0  0
  3  4  2  0  0  0
  4  5  1  0  0  0
  5  6  2  0  0  0
  6  7  1  0  0  0
  6  8  1  0  0  0
  8  9  2  0  0  0
  9 10  1  0  0  0
 10 11  1  0  0  0
 11 13  1  0  0  0
 13 14  2  0  0  0
 14 15  1  0  0  0
 15 16  2  0  0  0
 16 17  1  0  0  0
 16 18  1  0  0  0
 18 19  2  0  0  0
 36 32  1  0  0  0
 26 21  1  0  0  0
 11  1  1  0  0  0
 19 13  1  0  0  0
  9  3  1  0  0  0
  7 12  1  0  0  0
 17 20  1  0  0  0
M  END
> <minimizedAffinity>
20.76044

> <CNNscore>
0.4570844769

> <CNNaffinity>
7.4502272606

> <CNN_VS>
3.4053833485

> <CNNaffinity_variance>
1.0611915588

$$$$
[H]Oc1c([H])c([H])c([C@@]2([H])Sc3c([H])c(O[H])c([H])c([H])c3O[C@@]2([H])c2c([H])c([H])c(O[C@@]([H])(C([H])([H])N3C([H])([H])C([H])([H])C([H])([H])C3([H])[H])C([H])([H])C([H])([H])[H])c([H])c2[H])c([H])c1[H]


 36 40  0  0  0  0  0  0  0  0999 V2000
    9.5546   47.0182  131.2643 C   0  0  0  0  0  0  0  0  0  0  0  0
    8.7273   46.5915  132.3205 O   0  0  0  0  0  0  0  0  0  0  0  0
    8.6574   47.1488  133.5836 C   0  0  0  0  0  0  0  0  0  0  0  0
    8.2685   46.4197  134.6883 C   0  0  0  0  0  0  0  0  0  0  0  0
    8.2138   47.0118  135.9206 C   0  0  0  0  0  0  0  0  0  0  0  0
    8.5521   48.3341  136.0328 C   0  0  0  0  0  0  0  0  0  0  0  0
    8.4922   48.9288  137.3116 O   0  0  0  0  0  0  0  0  0  0  0  0
    8.9372   49.0614  134.9477 C   0  0  0  0  0  0  0  0  0  0  0  0
    9.0021   48.4908  133.6837 C   0  0  0  0  0  0  0  0  0  0  0  0
    9.4964   49.4596  132.2707 S   0  0  0  0  0  0  0  0  0  0  0  0
    9.2782   48.3812  130.7801 C   0  0  0  0  0  0  0  0  0  0  0  0
    9.3315   48.8871  137.8922 H   0  0  0  0  0  0  0  0  0  0  0  0
    7.9715   48.6818  130.2096 C   0  0  0  0  0  0  0  0  0  0  0  0
    7.2667   47.8649  129.3576 C   0  0  0  0  0  0  0  0  0  0  0  0
    6.0075   48.2468  128.8741 C   0  0  0  0  0  0  0  0  0  0  0  0
    5.4350   49.4263  129.2220 C   0  0  0  0  0  0  0  0  0  0  0  0
    4.1671   49.8170  128.7372 O   0  0  0  0  0  0  0  0  0  0  0  0
    6.1251   50.2721  130.0831 C   0  0  0  0  0  0  0  0  0  0  0  0
    7.3488   49.8711  130.5358 C   0  0  0  0  0  0  0  0  0  0  0  0
    4.1370   50.3562  127.8592 H   0  0  0  0  0  0  0  0  0  0  0  0
    9.9117   43.9779  128.3012 C   0  0  0  0  0  0  0  0  0  0  0  0
   11.0156   44.7155  128.6266 C   0  0  0  0  0  0  0  0  0  0  0  0
   10.9133   45.7189  129.6044 C   0  0  0  0  0  0  0  0  0  0  0  0
    9.7254   45.9737  130.2399 C   0  0  0  0  0  0  0  0  0  0  0  0
    8.6470   45.2077  129.8797 C   0  0  0  0  0  0  0  0  0  0  0  0
    8.6987   44.2142  128.9284 C   0  0  0  0  0  0  0  0  0  0  0  0
    9.9507   42.9999  127.3661 O   0  0  0  0  0  0  0  0  0  0  0  0
   10.3117   41.6438  127.5021 C   0  0  0  0  0  0  0  0  0  0  0  0
   10.3609   39.4907  126.1917 C   0  0  0  0  0  0  0  0  0  0  0  0
    9.7160   40.8264  126.3622 C   0  0  0  0  0  0  0  0  0  0  0  0
    9.9075   41.1237  128.8386 C   0  0  0  0  0  0  0  0  0  0  0  0
    9.8084   42.0776  129.8583 N   0  0  0  0  0  0  0  0  0  0  0  0
   10.9801   42.3731  130.5913 C   0  0  0  0  0  0  0  0  0  0  0  0
   10.6220   42.0493  131.9992 C   0  0  0  0  0  0  0  0  0  0  0  0
    9.1262   42.1563  132.0649 C   0  0  0  0  0  0  0  0  0  0  0  0
    8.6536   42.2107  130.6315 C   0  0  0  0  0  0  0  0  0  0  0  0
 29 30  1  0  0  0
 30 28  1  0  0  0
 28 31  1  0  0  0
 31 32  1  0  0  0
 32 33  1  0  0  0
 33 34  1  0  0  0
 34 35  1  0  0  0
 35 36  1  0  0  0
 28 27  1  0  0  0
 27 21  1  0  0  0
 21 22  2  0  0  0
 22 23  1  0  0  0
 23 24  2  0  0  0
 24 25  1  0  0  0
 25 26  2  0  0  0
 24  1  1  0  0  0
  1  2  1  0  0  0
  2  3  1  0  0  0
  3  4  2  0  0  0
  4  5  1  0  0  0
  5  6  2  0  0  0
  6  7  1  0  0  0
  6  8  1  0  0  0
  8  9  2  0  0  0
  9 10  1  0  0  0
 10 11  1  0  0  0
 11 13  1  0  0  0
 13 14  2  0  0  0
 14 15  1  0  0  0
 15 16  2  0  0  0
 16 17  1  0  0  0
 16 18  1  0  0  0
 18 19  2  0  0  0
 36 32  1  0  0  0
 26 21  1  0  0  0
 11  1  1  0  0  0
 19 13  1  0  0  0
  9  3  1  0  0  0
  7 12  1  0  0  0
 17 20  1  0  0  0
M  END
> <minimizedAffinity>
15.49221

> <CNNscore>
0.4535636902

> <CNNaffinity>
7.8122611046

> <CNN_VS>
3.5433580875

> <CNNaffinity_variance>
1.0178948641

$$$$
[H]Oc1c([H])c([H])c([C@@]2([H])Sc3c([H])c(O[H])c([H])c([H])c3O[C@@]2([H])c2c([H])c([H])c(O[C@@]([H])(C([H])([H])N3C([H])([H])C([H])([H])C([H])([H])C3([H])[H])C([H])([H])C([H])([H])[H])c([H])c2[H])c([H])c1[H]


 36 40  0  0  0  0  0  0  0  0999 V2000
    8.5758   47.6620  131.4751 C   0  0  0  0  0  0  0  0  0  0  0  0
    7.5141   47.9145  130.5856 O   0  0  0  0  0  0  0  0  0  0  0  0
    7.2218   49.1220  129.9798 C   0  0  0  0  0  0  0  0  0  0  0  0
    5.9449   49.4509  129.5741 C   0  0  0  0  0  0  0  0  0  0  0  0
    5.7002   50.6582  128.9785 C   0  0  0  0  0  0  0  0  0  0  0  0
    6.7429   51.5272  128.7963 C   0  0  0  0  0  0  0  0  0  0  0  0
    6.4728   52.7692  128.1822 O   0  0  0  0  0  0  0  0  0  0  0  0
    8.0065   51.2109  129.1938 C   0  0  0  0  0  0  0  0  0  0  0  0
    8.2881   49.9941  129.8000 C   0  0  0  0  0  0  0  0  0  0  0  0
    9.9501   49.5898  130.3038 S   0  0  0  0  0  0  0  0  0  0  0  0
    9.9179   47.8337  130.8936 C   0  0  0  0  0  0  0  0  0  0  0  0
    6.2107   53.5489  128.7877 H   0  0  0  0  0  0  0  0  0  0  0  0
   10.3224   46.9893  129.7771 C   0  0  0  0  0  0  0  0  0  0  0  0
   11.4048   46.1418  129.7700 C   0  0  0  0  0  0  0  0  0  0  0  0
   11.6994   45.3623  128.6428 C   0  0  0  0  0  0  0  0  0  0  0  0
   10.9375   45.4091  127.5214 C   0  0  0  0  0  0  0  0  0  0  0  0
   11.2299   44.6269  126.3822 O   0  0  0  0  0  0  0  0  0  0  0  0
    9.8359   46.2572  127.5008 C   0  0  0  0  0  0  0  0  0  0  0  0
    9.5765   47.0028  128.6144 C   0  0  0  0  0  0  0  0  0  0  0  0
   11.8499   45.0368  125.6679 H   0  0  0  0  0  0  0  0  0  0  0  0
    7.9094   44.0681  133.6637 C   0  0  0  0  0  0  0  0  0  0  0  0
    8.3075   45.1880  134.3389 C   0  0  0  0  0  0  0  0  0  0  0  0
    8.5276   46.3809  133.6305 C   0  0  0  0  0  0  0  0  0  0  0  0
    8.3508   46.4441  132.2723 C   0  0  0  0  0  0  0  0  0  0  0  0
    7.9508   45.2954  131.6400 C   0  0  0  0  0  0  0  0  0  0  0  0
    7.7228   44.1041  132.2910 C   0  0  0  0  0  0  0  0  0  0  0  0
    7.6842   42.8910  134.2934 O   0  0  0  0  0  0  0  0  0  0  0  0
    8.2862   41.6333  134.0843 C   0  0  0  0  0  0  0  0  0  0  0  0
    6.0265   40.7254  134.7366 C   0  0  0  0  0  0  0  0  0  0  0  0
    7.5069   40.5508  134.8214 C   0  0  0  0  0  0  0  0  0  0  0  0
    9.7213   41.6644  134.4836 C   0  0  0  0  0  0  0  0  0  0  0  0
   10.6312   41.9586  133.4613 N   0  0  0  0  0  0  0  0  0  0  0  0
   11.4729   43.0798  133.6398 C   0  0  0  0  0  0  0  0  0  0  0  0
   11.1624   43.9586  132.4794 C   0  0  0  0  0  0  0  0  0  0  0  0
   10.6176   43.0441  131.4211 C   0  0  0  0  0  0  0  0  0  0  0  0
   10.3250   41.7363  132.1174 C   0  0  0  0  0  0  0  0  0  0  0  0
 29 30  1  0  0  0
 30 28  1  0  0  0
 28 31  1  0  0  0
 31 32  1  0  0  0
 32 33  1  0  0  0
 33 34  1  0  0  0
 34 35  1  0  0  0
 35 36  1  0  0  0
 28 27  1  0  0  0
 27 21  1  0  0  0
 21 22  2  0  0  0
 22 23  1  0  0  0
 23 24  2  0  0  0
 24 25  1  0  0  0
 25 26  2  0  0  0
 24  1  1  0  0  0
  1  2  1  0  0  0
  2  3  1  0  0  0
  3  4  2  0  0  0
  4  5  1  0  0  0
  5  6  2  0  0  0
  6  7  1  0  0  0
  6  8  1  0  0  0
  8  9  2  0  0  0
  9 10  1  0  0  0
 10 11  1  0  0  0
 11 13  1  0  0  0
 13 14  2  0  0  0
 14 15  1  0  0  0
 15 16  2  0  0  0
 16 17  1  0  0  0
 16 18  1  0  0  0
 18 19  2  0  0  0
 36 32  1  0  0  0
 26 21  1  0  0  0
 11  1  1  0  0  0
 19 13  1  0  0  0
  9  3  1  0  0  0
  7 12  1  0  0  0
 17 20  1  0  0  0
M  END
> <minimizedAffinity>
15.27241

> <CNNscore>
0.4156618118

> <CNNaffinity>
7.2923598289

> <CNN_VS>
3.0311555862

> <CNNaffinity_variance>
0.5432543159

$$$$
[H]Oc1c([H])c([H])c([C@@]2([H])Sc3c([H])c(O[H])c([H])c([H])c3O[C@@]2([H])c2c([H])c([H])c(O[C@@]([H])(C([H])([H])N3C([H])([H])C([H])([H])C([H])([H])C3([H])[H])C([H])([H])C([H])([H])[H])c([H])c2[H])c([H])c1[H]


 36 40  0  0  0  0  0  0  0  0999 V2000
   10.1139   46.1158  130.9947 C   0  0  0  0  0  0  0  0  0  0  0  0
    9.3316   45.7215  132.0967 O   0  0  0  0  0  0  0  0  0  0  0  0
    9.3955   46.2421  133.3756 C   0  0  0  0  0  0  0  0  0  0  0  0
    9.0284   45.5108  134.4863 C   0  0  0  0  0  0  0  0  0  0  0  0
    9.1080   46.0659  135.7343 C   0  0  0  0  0  0  0  0  0  0  0  0
    9.5579   47.3536  135.8561 C   0  0  0  0  0  0  0  0  0  0  0  0
    9.6358   47.9103  137.1510 O   0  0  0  0  0  0  0  0  0  0  0  0
    9.9225   48.0828  134.7652 C   0  0  0  0  0  0  0  0  0  0  0  0
    9.8525   47.5494  133.4854 C   0  0  0  0  0  0  0  0  0  0  0  0
   10.3220   48.5211  132.0659 S   0  0  0  0  0  0  0  0  0  0  0  0
    9.9138   47.5108  130.5675 C   0  0  0  0  0  0  0  0  0  0  0  0
   10.5080   47.7851  137.6677 H   0  0  0  0  0  0  0  0  0  0  0  0
    8.5985   47.9301  130.1016 C   0  0  0  0  0  0  0  0  0  0  0  0
    7.6740   47.1183  129.4881 C   0  0  0  0  0  0  0  0  0  0  0  0
    6.4288   47.6225  129.0878 C   0  0  0  0  0  0  0  0  0  0  0  0
    6.0845   48.9195  129.2861 C   0  0  0  0  0  0  0  0  0  0  0  0
    4.8318   49.4334  128.8840 O   0  0  0  0  0  0  0  0  0  0  0  0
    7.0000   49.7633  129.9051 C   0  0  0  0  0  0  0  0  0  0  0  0
    8.2035   49.2416  130.2826 C   0  0  0  0  0  0  0  0  0  0  0  0
    4.7601   49.8278  127.9343 H   0  0  0  0  0  0  0  0  0  0  0  0
   10.0420   43.1047  127.9816 C   0  0  0  0  0  0  0  0  0  0  0  0
   10.9268   44.1395  127.8597 C   0  0  0  0  0  0  0  0  0  0  0  0
   10.9639   45.1375  128.8476 C   0  0  0  0  0  0  0  0  0  0  0  0
   10.1281   45.0942  129.9336 C   0  0  0  0  0  0  0  0  0  0  0  0
    9.2589   44.0370  130.0116 C   0  0  0  0  0  0  0  0  0  0  0  0
    9.1862   43.0360  129.0694 C   0  0  0  0  0  0  0  0  0  0  0  0
    9.9606   42.1162  127.0603 O   0  0  0  0  0  0  0  0  0  0  0  0
    9.8550   40.7228  127.2478 C   0  0  0  0  0  0  0  0  0  0  0  0
    9.6462   38.9445  129.0227 C   0  0  0  0  0  0  0  0  0  0  0  0
    9.8755   40.3916  128.7352 C   0  0  0  0  0  0  0  0  0  0  0  0
   10.9260   40.0086  126.4975 C   0  0  0  0  0  0  0  0  0  0  0  0
   10.4938   38.9832  125.6482 N   0  0  0  0  0  0  0  0  0  0  0  0
   11.2841   38.7014  124.5110 C   0  0  0  0  0  0  0  0  0  0  0  0
   10.3598   38.9083  123.3629 C   0  0  0  0  0  0  0  0  0  0  0  0
    8.9801   38.7171  123.9224 C   0  0  0  0  0  0  0  0  0  0  0  0
    9.1382   38.7357  125.4242 C   0  0  0  0  0  0  0  0  0  0  0  0
 29 30  1  0  0  0
 30 28  1  0  0  0
 28 31  1  0  0  0
 31 32  1  0  0  0
 32 33  1  0  0  0
 33 34  1  0  0  0
 34 35  1  0  0  0
 35 36  1  0  0  0
 28 27  1  0  0  0
 27 21  1  0  0  0
 21 22  2  0  0  0
 22 23  1  0  0  0
 23 24  2  0  0  0
 24 25  1  0  0  0
 25 26  2  0  0  0
 24  1  1  0  0  0
  1  2  1  0  0  0
  2  3  1  0  0  0
  3  4  2  0  0  0
  4  5  1  0  0  0
  5  6  2  0  0  0
  6  7  1  0  0  0
  6  8  1  0  0  0
  8  9  2  0  0  0
  9 10  1  0  0  0
 10 11  1  0  0  0
 11 13  1  0  0  0
 13 14  2  0  0  0
 14 15  1  0  0  0
 15 16  2  0  0  0
 16 17  1  0  0  0
 16 18  1  0  0  0
 18 19  2  0  0  0
 36 32  1  0  0  0
 26 21  1  0  0  0
 11  1  1  0  0  0
 19 13  1  0  0  0
  9  3  1  0  0  0
  7 12  1  0  0  0
 17 20  1  0  0  0
M  END
> <minimizedAffinity>
18.42681

> <CNNscore>
0.4056741595

> <CNNaffinity>
7.7894830704

> <CNN_VS>
3.1599919796

> <CNNaffinity_variance>
1.3201390505

$$$$
[H]Oc1c([H])c([H])c([C@@]2([H])Sc3c([H])c(O[H])c([H])c([H])c3O[C@@]2([H])c2c([H])c([H])c(O[C@@]([H])(C([H])([H])N3C([H])([H])C([H])([H])C([H])([H])C3([H])[H])C([H])([H])C([H])([H])[H])c([H])c2[H])c([H])c1[H]


 36 40  0  0  0  0  0  0  0  0999 V2000
   10.1124   47.5300  130.8312 C   0  0  0  0  0  0  0  0  0  0  0  0
    9.7258   47.9857  132.1059 O   0  0  0  0  0  0  0  0  0  0  0  0
    9.6643   49.3025  132.5218 C   0  0  0  0  0  0  0  0  0  0  0  0
    9.8014   49.6622  133.8466 C   0  0  0  0  0  0  0  0  0  0  0  0
    9.7343   50.9784  134.2141 C   0  0  0  0  0  0  0  0  0  0  0  0
    9.5305   51.9243  133.2449 C   0  0  0  0  0  0  0  0  0  0  0  0
    9.4658   53.2777  133.6409 O   0  0  0  0  0  0  0  0  0  0  0  0
    9.3942   51.5783  131.9348 C   0  0  0  0  0  0  0  0  0  0  0  0
    9.4563   50.2520  131.5293 C   0  0  0  0  0  0  0  0  0  0  0  0
    9.2637   49.8140  129.8116 S   0  0  0  0  0  0  0  0  0  0  0  0
    9.2337   47.9633  129.7317 C   0  0  0  0  0  0  0  0  0  0  0  0
   10.3404   53.8047  133.6680 H   0  0  0  0  0  0  0  0  0  0  0  0
    7.8372   47.5475  129.7316 C   0  0  0  0  0  0  0  0  0  0  0  0
    7.2929   46.5821  130.5450 C   0  0  0  0  0  0  0  0  0  0  0  0
    5.9292   46.2658  130.4711 C   0  0  0  0  0  0  0  0  0  0  0  0
    5.0954   46.8917  129.6032 C   0  0  0  0  0  0  0  0  0  0  0  0
    3.7208   46.5765  129.5234 O   0  0  0  0  0  0  0  0  0  0  0  0
    5.6188   47.8731  128.7688 C   0  0  0  0  0  0  0  0  0  0  0  0
    6.9503   48.1573  128.8654 C   0  0  0  0  0  0  0  0  0  0  0  0
    3.4379   45.8382  128.8620 H   0  0  0  0  0  0  0  0  0  0  0  0
   11.3094   43.4444  130.9926 C   0  0  0  0  0  0  0  0  0  0  0  0
   10.3782   43.8234  130.0664 C   0  0  0  0  0  0  0  0  0  0  0  0
    9.9768   45.1679  129.9996 C   0  0  0  0  0  0  0  0  0  0  0  0
   10.5014   46.1094  130.8470 C   0  0  0  0  0  0  0  0  0  0  0  0
   11.4319   45.6811  131.7581 C   0  0  0  0  0  0  0  0  0  0  0  0
   11.8563   44.3756  131.8611 C   0  0  0  0  0  0  0  0  0  0  0  0
   11.7325   42.1634  131.1040 O   0  0  0  0  0  0  0  0  0  0  0  0
   11.2550   41.1312  131.9374 C   0  0  0  0  0  0  0  0  0  0  0  0
   10.4789   39.2270  130.4787 C   0  0  0  0  0  0  0  0  0  0  0  0
   11.5796   39.7730  131.3271 C   0  0  0  0  0  0  0  0  0  0  0  0
    9.7975   41.2974  132.1977 C   0  0  0  0  0  0  0  0  0  0  0  0
    9.4633   42.0656  133.3192 N   0  0  0  0  0  0  0  0  0  0  0  0
    8.2092   42.7172  133.3134 C   0  0  0  0  0  0  0  0  0  0  0  0
    8.5458   44.1594  133.4622 C   0  0  0  0  0  0  0  0  0  0  0  0
    9.8916   44.1883  134.1262 C   0  0  0  0  0  0  0  0  0  0  0  0
   10.4261   42.7787  134.0359 C   0  0  0  0  0  0  0  0  0  0  0  0
 29 30  1  0  0  0
 30 28  1  0  0  0
 28 31  1  0  0  0
 31 32  1  0  0  0
 32 33  1  0  0  0
 33 34  1  0  0  0
 34 35  1  0  0  0
 35 36  1  0  0  0
 28 27  1  0  0  0
 27 21  1  0  0  0
 21 22  2  0  0  0
 22 23  1  0  0  0
 23 24  2  0  0  0
 24 25  1  0  0  0
 25 26  2  0  0  0
 24  1  1  0  0  0
  1  2  1  0  0  0
  2  3  1  0  0  0
  3  4  2  0  0  0
  4  5  1  0  0  0
  5  6  2  0  0  0
  6  7  1  0  0  0
  6  8  1  0  0  0
  8  9  2  0  0  0
  9 10  1  0  0  0
 10 11  1  0  0  0
 11 13  1  0  0  0
 13 14  2  0  0  0
 14 15  1  0  0  0
 15 16  2  0  0  0
 16 17  1  0  0  0
 16 18  1  0  0  0
 18 19  2  0  0  0
 36 32  1  0  0  0
 26 21  1  0  0  0
 11  1  1  0  0  0
 19 13  1  0  0  0
  9  3  1  0  0  0
  7 12  1  0  0  0
 17 20  1  0  0  0
M  END
> <minimizedAffinity>
17.49325

> <CNNscore>
0.3683769405

> <CNNaffinity>
7.3362426758

> <CNN_VS>
2.7025027275

> <CNNaffinity_variance>
0.6143627763

$$$$
[H]Oc1c([H])c([H])c([C@@]2([H])Sc3c([H])c(O[H])c([H])c([H])c3O[C@@]2([H])c2c([H])c([H])c(O[C@@]([H])(C([H])([H])N3C([H])([H])C([H])([H])C([H])([H])C3([H])[H])C([H])([H])C([H])([H])[H])c([H])c2[H])c([H])c1[H]


 36 40  0  0  0  0  0  0  0  0999 V2000
   10.5443   45.6952  131.3819 C   0  0  0  0  0  0  0  0  0  0  0  0
    9.5822   44.6697  131.3140 O   0  0  0  0  0  0  0  0  0  0  0  0
    9.8277   43.3293  131.0822 C   0  0  0  0  0  0  0  0  0  0  0  0
    8.8850   42.4965  130.5157 C   0  0  0  0  0  0  0  0  0  0  0  0
    9.1708   41.1753  130.3037 C   0  0  0  0  0  0  0  0  0  0  0  0
   10.4046   40.7014  130.6625 C   0  0  0  0  0  0  0  0  0  0  0  0
   10.6838   39.3365  130.4350 O   0  0  0  0  0  0  0  0  0  0  0  0
   11.3413   41.5164  131.2222 C   0  0  0  0  0  0  0  0  0  0  0  0
   11.0824   42.8610  131.4514 C   0  0  0  0  0  0  0  0  0  0  0  0
   12.3149   43.9124  132.1964 S   0  0  0  0  0  0  0  0  0  0  0  0
   11.5120   45.5572  132.4835 C   0  0  0  0  0  0  0  0  0  0  0  0
   11.0864   39.0805  129.5319 H   0  0  0  0  0  0  0  0  0  0  0  0
   11.0311   45.5757  133.8588 C   0  0  0  0  0  0  0  0  0  0  0  0
   10.3421   46.6089  134.4485 C   0  0  0  0  0  0  0  0  0  0  0  0
    9.9138   46.5190  135.7802 C   0  0  0  0  0  0  0  0  0  0  0  0
   10.1574   45.4203  136.5376 C   0  0  0  0  0  0  0  0  0  0  0  0
    9.7293   45.3243  137.8802 O   0  0  0  0  0  0  0  0  0  0  0  0
   10.8518   44.3596  135.9666 C   0  0  0  0  0  0  0  0  0  0  0  0
   11.2551   44.4787  134.6680 C   0  0  0  0  0  0  0  0  0  0  0  0
   10.3752   45.6555  138.6122 H   0  0  0  0  0  0  0  0  0  0  0  0
    8.7203   49.5176  130.9209 C   0  0  0  0  0  0  0  0  0  0  0  0
    9.9039   49.2698  130.2836 C   0  0  0  0  0  0  0  0  0  0  0  0
   10.5149   48.0127  130.4239 C   0  0  0  0  0  0  0  0  0  0  0  0
    9.9463   47.0274  131.1893 C   0  0  0  0  0  0  0  0  0  0  0  0
    8.7594   47.3234  131.8082 C   0  0  0  0  0  0  0  0  0  0  0  0
    8.1235   48.5395  131.7003 C   0  0  0  0  0  0  0  0  0  0  0  0
    8.0873   50.7103  130.8234 O   0  0  0  0  0  0  0  0  0  0  0  0
    6.9414   51.0584  130.0793 C   0  0  0  0  0  0  0  0  0  0  0  0
    4.6766   51.3566  131.1458 C   0  0  0  0  0  0  0  0  0  0  0  0
    5.7083   50.3870  130.6718 C   0  0  0  0  0  0  0  0  0  0  0  0
    7.1276   50.7232  128.6395 C   0  0  0  0  0  0  0  0  0  0  0  0
    6.6641   49.4632  128.2431 N   0  0  0  0  0  0  0  0  0  0  0  0
    5.4020   49.0505  128.7271 C   0  0  0  0  0  0  0  0  0  0  0  0
    5.6880   47.7905  129.4659 C   0  0  0  0  0  0  0  0  0  0  0  0
    6.9589   47.2585  128.8702 C   0  0  0  0  0  0  0  0  0  0  0  0
    7.5326   48.3878  128.0477 C   0  0  0  0  0  0  0  0  0  0  0  0
 29 30  1  0  0  0
 30 28  1  0  0  0
 28 31  1  0  0  0
 31 32  1  0  0  0
 32 33  1  0  0  0
 33 34  1  0  0  0
 34 35  1  0  0  0
 35 36  1  0  0  0
 28 27  1  0  0  0
 27 21  1  0  0  0
 21 22  2  0  0  0
 22 23  1  0  0  0
 23 24  2  0  0  0
 24 25  1  0  0  0
 25 26  2  0  0  0
 24  1  1  0  0  0
  1  2  1  0  0  0
  2  3  1  0  0  0
  3  4  2  0  0  0
  4  5  1  0  0  0
  5  6  2  0  0  0
  6  7  1  0  0  0
  6  8  1  0  0  0
  8  9  2  0  0  0
  9 10  1  0  0  0
 10 11  1  0  0  0
 11 13  1  0  0  0
 13 14  2  0  0  0
 14 15  1  0  0  0
 15 16  2  0  0  0
 16 17  1  0  0  0
 16 18  1  0  0  0
 18 19  2  0  0  0
 36 32  1  0  0  0
 26 21  1  0  0  0
 11  1  1  0  0  0
 19 13  1  0  0  0
  9  3  1  0  0  0
  7 12  1  0  0  0
 17 20  1  0  0  0
M  END
> <minimizedAffinity>
10.39804

> <CNNscore>
0.3613160551

> <CNNaffinity>
7.6278929710

> <CNN_VS>
2.7560801506

> <CNNaffinity_variance>
0.7164047956

$$$$
[H]Oc1c([H])c([H])c([C@@]2([H])Sc3c([H])c(O[H])c([H])c([H])c3O[C@@]2([H])c2c([H])c([H])c(O[C@@]([H])(C([H])([H])N3C([H])([H])C([H])([H])C([H])([H])C3([H])[H])C([H])([H])C([H])([H])[H])c([H])c2[H])c([H])c1[H]


 36 40  0  0  0  0  0  0  0  0999 V2000
    8.8095   46.7642  129.9785 C   0  0  0  0  0  0  0  0  0  0  0  0
    9.3135   45.4501  129.9457 O   0  0  0  0  0  0  0  0  0  0  0  0
   10.5914   45.0711  129.5796 C   0  0  0  0  0  0  0  0  0  0  0  0
   10.8688   43.8209  129.0665 C   0  0  0  0  0  0  0  0  0  0  0  0
   12.1489   43.4879  128.7166 C   0  0  0  0  0  0  0  0  0  0  0  0
   13.1415   44.4164  128.8845 C   0  0  0  0  0  0  0  0  0  0  0  0
   14.4561   44.0573  128.5166 O   0  0  0  0  0  0  0  0  0  0  0  0
   12.8767   45.6530  129.3901 C   0  0  0  0  0  0  0  0  0  0  0  0
   11.5891   46.0216  129.7557 C   0  0  0  0  0  0  0  0  0  0  0  0
   11.2605   47.6402  130.4277 S   0  0  0  0  0  0  0  0  0  0  0  0
    9.4802   47.6552  130.9404 C   0  0  0  0  0  0  0  0  0  0  0  0
   14.7442   44.2401  127.5538 H   0  0  0  0  0  0  0  0  0  0  0  0
    9.4307   47.3342  132.3608 C   0  0  0  0  0  0  0  0  0  0  0  0
   10.3374   46.5491  133.0326 C   0  0  0  0  0  0  0  0  0  0  0  0
   10.2024   46.3121  134.4076 C   0  0  0  0  0  0  0  0  0  0  0  0
    9.1823   46.8414  135.1283 C   0  0  0  0  0  0  0  0  0  0  0  0
    9.0405   46.6052  136.5137 O   0  0  0  0  0  0  0  0  0  0  0  0
    8.2507   47.6401  134.4746 C   0  0  0  0  0  0  0  0  0  0  0  0
    8.4104   47.8513  133.1355 C   0  0  0  0  0  0  0  0  0  0  0  0
    8.4814   45.7893  136.8042 H   0  0  0  0  0  0  0  0  0  0  0  0
    4.5550   46.9618  129.8736 C   0  0  0  0  0  0  0  0  0  0  0  0
    5.1517   45.8288  130.3521 C   0  0  0  0  0  0  0  0  0  0  0  0
    6.5536   45.7512  130.3957 C   0  0  0  0  0  0  0  0  0  0  0  0
    7.3368   46.7915  129.9667 C   0  0  0  0  0  0  0  0  0  0  0  0
    6.6925   47.9062  129.4959 C   0  0  0  0  0  0  0  0  0  0  0  0
    5.3228   48.0285  129.4341 C   0  0  0  0  0  0  0  0  0  0  0  0
    3.2092   47.0921  129.8066 O   0  0  0  0  0  0  0  0  0  0  0  0
    2.2013   46.1673  130.1482 C   0  0  0  0  0  0  0  0  0  0  0  0
    0.8249   48.1707  129.4789 C   0  0  0  0  0  0  0  0  0  0  0  0
    0.8473   46.8646  130.2019 C   0  0  0  0  0  0  0  0  0  0  0  0
    2.5310   45.4790  131.4279 C   0  0  0  0  0  0  0  0  0  0  0  0
    1.4366   45.0410  132.1828 N   0  0  0  0  0  0  0  0  0  0  0  0
    1.3531   45.4773  133.5245 C   0  0  0  0  0  0  0  0  0  0  0  0
    1.3426   44.2183  134.3184 C   0  0  0  0  0  0  0  0  0  0  0  0
    0.8307   43.1616  133.3834 C   0  0  0  0  0  0  0  0  0  0  0  0
    0.8791   43.7736  132.0036 C   0  0  0  0  0  0  0  0  0  0  0  0
 29 30  1  0  0  0
 30 28  1  0  0  0
 28 31  1  0  0  0
 31 32  1  0  0  0
 32 33  1  0  0  0
 33 34  1  0  0  0
 34 35  1  0  0  0
 35 36  1  0  0  0
 28 27  1  0  0  0
 27 21  1  0  0  0
 21 22  2  0  0  0
 22 23  1  0  0  0
 23 24  2  0  0  0
 24 25  1  0  0  0
 25 26  2  0  0  0
 24  1  1  0  0  0
  1  2  1  0  0  0
  2  3  1  0  0  0
  3  4  2  0  0  0
  4  5  1  0  0  0
  5  6  2  0  0  0
  6  7  1  0  0  0
  6  8  1  0  0  0
  8  9  2  0  0  0
  9 10  1  0  0  0
 10 11  1  0  0  0
 11 13  1  0  0  0
 13 14  2  0  0  0
 14 15  1  0  0  0
 15 16  2  0  0  0
 16 17  1  0  0  0
 16 18  1  0  0  0
 18 19  2  0  0  0
 36 32  1  0  0  0
 26 21  1  0  0  0
 11  1  1  0  0  0
 19 13  1  0  0  0
  9  3  1  0  0  0
  7 12  1  0  0  0
 17 20  1  0  0  0
M  END
> <minimizedAffinity>
27.75408

> <CNNscore>
0.3304322660

> <CNNaffinity>
7.1503915787

> <CNN_VS>
2.3627200127

> <CNNaffinity_variance>
0.9024216533

$$$$
[H]Oc1c([H])c([H])c(-c2nn(-c3c([H])c([H])c([H])c(F)c3[H])c3c([H])c(O[H])c([H])c([H])c23)c(O[H])c1[H]


 28 31  0  0  0  0  0  0  0  0999 V2000
    8.9135   47.1206  130.6891 C   0  0  0  0  0  0  0  0  0  0  0  0
    9.4205   46.9456  131.9421 N   0  0  0  0  0  0  0  0  0  0  0  0
    9.8303   45.7044  132.1165 N   0  0  0  0  0  0  0  0  0  0  0  0
    9.6031   45.0115  130.9663 C   0  0  0  0  0  0  0  0  0  0  0  0
    9.8450   43.6796  130.6170 C   0  0  0  0  0  0  0  0  0  0  0  0
    9.5194   43.2195  129.3814 C   0  0  0  0  0  0  0  0  0  0  0  0
    9.7074   41.9213  128.9118 O   0  0  0  0  0  0  0  0  0  0  0  0
    8.9383   44.1413  128.4975 C   0  0  0  0  0  0  0  0  0  0  0  0
    8.6942   45.4446  128.8196 C   0  0  0  0  0  0  0  0  0  0  0  0
    9.0358   45.8952  130.0899 C   0  0  0  0  0  0  0  0  0  0  0  0
    8.9453   41.2430  129.0536 H   0  0  0  0  0  0  0  0  0  0  0  0
    6.6679   51.8162  128.4957 O   0  0  0  0  0  0  0  0  0  0  0  0
    7.2280   50.6460  129.0296 C   0  0  0  0  0  0  0  0  0  0  0  0
    7.0082   49.4352  128.4115 C   0  0  0  0  0  0  0  0  0  0  0  0
    7.5473   48.2662  128.9228 C   0  0  0  0  0  0  0  0  0  0  0  0
    8.3323   48.3065  130.0901 C   0  0  0  0  0  0  0  0  0  0  0  0
    8.5242   49.5270  130.6648 C   0  0  0  0  0  0  0  0  0  0  0  0
    9.3039   49.5849  131.8188 O   0  0  0  0  0  0  0  0  0  0  0  0
    7.9935   50.7070  130.1693 C   0  0  0  0  0  0  0  0  0  0  0  0
    6.1055   51.8147  127.6700 H   0  0  0  0  0  0  0  0  0  0  0  0
    9.4310   50.4960  132.2632 H   0  0  0  0  0  0  0  0  0  0  0  0
   10.4204   45.1148  133.2733 C   0  0  0  0  0  0  0  0  0  0  0  0
    9.8230   45.1608  134.5005 C   0  0  0  0  0  0  0  0  0  0  0  0
   10.4865   44.5589  135.5647 C   0  0  0  0  0  0  0  0  0  0  0  0
   11.6897   43.9424  135.4063 C   0  0  0  0  0  0  0  0  0  0  0  0
   12.2915   43.8911  134.1911 C   0  0  0  0  0  0  0  0  0  0  0  0
   13.4731   43.2934  134.0103 F   0  0  0  0  0  0  0  0  0  0  0  0
   11.6491   44.4813  133.1244 C   0  0  0  0  0  0  0  0  0  0  0  0
 12 13  1  0  0  0
 13 14  2  0  0  0
 14 15  1  0  0  0
 15 16  2  0  0  0
 16  1  1  0  0  0
  1  2  2  0  0  0
  2  3  1  0  0  0
  3 22  1  0  0  0
 22 23  2  0  0  0
 23 24  1  0  0  0
 24 25  2  0  0  0
 25 26  1  0  0  0
 26 27  1  0  0  0
 26 28  2  0  0  0
  3  4  1  0  0  0
  4  5  2  0  0  0
  5  6  1  0  0  0
  6  7  1  0  0  0
  6  8  2  0  0  0
  8  9  1  0  0  0
  9 10  2  0  0  0
 16 17  1  0  0  0
 17 18  1  0  0  0
 17 19  2  0  0  0
 19 13  1  0  0  0
 10  1  1  0  0  0
 28 22  1  0  0  0
 10  4  1  0  0  0
 12 20  1  0  0  0
  7 11  1  0  0  0
 18 21  1  0  0  0
M  END
> <minimizedAffinity>
-5.68311

> <CNNscore>
0.5041601062

> <CNNaffinity>
7.6154603958

> <CNN_VS>
3.8394112587

> <CNNaffinity_variance>
1.7792987823

$$$$
[H]Oc1c([H])c([H])c(-c2nn(-c3c([H])c([H])c([H])c(F)c3[H])c3c([H])c(O[H])c([H])c([H])c23)c(O[H])c1[H]


 28 31  0  0  0  0  0  0  0  0999 V2000
    9.1749   47.0616  130.5282 C   0  0  0  0  0  0  0  0  0  0  0  0
    9.7691   46.8227  131.7314 N   0  0  0  0  0  0  0  0  0  0  0  0
   10.2359   45.5909  131.7911 N   0  0  0  0  0  0  0  0  0  0  0  0
    9.9601   44.9694  130.6111 C   0  0  0  0  0  0  0  0  0  0  0  0
   10.2286   43.6759  130.1535 C   0  0  0  0  0  0  0  0  0  0  0  0
    9.8404   43.2883  128.9112 C   0  0  0  0  0  0  0  0  0  0  0  0
   10.0460   42.0344  128.3397 O   0  0  0  0  0  0  0  0  0  0  0  0
    9.1684   44.2431  128.1332 C   0  0  0  0  0  0  0  0  0  0  0  0
    8.8969   45.5099  128.5618 C   0  0  0  0  0  0  0  0  0  0  0  0
    9.3038   45.8864  129.8369 C   0  0  0  0  0  0  0  0  0  0  0  0
    9.3209   41.3165  128.4804 H   0  0  0  0  0  0  0  0  0  0  0  0
    6.6176   51.7986  128.8182 O   0  0  0  0  0  0  0  0  0  0  0  0
    7.2543   50.6189  129.2316 C   0  0  0  0  0  0  0  0  0  0  0  0
    7.0252   49.4412  128.5556 C   0  0  0  0  0  0  0  0  0  0  0  0
    7.6392   48.2634  128.9483 C   0  0  0  0  0  0  0  0  0  0  0  0
    8.5115   48.2603  130.0526 C   0  0  0  0  0  0  0  0  0  0  0  0
    8.7092   49.4492  130.6882 C   0  0  0  0  0  0  0  0  0  0  0  0
    9.5747   49.4642  131.7808 O   0  0  0  0  0  0  0  0  0  0  0  0
    8.1044   50.6374  130.3113 C   0  0  0  0  0  0  0  0  0  0  0  0
    5.9926   51.8274  128.0393 H   0  0  0  0  0  0  0  0  0  0  0  0
    9.7074   50.3503  132.2718 H   0  0  0  0  0  0  0  0  0  0  0  0
   10.9222   44.9488  132.8639 C   0  0  0  0  0  0  0  0  0  0  0  0
   12.0703   44.2347  132.6714 C   0  0  0  0  0  0  0  0  0  0  0  0
   12.6571   43.6432  133.7852 C   0  0  0  0  0  0  0  0  0  0  0  0
   12.1191   43.7612  135.0300 C   0  0  0  0  0  0  0  0  0  0  0  0
   10.9788   44.4688  135.2318 C   0  0  0  0  0  0  0  0  0  0  0  0
   10.4301   44.5979  136.4435 F   0  0  0  0  0  0  0  0  0  0  0  0
   10.3830   45.0628  134.1404 C   0  0  0  0  0  0  0  0  0  0  0  0
 12 13  1  0  0  0
 13 14  2  0  0  0
 14 15  1  0  0  0
 15 16  2  0  0  0
 16  1  1  0  0  0
  1  2  2  0  0  0
  2  3  1  0  0  0
  3 22  1  0  0  0
 22 23  2  0  0  0
 23 24  1  0  0  0
 24 25  2  0  0  0
 25 26  1  0  0  0
 26 27  1  0  0  0
 26 28  2  0  0  0
  3  4  1  0  0  0
  4  5  2  0  0  0
  5  6  1  0  0  0
  6  7  1  0  0  0
  6  8  2  0  0  0
  8  9  1  0  0  0
  9 10  2  0  0  0
 16 17  1  0  0  0
 17 18  1  0  0  0
 17 19  2  0  0  0
 19 13  1  0  0  0
 10  1  1  0  0  0
 28 22  1  0  0  0
 10  4  1  0  0  0
 12 20  1  0  0  0
  7 11  1  0  0  0
 18 21  1  0  0  0
M  END
> <minimizedAffinity>
-5.73848

> <CNNscore>
0.4905000329

> <CNNaffinity>
7.7165994644

> <CNN_VS>
3.7849922180

> <CNNaffinity_variance>
2.5521254539

$$$$
[H]Oc1c([H])c([H])c(-c2nn(-c3c([H])c([H])c([H])c(F)c3[H])c3c([H])c(O[H])c([H])c([H])c23)c(O[H])c1[H]


 28 31  0  0  0  0  0  0  0  0999 V2000
    8.7326   47.4223  131.2375 C   0  0  0  0  0  0  0  0  0  0  0  0
    9.1732   46.2317  130.7415 N   0  0  0  0  0  0  0  0  0  0  0  0
    9.5849   45.4393  131.7119 N   0  0  0  0  0  0  0  0  0  0  0  0
    9.4262   46.0926  132.8962 C   0  0  0  0  0  0  0  0  0  0  0  0
    9.7022   45.7147  134.2137 C   0  0  0  0  0  0  0  0  0  0  0  0
    9.4514   46.5645  135.2429 C   0  0  0  0  0  0  0  0  0  0  0  0
    9.6805   46.3099  136.5934 O   0  0  0  0  0  0  0  0  0  0  0  0
    8.9112   47.8162  134.9108 C   0  0  0  0  0  0  0  0  0  0  0  0
    8.6352   48.2033  133.6318 C   0  0  0  0  0  0  0  0  0  0  0  0
    8.8991   47.3177  132.5929 C   0  0  0  0  0  0  0  0  0  0  0  0
   10.6001   46.5640  136.9819 H   0  0  0  0  0  0  0  0  0  0  0  0
    6.7353   51.8471  128.3505 O   0  0  0  0  0  0  0  0  0  0  0  0
    7.2293   50.7538  129.0777 C   0  0  0  0  0  0  0  0  0  0  0  0
    7.9926   50.9662  130.2041 C   0  0  0  0  0  0  0  0  0  0  0  0
    8.4945   49.9024  130.9354 C   0  0  0  0  0  0  0  0  0  0  0  0
    8.2259   48.5820  130.5294 C   0  0  0  0  0  0  0  0  0  0  0  0
    7.4645   48.4214  129.4108 C   0  0  0  0  0  0  0  0  0  0  0  0
    7.1848   47.1196  128.9983 O   0  0  0  0  0  0  0  0  0  0  0  0
    6.9538   49.4719  128.6658 C   0  0  0  0  0  0  0  0  0  0  0  0
    6.9132   52.7936  128.6159 H   0  0  0  0  0  0  0  0  0  0  0  0
    6.6323   46.9973  128.1478 H   0  0  0  0  0  0  0  0  0  0  0  0
   10.1131   44.1177  131.6198 C   0  0  0  0  0  0  0  0  0  0  0  0
   11.2059   43.7178  132.3346 C   0  0  0  0  0  0  0  0  0  0  0  0
   11.6431   42.4080  132.1670 C   0  0  0  0  0  0  0  0  0  0  0  0
   11.0161   41.5425  131.3239 C   0  0  0  0  0  0  0  0  0  0  0  0
    9.9296   41.9301  130.6094 C   0  0  0  0  0  0  0  0  0  0  0  0
    9.2978   41.0999  129.7740 F   0  0  0  0  0  0  0  0  0  0  0  0
    9.4810   43.2240  130.7626 C   0  0  0  0  0  0  0  0  0  0  0  0
 12 13  1  0  0  0
 13 14  2  0  0  0
 14 15  1  0  0  0
 15 16  2  0  0  0
 16  1  1  0  0  0
  1  2  2  0  0  0
  2  3  1  0  0  0
  3 22  1  0  0  0
 22 23  2  0  0  0
 23 24  1  0  0  0
 24 25  2  0  0  0
 25 26  1  0  0  0
 26 27  1  0  0  0
 26 28  2  0  0  0
  3  4  1  0  0  0
  4  5  2  0  0  0
  5  6  1  0  0  0
  6  7  1  0  0  0
  6  8  2  0  0  0
  8  9  1  0  0  0
  9 10  2  0  0  0
 16 17  1  0  0  0
 17 18  1  0  0  0
 17 19  2  0  0  0
 19 13  1  0  0  0
 10  1  1  0  0  0
 28 22  1  0  0  0
 10  4  1  0  0  0
 12 20  1  0  0  0
  7 11  1  0  0  0
 18 21  1  0  0  0
M  END
> <minimizedAffinity>
-3.75060

> <CNNscore>
0.4859364927

> <CNNaffinity>
7.4339103699

> <CNN_VS>
3.6124083996

> <CNNaffinity_variance>
1.2095702887

$$$$
[H]Oc1c([H])c([H])c(-c2nn(-c3c([H])c([H])c([H])c(F)c3[H])c3c([H])c(O[H])c([H])c([H])c23)c(O[H])c1[H]


 28 31  0  0  0  0  0  0  0  0999 V2000
    8.9799   46.0169  129.8632 C   0  0  0  0  0  0  0  0  0  0  0  0
    9.6869   46.7050  130.8036 N   0  0  0  0  0  0  0  0  0  0  0  0
    9.1082   47.8572  131.0800 N   0  0  0  0  0  0  0  0  0  0  0  0
    7.9841   47.9666  130.3190 C   0  0  0  0  0  0  0  0  0  0  0  0
    7.0193   48.9737  130.2204 C   0  0  0  0  0  0  0  0  0  0  0  0
    5.9709   48.8445  129.3669 C   0  0  0  0  0  0  0  0  0  0  0  0
    4.9479   49.7709  129.1756 O   0  0  0  0  0  0  0  0  0  0  0  0
    5.9167   47.6661  128.6072 C   0  0  0  0  0  0  0  0  0  0  0  0
    6.8482   46.6723  128.6891 C   0  0  0  0  0  0  0  0  0  0  0  0
    7.9133   46.8245  129.5699 C   0  0  0  0  0  0  0  0  0  0  0  0
    5.0807   50.4921  128.4522 H   0  0  0  0  0  0  0  0  0  0  0  0
   10.0906   40.9484  127.6320 O   0  0  0  0  0  0  0  0  0  0  0  0
    9.8118   42.2113  128.1754 C   0  0  0  0  0  0  0  0  0  0  0  0
   10.1566   43.3494  127.4811 C   0  0  0  0  0  0  0  0  0  0  0  0
    9.8952   44.6069  127.9997 C   0  0  0  0  0  0  0  0  0  0  0  0
    9.2684   44.7333  129.2534 C   0  0  0  0  0  0  0  0  0  0  0  0
    8.9437   43.5797  129.9018 C   0  0  0  0  0  0  0  0  0  0  0  0
    8.3174   43.6876  131.1425 O   0  0  0  0  0  0  0  0  0  0  0  0
    9.1971   42.3132  129.4004 C   0  0  0  0  0  0  0  0  0  0  0  0
   10.5363   40.8312  126.7456 H   0  0  0  0  0  0  0  0  0  0  0  0
    8.0927   42.8239  131.6398 H   0  0  0  0  0  0  0  0  0  0  0  0
    9.5217   48.8639  132.0018 C   0  0  0  0  0  0  0  0  0  0  0  0
    9.1639   50.1742  131.8596 C   0  0  0  0  0  0  0  0  0  0  0  0
    9.6258   51.0766  132.8121 C   0  0  0  0  0  0  0  0  0  0  0  0
   10.4082   50.6847  133.8548 C   0  0  0  0  0  0  0  0  0  0  0  0
   10.7689   49.3852  134.0051 C   0  0  0  0  0  0  0  0  0  0  0  0
   11.5375   48.9760  135.0190 F   0  0  0  0  0  0  0  0  0  0  0  0
   10.3205   48.4761  133.0718 C   0  0  0  0  0  0  0  0  0  0  0  0
 12 13  1  0  0  0
 13 14  2  0  0  0
 14 15  1  0  0  0
 15 16  2  0  0  0
 16  1  1  0  0  0
  1  2  2  0  0  0
  2  3  1  0  0  0
  3 22  1  0  0  0
 22 23  2  0  0  0
 23 24  1  0  0  0
 24 25  2  0  0  0
 25 26  1  0  0  0
 26 27  1  0  0  0
 26 28  2  0  0  0
  3  4  1  0  0  0
  4  5  2  0  0  0
  5  6  1  0  0  0
  6  7  1  0  0  0
  6  8  2  0  0  0
  8  9  1  0  0  0
  9 10  2  0  0  0
 16 17  1  0  0  0
 17 18  1  0  0  0
 17 19  2  0  0  0
 19 13  1  0  0  0
 10  1  1  0  0  0
 28 22  1  0  0  0
 10  4  1  0  0  0
 12 20  1  0  0  0
  7 11  1  0  0  0
 18 21  1  0  0  0
M  END
> <minimizedAffinity>
4.34583

> <CNNscore>
0.4640349150

> <CNNaffinity>
7.0310564041

> <CNN_VS>
3.2626557350

> <CNNaffinity_variance>
1.8115050793

$$$$
[H]Oc1c([H])c([H])c(-c2nn(-c3c([H])c([H])c([H])c(F)c3[H])c3c([H])c(O[H])c([H])c([H])c23)c(O[H])c1[H]


 28 31  0  0  0  0  0  0  0  0999 V2000
    8.5888   47.4974  131.0443 C   0  0  0  0  0  0  0  0  0  0  0  0
    8.9499   46.2929  130.5183 N   0  0  0  0  0  0  0  0  0  0  0  0
    9.3623   45.4699  131.4625 N   0  0  0  0  0  0  0  0  0  0  0  0
    9.2846   46.1156  132.6590 C   0  0  0  0  0  0  0  0  0  0  0  0
    9.5960   45.7090  133.9599 C   0  0  0  0  0  0  0  0  0  0  0  0
    9.4296   46.5574  135.0072 C   0  0  0  0  0  0  0  0  0  0  0  0
    9.7016   46.2757  136.3443 O   0  0  0  0  0  0  0  0  0  0  0  0
    8.9379   47.8376  134.7106 C   0  0  0  0  0  0  0  0  0  0  0  0
    8.6285   48.2531  133.4482 C   0  0  0  0  0  0  0  0  0  0  0  0
    8.8058   47.3684  132.3904 C   0  0  0  0  0  0  0  0  0  0  0  0
   10.6478   46.4804  136.6965 H   0  0  0  0  0  0  0  0  0  0  0  0
    6.7068   52.0511  128.2831 O   0  0  0  0  0  0  0  0  0  0  0  0
    7.1718   50.9253  128.9792 C   0  0  0  0  0  0  0  0  0  0  0  0
    7.8918   51.0855  130.1421 C   0  0  0  0  0  0  0  0  0  0  0  0
    8.3646   49.9890  130.8439 C   0  0  0  0  0  0  0  0  0  0  0  0
    8.1104   48.6886  130.3697 C   0  0  0  0  0  0  0  0  0  0  0  0
    7.3921   48.5799  129.2169 C   0  0  0  0  0  0  0  0  0  0  0  0
    7.1271   47.2984  128.7366 O   0  0  0  0  0  0  0  0  0  0  0  0
    6.9111   49.6637  128.5005 C   0  0  0  0  0  0  0  0  0  0  0  0
    6.8753   52.9845  128.5969 H   0  0  0  0  0  0  0  0  0  0  0  0
    6.6072   47.2154  127.8610 H   0  0  0  0  0  0  0  0  0  0  0  0
    9.8212   44.1255  131.3351 C   0  0  0  0  0  0  0  0  0  0  0  0
    9.1600   43.1976  130.5821 C   0  0  0  0  0  0  0  0  0  0  0  0
    9.6898   41.9126  130.5295 C   0  0  0  0  0  0  0  0  0  0  0  0
   10.8256   41.5745  131.1994 C   0  0  0  0  0  0  0  0  0  0  0  0
   11.4899   42.4892  131.9500 C   0  0  0  0  0  0  0  0  0  0  0  0
   12.6058   42.1816  132.6182 F   0  0  0  0  0  0  0  0  0  0  0  0
   10.9808   43.7681  132.0139 C   0  0  0  0  0  0  0  0  0  0  0  0
 12 13  1  0  0  0
 13 14  2  0  0  0
 14 15  1  0  0  0
 15 16  2  0  0  0
 16  1  1  0  0  0
  1  2  2  0  0  0
  2  3  1  0  0  0
  3 22  1  0  0  0
 22 23  2  0  0  0
 23 24  1  0  0  0
 24 25  2  0  0  0
 25 26  1  0  0  0
 26 27  1  0  0  0
 26 28  2  0  0  0
  3  4  1  0  0  0
  4  5  2  0  0  0
  5  6  1  0  0  0
  6  7  1  0  0  0
  6  8  2  0  0  0
  8  9  1  0  0  0
  9 10  2  0  0  0
 16 17  1  0  0  0
 17 18  1  0  0  0
 17 19  2  0  0  0
 19 13  1  0  0  0
 10  1  1  0  0  0
 28 22  1  0  0  0
 10  4  1  0  0  0
 12 20  1  0  0  0
  7 11  1  0  0  0
 18 21  1  0  0  0
M  END
> <minimizedAffinity>
-4.68843

> <CNNscore>
0.4549382031

> <CNNaffinity>
7.3765707016

> <CNN_VS>
3.3558838367

> <CNNaffinity_variance>
1.2466202974

$$$$
[H]Oc1c([H])c([H])c(-c2nn(-c3c([H])c([H])c([H])c(F)c3[H])c3c([H])c(O[H])c([H])c([H])c23)c(O[H])c1[H]


 28 31  0  0  0  0  0  0  0  0999 V2000
    8.0625   47.2208  130.9242 C   0  0  0  0  0  0  0  0  0  0  0  0
    8.4278   45.9251  130.7108 N   0  0  0  0  0  0  0  0  0  0  0  0
    9.4394   45.5859  131.4857 N   0  0  0  0  0  0  0  0  0  0  0  0
    9.7780   46.6637  132.2462 C   0  0  0  0  0  0  0  0  0  0  0  0
   10.7669   46.8458  133.2176 C   0  0  0  0  0  0  0  0  0  0  0  0
   10.9069   48.0421  133.8450 C   0  0  0  0  0  0  0  0  0  0  0  0
   11.8476   48.3510  134.8252 O   0  0  0  0  0  0  0  0  0  0  0  0
   10.0192   49.0608  133.4670 C   0  0  0  0  0  0  0  0  0  0  0  0
    9.0480   48.9028  132.5216 C   0  0  0  0  0  0  0  0  0  0  0  0
    8.9215   47.6696  131.8919 C   0  0  0  0  0  0  0  0  0  0  0  0
   12.7563   48.7271  134.5188 H   0  0  0  0  0  0  0  0  0  0  0  0
    4.1058   50.4013  128.4481 O   0  0  0  0  0  0  0  0  0  0  0  0
    5.0857   49.6023  129.0560 C   0  0  0  0  0  0  0  0  0  0  0  0
    4.8330   48.2705  129.2985 C   0  0  0  0  0  0  0  0  0  0  0  0
    5.7835   47.4634  129.9014 C   0  0  0  0  0  0  0  0  0  0  0  0
    7.0285   48.0031  130.2749 C   0  0  0  0  0  0  0  0  0  0  0  0
    7.2337   49.3244  130.0127 C   0  0  0  0  0  0  0  0  0  0  0  0
    8.4638   49.8731  130.3717 O   0  0  0  0  0  0  0  0  0  0  0  0
    6.2960   50.1481  129.4113 C   0  0  0  0  0  0  0  0  0  0  0  0
    3.2138   50.0436  128.1754 H   0  0  0  0  0  0  0  0  0  0  0  0
    8.6114   50.8686  130.1955 H   0  0  0  0  0  0  0  0  0  0  0  0
   10.1137   44.3322  131.5736 C   0  0  0  0  0  0  0  0  0  0  0  0
   11.0152   44.0568  132.5617 C   0  0  0  0  0  0  0  0  0  0  0  0
   11.6209   42.8047  132.5524 C   0  0  0  0  0  0  0  0  0  0  0  0
   11.3374   41.8752  131.5991 C   0  0  0  0  0  0  0  0  0  0  0  0
   10.4431   42.1391  130.6132 C   0  0  0  0  0  0  0  0  0  0  0  0
   10.1491   41.2442  129.6651 F   0  0  0  0  0  0  0  0  0  0  0  0
    9.8320   43.3742  130.6061 C   0  0  0  0  0  0  0  0  0  0  0  0
 12 13  1  0  0  0
 13 14  2  0  0  0
 14 15  1  0  0  0
 15 16  2  0  0  0
 16  1  1  0  0  0
  1  2  2  0  0  0
  2  3  1  0  0  0
  3 22  1  0  0  0
 22 23  2  0  0  0
 23 24  1  0  0  0
 24 25  2  0  0  0
 25 26  1  0  0  0
 26 27  1  0  0  0
 26 28  2  0  0  0
  3  4  1  0  0  0
  4  5  2  0  0  0
  5  6  1  0  0  0
  6  7  1  0  0  0
  6  8  2  0  0  0
  8  9  1  0  0  0
  9 10  2  0  0  0
 16 17  1  0  0  0
 17 18  1  0  0  0
 17 19  2  0  0  0
 19 13  1  0  0  0
 10  1  1  0  0  0
 28 22  1  0  0  0
 10  4  1  0  0  0
 12 20  1  0  0  0
  7 11  1  0  0  0
 18 21  1  0  0  0
M  END
> <minimizedAffinity>
-0.76474

> <CNNscore>
0.4187864065

> <CNNaffinity>
7.1343164444

> <CNN_VS>
2.9877548218

> <CNNaffinity_variance>
1.2124145031

$$$$
[H]Oc1c([H])c([H])c(-c2nn(-c3c([H])c([H])c([H])c(F)c3[H])c3c([H])c(O[H])c([H])c([H])c23)c(O[H])c1[H]


 28 31  0  0  0  0  0  0  0  0999 V2000
   11.1352   46.1295  132.1402 C   0  0  0  0  0  0  0  0  0  0  0  0
   12.2285   46.5753  132.8212 N   0  0  0  0  0  0  0  0  0  0  0  0
   11.8805   47.1079  133.9762 N   0  0  0  0  0  0  0  0  0  0  0  0
   10.5262   47.0287  134.0950 C   0  0  0  0  0  0  0  0  0  0  0  0
    9.6535   47.4395  135.1070 C   0  0  0  0  0  0  0  0  0  0  0  0
    8.3147   47.2458  134.9853 C   0  0  0  0  0  0  0  0  0  0  0  0
    7.3439   47.6076  135.9169 O   0  0  0  0  0  0  0  0  0  0  0  0
    7.8714   46.6231  133.8087 C   0  0  0  0  0  0  0  0  0  0  0  0
    8.7070   46.2154  132.8100 C   0  0  0  0  0  0  0  0  0  0  0  0
   10.0742   46.4227  132.9551 C   0  0  0  0  0  0  0  0  0  0  0  0
    6.9276   48.5465  135.8383 H   0  0  0  0  0  0  0  0  0  0  0  0
   10.9704   43.6429  127.0715 O   0  0  0  0  0  0  0  0  0  0  0  0
   10.9997   44.2625  128.3298 C   0  0  0  0  0  0  0  0  0  0  0  0
   10.2283   45.3789  128.5640 C   0  0  0  0  0  0  0  0  0  0  0  0
   10.2442   46.0098  129.7970 C   0  0  0  0  0  0  0  0  0  0  0  0
   11.0571   45.5100  130.8313 C   0  0  0  0  0  0  0  0  0  0  0  0
   11.8006   44.4023  130.5536 C   0  0  0  0  0  0  0  0  0  0  0  0
   12.6072   43.8915  131.5692 O   0  0  0  0  0  0  0  0  0  0  0  0
   11.7988   43.7575  129.3274 C   0  0  0  0  0  0  0  0  0  0  0  0
   10.4041   43.9787  126.3201 H   0  0  0  0  0  0  0  0  0  0  0  0
   13.1815   43.0739  131.3562 H   0  0  0  0  0  0  0  0  0  0  0  0
   12.7148   47.6833  134.9798 C   0  0  0  0  0  0  0  0  0  0  0  0
   12.3932   48.8486  135.6152 C   0  0  0  0  0  0  0  0  0  0  0  0
   13.2795   49.3265  136.5749 C   0  0  0  0  0  0  0  0  0  0  0  0
   14.4313   48.6690  136.8815 C   0  0  0  0  0  0  0  0  0  0  0  0
   14.7597   47.5105  136.2560 C   0  0  0  0  0  0  0  0  0  0  0  0
   15.8853   46.8474  136.5380 F   0  0  0  0  0  0  0  0  0  0  0  0
   13.8938   47.0207  135.3025 C   0  0  0  0  0  0  0  0  0  0  0  0
 12 13  1  0  0  0
 13 14  2  0  0  0
 14 15  1  0  0  0
 15 16  2  0  0  0
 16  1  1  0  0  0
  1  2  2  0  0  0
  2  3  1  0  0  0
  3 22  1  0  0  0
 22 23  2  0  0  0
 23 24  1  0  0  0
 24 25  2  0  0  0
 25 26  1  0  0  0
 26 27  1  0  0  0
 26 28  2  0  0  0
  3  4  1  0  0  0
  4  5  2  0  0  0
  5  6  1  0  0  0
  6  7  1  0  0  0
  6  8  2  0  0  0
  8  9  1  0  0  0
  9 10  2  0  0  0
 16 17  1  0  0  0
 17 18  1  0  0  0
 17 19  2  0  0  0
 19 13  1  0  0  0
 10  1  1  0  0  0
 28 22  1  0  0  0
 10  4  1  0  0  0
 12 20  1  0  0  0
  7 11  1  0  0  0
 18 21  1  0  0  0
M  END
> <minimizedAffinity>
14.41774

> <CNNscore>
0.4030570686

> <CNNaffinity>
6.4335069656

> <CNN_VS>
2.5930705070

> <CNNaffinity_variance>
1.2045109272

$$$$
[H]Oc1c([H])c([H])c(-c2nn(-c3c([H])c([H])c([H])c(F)c3[H])c3c([H])c(O[H])c([H])c([H])c23)c(O[H])c1[H]


 28 31  0  0  0  0  0  0  0  0999 V2000
    9.1253   47.3753  130.6853 C   0  0  0  0  0  0  0  0  0  0  0  0
    9.3309   46.8322  131.9184 N   0  0  0  0  0  0  0  0  0  0  0  0
   10.0179   45.7100  131.8314 N   0  0  0  0  0  0  0  0  0  0  0  0
   10.2912   45.4745  130.5182 C   0  0  0  0  0  0  0  0  0  0  0  0
   10.9795   44.4380  129.8804 C   0  0  0  0  0  0  0  0  0  0  0  0
   11.1172   44.4292  128.5294 C   0  0  0  0  0  0  0  0  0  0  0  0
   11.7761   43.4593  127.7768 O   0  0  0  0  0  0  0  0  0  0  0  0
   10.5394   45.4988  127.8289 C   0  0  0  0  0  0  0  0  0  0  0  0
    9.8640   46.5191  128.4330 C   0  0  0  0  0  0  0  0  0  0  0  0
    9.7352   46.5091  129.8173 C   0  0  0  0  0  0  0  0  0  0  0  0
   11.2268   42.6552  127.4411 H   0  0  0  0  0  0  0  0  0  0  0  0
    6.2235   51.9726  129.1533 O   0  0  0  0  0  0  0  0  0  0  0  0
    6.9471   50.8360  129.5440 C   0  0  0  0  0  0  0  0  0  0  0  0
    8.1422   50.9788  130.2131 C   0  0  0  0  0  0  0  0  0  0  0  0
    8.8760   49.8714  130.6049 C   0  0  0  0  0  0  0  0  0  0  0  0
    8.4014   48.5775  130.3196 C   0  0  0  0  0  0  0  0  0  0  0  0
    7.2136   48.4861  129.6582 C   0  0  0  0  0  0  0  0  0  0  0  0
    6.7270   47.2114  129.3727 O   0  0  0  0  0  0  0  0  0  0  0  0
    6.4654   49.5811  129.2577 C   0  0  0  0  0  0  0  0  0  0  0  0
    6.5390   52.9016  129.3415 H   0  0  0  0  0  0  0  0  0  0  0  0
    5.8473   47.1411  128.8579 H   0  0  0  0  0  0  0  0  0  0  0  0
   10.4418   44.8409  132.8798 C   0  0  0  0  0  0  0  0  0  0  0  0
   11.5365   45.1086  133.6511 C   0  0  0  0  0  0  0  0  0  0  0  0
   11.8668   44.1919  134.6438 C   0  0  0  0  0  0  0  0  0  0  0  0
   11.1361   43.0623  134.8520 C   0  0  0  0  0  0  0  0  0  0  0  0
   10.0467   42.7873  134.0911 C   0  0  0  0  0  0  0  0  0  0  0  0
    9.3143   41.6846  134.2747 F   0  0  0  0  0  0  0  0  0  0  0  0
    9.7032   43.6842  133.1030 C   0  0  0  0  0  0  0  0  0  0  0  0
 12 13  1  0  0  0
 13 14  2  0  0  0
 14 15  1  0  0  0
 15 16  2  0  0  0
 16  1  1  0  0  0
  1  2  2  0  0  0
  2  3  1  0  0  0
  3 22  1  0  0  0
 22 23  2  0  0  0
 23 24  1  0  0  0
 24 25  2  0  0  0
 25 26  1  0  0  0
 26 27  1  0  0  0
 26 28  2  0  0  0
  3  4  1  0  0  0
  4  5  2  0  0  0
  5  6  1  0  0  0
  6  7  1  0  0  0
  6  8  2  0  0  0
  8  9  1  0  0  0
  9 10  2  0  0  0
 16 17  1  0  0  0
 17 18  1  0  0  0
 17 19  2  0  0  0
 19 13  1  0  0  0
 10  1  1  0  0  0
 28 22  1  0  0  0
 10  4  1  0  0  0
 12 20  1  0  0  0
  7 11  1  0  0  0
 18 21  1  0  0  0
M  END
> <minimizedAffinity>
-3.42680

> <CNNscore>
0.4017819166

> <CNNaffinity>
7.6516828537

> <CNN_VS>
3.0743079185

> <CNNaffinity_variance>
3.3645484447

$$$$
[H]Oc1c([H])c([H])c(-c2nn(-c3c([H])c([H])c([H])c(F)c3[H])c3c([H])c(O[H])c([H])c([H])c23)c(O[H])c1[H]


 28 31  0  0  0  0  0  0  0  0999 V2000
    8.5665   47.2488  131.1230 C   0  0  0  0  0  0  0  0  0  0  0  0
    9.5331   46.5142  130.5034 N   0  0  0  0  0  0  0  0  0  0  0  0
   10.3019   45.9059  131.3853 N   0  0  0  0  0  0  0  0  0  0  0  0
    9.8596   46.2250  132.6332 C   0  0  0  0  0  0  0  0  0  0  0  0
   10.3103   45.8572  133.9045 C   0  0  0  0  0  0  0  0  0  0  0  0
    9.6874   46.3205  135.0188 C   0  0  0  0  0  0  0  0  0  0  0  0
   10.0366   46.0307  136.3361 O   0  0  0  0  0  0  0  0  0  0  0  0
    8.5896   47.1715  134.8208 C   0  0  0  0  0  0  0  0  0  0  0  0
    8.1349   47.5420  133.5887 C   0  0  0  0  0  0  0  0  0  0  0  0
    8.7867   47.0558  132.4609 C   0  0  0  0  0  0  0  0  0  0  0  0
   10.7138   46.6513  136.8022 H   0  0  0  0  0  0  0  0  0  0  0  0
    4.5212   50.4035  128.7596 O   0  0  0  0  0  0  0  0  0  0  0  0
    5.5256   49.6268  129.3563 C   0  0  0  0  0  0  0  0  0  0  0  0
    6.5094   50.2332  130.1052 C   0  0  0  0  0  0  0  0  0  0  0  0
    7.5134   49.4873  130.7000 C   0  0  0  0  0  0  0  0  0  0  0  0
    7.5369   48.0890  130.5426 C   0  0  0  0  0  0  0  0  0  0  0  0
    6.5419   47.5337  129.7953 C   0  0  0  0  0  0  0  0  0  0  0  0
    6.5477   46.1492  129.6342 O   0  0  0  0  0  0  0  0  0  0  0  0
    5.5295   48.2623  129.1922 C   0  0  0  0  0  0  0  0  0  0  0  0
    4.4830   51.3973  128.8540 H   0  0  0  0  0  0  0  0  0  0  0  0
    5.8148   45.7333  129.0565 H   0  0  0  0  0  0  0  0  0  0  0  0
   11.4168   45.0471  131.1537 C   0  0  0  0  0  0  0  0  0  0  0  0
   11.8009   44.0926  132.0518 C   0  0  0  0  0  0  0  0  0  0  0  0
   12.9062   43.3115  131.7307 C   0  0  0  0  0  0  0  0  0  0  0  0
   13.5927   43.4797  130.5673 C   0  0  0  0  0  0  0  0  0  0  0  0
   13.2190   44.4251  129.6685 C   0  0  0  0  0  0  0  0  0  0  0  0
   13.8775   44.6109  128.5204 F   0  0  0  0  0  0  0  0  0  0  0  0
   12.1257   45.2085  129.9686 C   0  0  0  0  0  0  0  0  0  0  0  0
 12 13  1  0  0  0
 13 14  2  0  0  0
 14 15  1  0  0  0
 15 16  2  0  0  0
 16  1  1  0  0  0
  1  2  2  0  0  0
  2  3  1  0  0  0
  3 22  1  0  0  0
 22 23  2  0  0  0
 23 24  1  0  0  0
 24 25  2  0  0  0
 25 26  1  0  0  0
 26 27  1  0  0  0
 26 28  2  0  0  0
  3  4  1  0  0  0
  4  5  2  0  0  0
  5  6  1  0  0  0
  6  7  1  0  0  0
  6  8  2  0  0  0
  8  9  1  0  0  0
  9 10  2  0  0  0
 16 17  1  0  0  0
 17 18  1  0  0  0
 17 19  2  0  0  0
 19 13  1  0  0  0
 10  1  1  0  0  0
 28 22  1  0  0  0
 10  4  1  0  0  0
 12 20  1  0  0  0
  7 11  1  0  0  0
 18 21  1  0  0  0
M  END
> <minimizedAffinity>
-2.43691

> <CNNscore>
0.3999366164

> <CNNaffinity>
7.0583429337

> <CNN_VS>
2.8228898048

> <CNNaffinity_variance>
0.7633532882

$$$$
[H]OC(=O)/C([H])=C(\[H])c1c([H])c([H])c(Oc2c(-c3c([H])c([H])c([H])c([H])c3C([H])(C([H])([H])[H])C([H])([H])[H])sc3c(F)c(O[H])c([H])c([H])c23)c([H])c1[H]


 34 37  0  0  0  0  0  0  0  0999 V2000
    9.9090   46.8741  132.1636 C   0  0  0  0  0  0  0  0  0  0  0  0
    9.9815   48.5741  132.2323 S   0  0  0  0  0  0  0  0  0  0  0  0
    8.7689   48.9699  131.1115 C   0  0  0  0  0  0  0  0  0  0  0  0
    8.2345   50.1751  130.6169 C   0  0  0  0  0  0  0  0  0  0  0  0
    8.7684   51.3135  131.1135 F   0  0  0  0  0  0  0  0  0  0  0  0
    7.2256   50.1649  129.6810 C   0  0  0  0  0  0  0  0  0  0  0  0
    6.7023   51.3527  129.1966 O   0  0  0  0  0  0  0  0  0  0  0  0
    6.7684   48.9400  129.2556 C   0  0  0  0  0  0  0  0  0  0  0  0
    7.2915   47.7751  129.7399 C   0  0  0  0  0  0  0  0  0  0  0  0
    8.3253   47.7527  130.6989 C   0  0  0  0  0  0  0  0  0  0  0  0
    8.9162   46.6523  131.2429 C   0  0  0  0  0  0  0  0  0  0  0  0
    7.0386   52.2501  129.5095 H   0  0  0  0  0  0  0  0  0  0  0  0
   10.3407   45.3210  134.0509 C   0  0  0  0  0  0  0  0  0  0  0  0
   11.1163   44.3055  134.6222 C   0  0  0  0  0  0  0  0  0  0  0  0
   12.2656   43.8172  134.0399 C   0  0  0  0  0  0  0  0  0  0  0  0
   12.6514   44.3608  132.8491 C   0  0  0  0  0  0  0  0  0  0  0  0
   11.8834   45.3666  132.2807 C   0  0  0  0  0  0  0  0  0  0  0  0
   10.7375   45.8575  132.8568 C   0  0  0  0  0  0  0  0  0  0  0  0
    9.1213   47.3168  134.9093 C   0  0  0  0  0  0  0  0  0  0  0  0
    9.1567   45.7721  134.8086 C   0  0  0  0  0  0  0  0  0  0  0  0
    7.8636   45.4277  134.0815 C   0  0  0  0  0  0  0  0  0  0  0  0
    8.5335   45.3218  130.8741 O   0  0  0  0  0  0  0  0  0  0  0  0
    9.2687   44.7477  129.8211 C   0  0  0  0  0  0  0  0  0  0  0  0
   10.2136   45.4675  129.1376 C   0  0  0  0  0  0  0  0  0  0  0  0
   10.9548   44.9391  128.0992 C   0  0  0  0  0  0  0  0  0  0  0  0
   10.7749   43.6563  127.7029 C   0  0  0  0  0  0  0  0  0  0  0  0
    9.8145   42.8907  128.3820 C   0  0  0  0  0  0  0  0  0  0  0  0
    9.0825   43.4441  129.4221 C   0  0  0  0  0  0  0  0  0  0  0  0
   11.5025   43.0227  126.6307 C   0  0  0  0  0  0  0  0  0  0  0  0
   12.8089   42.9632  126.5760 C   0  0  0  0  0  0  0  0  0  0  0  0
   13.4971   42.3043  125.4584 C   0  0  0  0  0  0  0  0  0  0  0  0
   14.2997   43.0574  124.6075 O   0  0  0  0  0  0  0  0  0  0  0  0
   13.3550   41.0788  125.2841 O   0  0  0  0  0  0  0  0  0  0  0  0
   13.8221   43.7073  123.9867 H   0  0  0  0  0  0  0  0  0  0  0  0
 19 20  1  0  0  0
 20 21  1  0  0  0
 20 13  1  0  0  0
 13 14  2  0  0  0
 14 15  1  0  0  0
 15 16  2  0  0  0
 16 17  1  0  0  0
 17 18  2  0  0  0
 18  1  1  0  0  0
  1  2  1  0  0  0
  2  3  1  0  0  0
  3  4  2  0  0  0
  4  5  1  0  0  0
  4  6  1  0  0  0
  6  7  1  0  0  0
  6  8  2  0  0  0
  8  9  1  0  0  0
  9 10  2  0  0  0
 10 11  1  0  0  0
 11 22  1  0  0  0
 22 23  1  0  0  0
 23 24  2  0  0  0
 24 25  1  0  0  0
 25 26  2  0  0  0
 26 29  1  0  0  0
 29 30  2  0  0  0
 30 31  1  0  0  0
 31 32  1  0  0  0
 31 33  2  0  0  0
 26 27  1  0  0  0
 27 28  2  0  0  0
 18 13  1  0  0  0
 11  1  2  0  0  0
 28 23  1  0  0  0
 10  3  1  0  0  0
  7 12  1  0  0  0
 32 34  1  0  0  0
M  END
> <minimizedAffinity>
2.93080

> <CNNscore>
0.5318782926

> <CNNaffinity>
8.4091424942

> <CNN_VS>
4.4726405144

> <CNNaffinity_variance>
0.8398300409

$$$$
[H]OC(=O)/C([H])=C(\[H])c1c([H])c([H])c(Oc2c(-c3c([H])c([H])c([H])c([H])c3C([H])(C([H])([H])[H])C([H])([H])[H])sc3c(F)c(O[H])c([H])c([H])c23)c([H])c1[H]


 34 37  0  0  0  0  0  0  0  0999 V2000
    9.5168   46.5446  132.4974 C   0  0  0  0  0  0  0  0  0  0  0  0
    9.8417   48.2059  132.3114 S   0  0  0  0  0  0  0  0  0  0  0  0
    8.6862   48.6058  131.1333 C   0  0  0  0  0  0  0  0  0  0  0  0
    8.3300   49.7896  130.4590 C   0  0  0  0  0  0  0  0  0  0  0  0
    9.0337   50.8971  130.7843 F   0  0  0  0  0  0  0  0  0  0  0  0
    7.3182   49.7899  129.5262 C   0  0  0  0  0  0  0  0  0  0  0  0
    6.9704   50.9565  128.8648 O   0  0  0  0  0  0  0  0  0  0  0  0
    6.6785   48.5970  129.2849 C   0  0  0  0  0  0  0  0  0  0  0  0
    7.0294   47.4528  129.9429 C   0  0  0  0  0  0  0  0  0  0  0  0
    8.0614   47.4203  130.9036 C   0  0  0  0  0  0  0  0  0  0  0  0
    8.4897   46.3379  131.6114 C   0  0  0  0  0  0  0  0  0  0  0  0
    7.4405   51.8304  129.0428 H   0  0  0  0  0  0  0  0  0  0  0  0
   11.2432   44.7982  132.8581 C   0  0  0  0  0  0  0  0  0  0  0  0
   11.9011   43.9149  133.7218 C   0  0  0  0  0  0  0  0  0  0  0  0
   11.5434   43.7448  135.0415 C   0  0  0  0  0  0  0  0  0  0  0  0
   10.4955   44.4812  135.5126 C   0  0  0  0  0  0  0  0  0  0  0  0
    9.8428   45.3581  134.6584 C   0  0  0  0  0  0  0  0  0  0  0  0
   10.1945   45.5312  133.3423 C   0  0  0  0  0  0  0  0  0  0  0  0
   13.0077   45.6822  131.3376 C   0  0  0  0  0  0  0  0  0  0  0  0
   11.7103   44.8458  131.4586 C   0  0  0  0  0  0  0  0  0  0  0  0
   12.1215   43.4670  130.9595 C   0  0  0  0  0  0  0  0  0  0  0  0
    7.9087   45.0392  131.4426 O   0  0  0  0  0  0  0  0  0  0  0  0
    8.4821   44.2434  130.4342 C   0  0  0  0  0  0  0  0  0  0  0  0
    8.9309   44.7937  129.2621 C   0  0  0  0  0  0  0  0  0  0  0  0
    9.4990   44.0459  128.2498 C   0  0  0  0  0  0  0  0  0  0  0  0
    9.6399   42.7044  128.3756 C   0  0  0  0  0  0  0  0  0  0  0  0
    9.1905   42.1083  129.5640 C   0  0  0  0  0  0  0  0  0  0  0  0
    8.6232   42.8811  130.5665 C   0  0  0  0  0  0  0  0  0  0  0  0
   10.2203   41.8462  127.3721 C   0  0  0  0  0  0  0  0  0  0  0  0
    9.9761   40.5633  127.2848 C   0  0  0  0  0  0  0  0  0  0  0  0
   10.5962   39.7374  126.2407 C   0  0  0  0  0  0  0  0  0  0  0  0
    9.7904   39.0912  125.3088 O   0  0  0  0  0  0  0  0  0  0  0  0
   11.8364   39.6242  126.2005 O   0  0  0  0  0  0  0  0  0  0  0  0
    9.2304   38.3135  125.6517 H   0  0  0  0  0  0  0  0  0  0  0  0
 19 20  1  0  0  0
 20 21  1  0  0  0
 20 13  1  0  0  0
 13 14  2  0  0  0
 14 15  1  0  0  0
 15 16  2  0  0  0
 16 17  1  0  0  0
 17 18  2  0  0  0
 18  1  1  0  0  0
  1  2  1  0  0  0
  2  3  1  0  0  0
  3  4  2  0  0  0
  4  5  1  0  0  0
  4  6  1  0  0  0
  6  7  1  0  0  0
  6  8  2  0  0  0
  8  9  1  0  0  0
  9 10  2  0  0  0
 10 11  1  0  0  0
 11 22  1  0  0  0
 22 23  1  0  0  0
 23 24  2  0  0  0
 24 25  1  0  0  0
 25 26  2  0  0  0
 26 29  1  0  0  0
 29 30  2  0  0  0
 30 31  1  0  0  0
 31 32  1  0  0  0
 31 33  2  0  0  0
 26 27  1  0  0  0
 27 28  2  0  0  0
 18 13  1  0  0  0
 11  1  2  0  0  0
 28 23  1  0  0  0
 10  3  1  0  0  0
  7 12  1  0  0  0
 32 34  1  0  0  0
M  END
> <minimizedAffinity>
4.13711

> <CNNscore>
0.5088855028

> <CNNaffinity>
8.4043073654

> <CNN_VS>
4.2768301964

> <CNNaffinity_variance>
1.2208902836

$$$$
[H]OC(=O)/C([H])=C(\[H])c1c([H])c([H])c(Oc2c(-c3c([H])c([H])c([H])c([H])c3C([H])(C([H])([H])[H])C([H])([H])[H])sc3c(F)c(O[H])c([H])c([H])c23)c([H])c1[H]


 34 37  0  0  0  0  0  0  0  0999 V2000
    9.8183   46.4884  131.6384 C   0  0  0  0  0  0  0  0  0  0  0  0
   10.0377   48.1686  131.4680 S   0  0  0  0  0  0  0  0  0  0  0  0
    8.6336   48.5663  130.5999 C   0  0  0  0  0  0  0  0  0  0  0  0
    8.0954   49.7603  130.0827 C   0  0  0  0  0  0  0  0  0  0  0  0
    8.8173   50.8830  130.2976 F   0  0  0  0  0  0  0  0  0  0  0  0
    6.8999   49.7553  129.4012 C   0  0  0  0  0  0  0  0  0  0  0  0
    6.3735   50.9320  128.8938 O   0  0  0  0  0  0  0  0  0  0  0  0
    6.2622   48.5467  129.2496 C   0  0  0  0  0  0  0  0  0  0  0  0
    6.7902   47.3925  129.7541 C   0  0  0  0  0  0  0  0  0  0  0  0
    8.0127   47.3653  130.4567 C   0  0  0  0  0  0  0  0  0  0  0  0
    8.6252   46.2741  130.9954 C   0  0  0  0  0  0  0  0  0  0  0  0
    6.8424   51.8174  129.0058 H   0  0  0  0  0  0  0  0  0  0  0  0
   10.6030   45.1691  133.5887 C   0  0  0  0  0  0  0  0  0  0  0  0
   11.4026   44.1435  134.1063 C   0  0  0  0  0  0  0  0  0  0  0  0
   12.2899   43.4199  133.3396 C   0  0  0  0  0  0  0  0  0  0  0  0
   12.3802   43.7311  132.0139 C   0  0  0  0  0  0  0  0  0  0  0  0
   11.5876   44.7465  131.4988 C   0  0  0  0  0  0  0  0  0  0  0  0
   10.7023   45.4713  132.2582 C   0  0  0  0  0  0  0  0  0  0  0  0
    8.2542   45.4399  134.3738 C   0  0  0  0  0  0  0  0  0  0  0  0
    9.7279   45.8856  134.5374 C   0  0  0  0  0  0  0  0  0  0  0  0
   10.0559   45.5265  135.9807 C   0  0  0  0  0  0  0  0  0  0  0  0
    8.0645   44.9595  130.8959 O   0  0  0  0  0  0  0  0  0  0  0  0
    8.6785   44.1061  129.9612 C   0  0  0  0  0  0  0  0  0  0  0  0
    8.9773   42.8056  130.2736 C   0  0  0  0  0  0  0  0  0  0  0  0
    9.5792   41.9382  129.3836 C   0  0  0  0  0  0  0  0  0  0  0  0
    9.9077   42.3460  128.1342 C   0  0  0  0  0  0  0  0  0  0  0  0
    9.6154   43.6725  127.7813 C   0  0  0  0  0  0  0  0  0  0  0  0
    9.0102   44.5248  128.6932 C   0  0  0  0  0  0  0  0  0  0  0  0
   10.5373   41.5106  127.1412 C   0  0  0  0  0  0  0  0  0  0  0  0
   10.2338   40.2512  126.9540 C   0  0  0  0  0  0  0  0  0  0  0  0
   10.9087   39.4478  125.9265 C   0  0  0  0  0  0  0  0  0  0  0  0
   10.1548   38.8327  124.9322 O   0  0  0  0  0  0  0  0  0  0  0  0
   12.1483   39.3255  125.9559 O   0  0  0  0  0  0  0  0  0  0  0  0
    9.5704   38.0510  125.2209 H   0  0  0  0  0  0  0  0  0  0  0  0
 19 20  1  0  0  0
 20 21  1  0  0  0
 20 13  1  0  0  0
 13 14  2  0  0  0
 14 15  1  0  0  0
 15 16  2  0  0  0
 16 17  1  0  0  0
 17 18  2  0  0  0
 18  1  1  0  0  0
  1  2  1  0  0  0
  2  3  1  0  0  0
  3  4  2  0  0  0
  4  5  1  0  0  0
  4  6  1  0  0  0
  6  7  1  0  0  0
  6  8  2  0  0  0
  8  9  1  0  0  0
  9 10  2  0  0  0
 10 11  1  0  0  0
 11 22  1  0  0  0
 22 23  1  0  0  0
 23 24  2  0  0  0
 24 25  1  0  0  0
 25 26  2  0  0  0
 26 29  1  0  0  0
 29 30  2  0  0  0
 30 31  1  0  0  0
 31 32  1  0  0  0
 31 33  2  0  0  0
 26 27  1  0  0  0
 27 28  2  0  0  0
 18 13  1  0  0  0
 11  1  2  0  0  0
 28 23  1  0  0  0
 10  3  1  0  0  0
  7 12  1  0  0  0
 32 34  1  0  0  0
M  END
> <minimizedAffinity>
3.60291

> <CNNscore>
0.5022832155

> <CNNaffinity>
8.3468532562

> <CNN_VS>
4.1924843788

> <CNNaffinity_variance>
1.0743110180

$$$$
[H]OC(=O)/C([H])=C(\[H])c1c([H])c([H])c(Oc2c(-c3c([H])c([H])c([H])c([H])c3C([H])(C([H])([H])[H])C([H])([H])[H])sc3c(F)c(O[H])c([H])c([H])c23)c([H])c1[H]


 34 37  0  0  0  0  0  0  0  0999 V2000
    8.3037   45.3667  130.6712 C   0  0  0  0  0  0  0  0  0  0  0  0
    6.6093   45.4146  130.5070 S   0  0  0  0  0  0  0  0  0  0  0  0
    6.4035   47.0239  130.0063 C   0  0  0  0  0  0  0  0  0  0  0  0
    5.2922   47.8209  129.6705 C   0  0  0  0  0  0  0  0  0  0  0  0
    4.0831   47.2203  129.7422 F   0  0  0  0  0  0  0  0  0  0  0  0
    5.4571   49.1341  129.2937 C   0  0  0  0  0  0  0  0  0  0  0  0
    4.3614   49.9152  128.9640 O   0  0  0  0  0  0  0  0  0  0  0  0
    6.7401   49.6274  129.2605 C   0  0  0  0  0  0  0  0  0  0  0  0
    7.8132   48.8484  129.5874 C   0  0  0  0  0  0  0  0  0  0  0  0
    7.6767   47.4999  129.9772 C   0  0  0  0  0  0  0  0  0  0  0  0
    8.6756   46.6409  130.3241 C   0  0  0  0  0  0  0  0  0  0  0  0
    3.4213   49.5520  128.9890 H   0  0  0  0  0  0  0  0  0  0  0  0
   10.2259   43.8268  130.3641 C   0  0  0  0  0  0  0  0  0  0  0  0
   11.0765   42.8436  130.8825 C   0  0  0  0  0  0  0  0  0  0  0  0
   10.9162   42.2926  132.1352 C   0  0  0  0  0  0  0  0  0  0  0  0
    9.8731   42.7389  132.8935 C   0  0  0  0  0  0  0  0  0  0  0  0
    9.0295   43.7143  132.3820 C   0  0  0  0  0  0  0  0  0  0  0  0
    9.1841   44.2664  131.1341 C   0  0  0  0  0  0  0  0  0  0  0  0
   12.0139   44.4967  128.7638 C   0  0  0  0  0  0  0  0  0  0  0  0
   10.4955   44.2955  128.9905 C   0  0  0  0  0  0  0  0  0  0  0  0
   10.1118   43.2453  127.9564 C   0  0  0  0  0  0  0  0  0  0  0  0
   10.0519   47.0389  130.3369 O   0  0  0  0  0  0  0  0  0  0  0  0
   10.6018   47.2841  131.6083 C   0  0  0  0  0  0  0  0  0  0  0  0
   10.2456   48.3888  132.3368 C   0  0  0  0  0  0  0  0  0  0  0  0
   10.7632   48.6633  133.5872 C   0  0  0  0  0  0  0  0  0  0  0  0
   11.6666   47.8322  134.1602 C   0  0  0  0  0  0  0  0  0  0  0  0
   12.0534   46.6909  133.4409 C   0  0  0  0  0  0  0  0  0  0  0  0
   11.5191   46.4370  132.1863 C   0  0  0  0  0  0  0  0  0  0  0  0
   12.2585   48.0395  135.4591 C   0  0  0  0  0  0  0  0  0  0  0  0
   13.2835   48.8249  135.6727 C   0  0  0  0  0  0  0  0  0  0  0  0
   13.8454   48.9980  137.0185 C   0  0  0  0  0  0  0  0  0  0  0  0
   13.2469   49.8908  137.9018 O   0  0  0  0  0  0  0  0  0  0  0  0
   14.8512   48.3442  137.3548 O   0  0  0  0  0  0  0  0  0  0  0  0
   13.3457   50.8806  137.6864 H   0  0  0  0  0  0  0  0  0  0  0  0
 19 20  1  0  0  0
 20 21  1  0  0  0
 20 13  1  0  0  0
 13 14  2  0  0  0
 14 15  1  0  0  0
 15 16  2  0  0  0
 16 17  1  0  0  0
 17 18  2  0  0  0
 18  1  1  0  0  0
  1  2  1  0  0  0
  2  3  1  0  0  0
  3  4  2  0  0  0
  4  5  1  0  0  0
  4  6  1  0  0  0
  6  7  1  0  0  0
  6  8  2  0  0  0
  8  9  1  0  0  0
  9 10  2  0  0  0
 10 11  1  0  0  0
 11 22  1  0  0  0
 22 23  1  0  0  0
 23 24  2  0  0  0
 24 25  1  0  0  0
 25 26  2  0  0  0
 26 29  1  0  0  0
 29 30  2  0  0  0
 30 31  1  0  0  0
 31 32  1  0  0  0
 31 33  2  0  0  0
 26 27  1  0  0  0
 27 28  2  0  0  0
 18 13  1  0  0  0
 11  1  2  0  0  0
 28 23  1  0  0  0
 10  3  1  0  0  0
  7 12  1  0  0  0
 32 34  1  0  0  0
M  END
> <minimizedAffinity>
2.87147

> <CNNscore>
0.4851814210

> <CNNaffinity>
8.0328550339

> <CNN_VS>
3.8973920345

> <CNNaffinity_variance>
0.8421305418

$$$$
[H]OC(=O)/C([H])=C(\[H])c1c([H])c([H])c(Oc2c(-c3c([H])c([H])c([H])c([H])c3C([H])(C([H])([H])[H])C([H])([H])[H])sc3c(F)c(O[H])c([H])c([H])c23)c([H])c1[H]


 34 37  0  0  0  0  0  0  0  0999 V2000
   10.2556   45.8659  132.2275 C   0  0  0  0  0  0  0  0  0  0  0  0
   11.7867   45.2939  131.7494 S   0  0  0  0  0  0  0  0  0  0  0  0
   11.4581   44.8732  130.1375 C   0  0  0  0  0  0  0  0  0  0  0  0
   12.2163   44.3293  129.0829 C   0  0  0  0  0  0  0  0  0  0  0  0
   13.5129   44.0612  129.3560 F   0  0  0  0  0  0  0  0  0  0  0  0
   11.6437   44.0944  127.8538 C   0  0  0  0  0  0  0  0  0  0  0  0
   12.3927   43.5592  126.8186 O   0  0  0  0  0  0  0  0  0  0  0  0
   10.3141   44.4107  127.7034 C   0  0  0  0  0  0  0  0  0  0  0  0
    9.5850   44.9381  128.7308 C   0  0  0  0  0  0  0  0  0  0  0  0
   10.1429   45.1901  130.0013 C   0  0  0  0  0  0  0  0  0  0  0  0
    9.5067   45.7085  131.0887 C   0  0  0  0  0  0  0  0  0  0  0  0
   13.3676   43.3278  126.9305 H   0  0  0  0  0  0  0  0  0  0  0  0
    9.9621   45.6007  134.6778 C   0  0  0  0  0  0  0  0  0  0  0  0
    9.5833   46.1427  135.9113 C   0  0  0  0  0  0  0  0  0  0  0  0
    9.0447   47.4037  136.0469 C   0  0  0  0  0  0  0  0  0  0  0  0
    8.8801   48.1461  134.9137 C   0  0  0  0  0  0  0  0  0  0  0  0
    9.2560   47.6111  133.6901 C   0  0  0  0  0  0  0  0  0  0  0  0
    9.7926   46.3549  133.5491 C   0  0  0  0  0  0  0  0  0  0  0  0
    9.7904   43.3628  133.5964 C   0  0  0  0  0  0  0  0  0  0  0  0
   10.4873   44.2211  134.6804 C   0  0  0  0  0  0  0  0  0  0  0  0
   11.9569   44.1819  134.2826 C   0  0  0  0  0  0  0  0  0  0  0  0
    8.1204   46.0692  131.0596 O   0  0  0  0  0  0  0  0  0  0  0  0
    7.8393   47.3649  130.5893 C   0  0  0  0  0  0  0  0  0  0  0  0
    6.8219   47.5943  129.7003 C   0  0  0  0  0  0  0  0  0  0  0  0
    6.5158   48.8508  129.2164 C   0  0  0  0  0  0  0  0  0  0  0  0
    7.2254   49.9358  129.6094 C   0  0  0  0  0  0  0  0  0  0  0  0
    8.2747   49.7362  130.5197 C   0  0  0  0  0  0  0  0  0  0  0  0
    8.5628   48.4640  130.9915 C   0  0  0  0  0  0  0  0  0  0  0  0
    6.9766   51.2825  129.1568 C   0  0  0  0  0  0  0  0  0  0  0  0
    7.3901   51.7495  128.0061 C   0  0  0  0  0  0  0  0  0  0  0  0
    7.1072   53.1312  127.5967 C   0  0  0  0  0  0  0  0  0  0  0  0
    7.4067   53.5373  126.3002 O   0  0  0  0  0  0  0  0  0  0  0  0
    6.6024   53.9246  128.4140 O   0  0  0  0  0  0  0  0  0  0  0  0
    8.3934   53.6244  126.0662 H   0  0  0  0  0  0  0  0  0  0  0  0
 19 20  1  0  0  0
 20 21  1  0  0  0
 20 13  1  0  0  0
 13 14  2  0  0  0
 14 15  1  0  0  0
 15 16  2  0  0  0
 16 17  1  0  0  0
 17 18  2  0  0  0
 18  1  1  0  0  0
  1  2  1  0  0  0
  2  3  1  0  0  0
  3  4  2  0  0  0
  4  5  1  0  0  0
  4  6  1  0  0  0
  6  7  1  0  0  0
  6  8  2  0  0  0
  8  9  1  0  0  0
  9 10  2  0  0  0
 10 11  1  0  0  0
 11 22  1  0  0  0
 22 23  1  0  0  0
 23 24  2  0  0  0
 24 25  1  0  0  0
 25 26  2  0  0  0
 26 29  1  0  0  0
 29 30  2  0  0  0
 30 31  1  0  0  0
 31 32  1  0  0  0
 31 33  2  0  0  0
 26 27  1  0  0  0
 27 28  2  0  0  0
 18 13  1  0  0  0
 11  1  2  0  0  0
 28 23  1  0  0  0
 10  3  1  0  0  0
  7 12  1  0  0  0
 32 34  1  0  0  0
M  END
> <minimizedAffinity>
0.15989

> <CNNscore>
0.4538900852

> <CNNaffinity>
7.9461669922

> <CNN_VS>
3.6066863537

> <CNNaffinity_variance>
1.0237098932

$$$$
[H]OC(=O)/C([H])=C(\[H])c1c([H])c([H])c(Oc2c(-c3c([H])c([H])c([H])c([H])c3C([H])(C([H])([H])[H])C([H])([H])[H])sc3c(F)c(O[H])c([H])c([H])c23)c([H])c1[H]


 34 37  0  0  0  0  0  0  0  0999 V2000
    9.6230   44.8627  132.5020 C   0  0  0  0  0  0  0  0  0  0  0  0
    9.0671   43.3486  131.9556 S   0  0  0  0  0  0  0  0  0  0  0  0
    9.5499   43.4226  130.3294 C   0  0  0  0  0  0  0  0  0  0  0  0
    9.4468   42.5533  129.2264 C   0  0  0  0  0  0  0  0  0  0  0  0
    8.8336   41.3701  129.4539 F   0  0  0  0  0  0  0  0  0  0  0  0
    9.9510   42.9137  127.9978 C   0  0  0  0  0  0  0  0  0  0  0  0
    9.8477   42.0558  126.9149 O   0  0  0  0  0  0  0  0  0  0  0  0
   10.5526   44.1459  127.8965 C   0  0  0  0  0  0  0  0  0  0  0  0
   10.6490   44.9838  128.9707 C   0  0  0  0  0  0  0  0  0  0  0  0
   10.1424   44.6432  130.2420 C   0  0  0  0  0  0  0  0  0  0  0  0
   10.1841   45.4027  131.3723 C   0  0  0  0  0  0  0  0  0  0  0  0
    9.4063   41.1526  126.9908 H   0  0  0  0  0  0  0  0  0  0  0  0
   10.2691   45.0966  134.8870 C   0  0  0  0  0  0  0  0  0  0  0  0
   10.1662   45.7856  136.1010 C   0  0  0  0  0  0  0  0  0  0  0  0
    9.3174   46.8541  136.2914 C   0  0  0  0  0  0  0  0  0  0  0  0
    8.5478   47.2464  135.2348 C   0  0  0  0  0  0  0  0  0  0  0  0
    8.6492   46.5656  134.0304 C   0  0  0  0  0  0  0  0  0  0  0  0
    9.4928   45.4997  133.8352 C   0  0  0  0  0  0  0  0  0  0  0  0
   12.5634   44.3592  134.2550 C   0  0  0  0  0  0  0  0  0  0  0  0
   11.1915   43.9450  134.8415 C   0  0  0  0  0  0  0  0  0  0  0  0
   11.5321   43.4463  136.2397 C   0  0  0  0  0  0  0  0  0  0  0  0
   10.7761   46.7072  131.3917 O   0  0  0  0  0  0  0  0  0  0  0  0
    9.9428   47.7591  130.9696 C   0  0  0  0  0  0  0  0  0  0  0  0
    9.9881   48.9888  131.5726 C   0  0  0  0  0  0  0  0  0  0  0  0
    9.1866   50.0450  131.1867 C   0  0  0  0  0  0  0  0  0  0  0  0
    8.3005   49.9068  130.1714 C   0  0  0  0  0  0  0  0  0  0  0  0
    8.2285   48.6597  129.5317 C   0  0  0  0  0  0  0  0  0  0  0  0
    9.0443   47.6139  129.9377 C   0  0  0  0  0  0  0  0  0  0  0  0
    7.4257   50.9532  129.7023 C   0  0  0  0  0  0  0  0  0  0  0  0
    7.5698   51.5575  128.5502 C   0  0  0  0  0  0  0  0  0  0  0  0
    6.6474   52.6178  128.1237 C   0  0  0  0  0  0  0  0  0  0  0  0
    5.3192   52.3038  127.8541 O   0  0  0  0  0  0  0  0  0  0  0  0
    7.0637   53.7864  128.0079 O   0  0  0  0  0  0  0  0  0  0  0  0
    5.1418   51.7531  127.0167 H   0  0  0  0  0  0  0  0  0  0  0  0
 19 20  1  0  0  0
 20 21  1  0  0  0
 20 13  1  0  0  0
 13 14  2  0  0  0
 14 15  1  0  0  0
 15 16  2  0  0  0
 16 17  1  0  0  0
 17 18  2  0  0  0
 18  1  1  0  0  0
  1  2  1  0  0  0
  2  3  1  0  0  0
  3  4  2  0  0  0
  4  5  1  0  0  0
  4  6  1  0  0  0
  6  7  1  0  0  0
  6  8  2  0  0  0
  8  9  1  0  0  0
  9 10  2  0  0  0
 10 11  1  0  0  0
 11 22  1  0  0  0
 22 23  1  0  0  0
 23 24  2  0  0  0
 24 25  1  0  0  0
 25 26  2  0  0  0
 26 29  1  0  0  0
 29 30  2  0  0  0
 30 31  1  0  0  0
 31 32  1  0  0  0
 31 33  2  0  0  0
 26 27  1  0  0  0
 27 28  2  0  0  0
 18 13  1  0  0  0
 11  1  2  0  0  0
 28 23  1  0  0  0
 10  3  1  0  0  0
  7 12  1  0  0  0
 32 34  1  0  0  0
M  END
> <minimizedAffinity>
2.83157

> <CNNscore>
0.4425943494

> <CNNaffinity>
7.9393396378

> <CNN_VS>
3.5139069557

> <CNNaffinity_variance>
1.0968387127

$$$$
[H]OC(=O)/C([H])=C(\[H])c1c([H])c([H])c(Oc2c(-c3c([H])c([H])c([H])c([H])c3C([H])(C([H])([H])[H])C([H])([H])[H])sc3c(F)c(O[H])c([H])c([H])c23)c([H])c1[H]


 34 37  0  0  0  0  0  0  0  0999 V2000
   10.4313   44.8649  131.9851 C   0  0  0  0  0  0  0  0  0  0  0  0
   11.9894   44.9897  132.6612 S   0  0  0  0  0  0  0  0  0  0  0  0
   11.7588   46.3132  133.6996 C   0  0  0  0  0  0  0  0  0  0  0  0
   12.5806   47.0203  134.5983 C   0  0  0  0  0  0  0  0  0  0  0  0
   13.8582   46.5910  134.7035 F   0  0  0  0  0  0  0  0  0  0  0  0
   12.0844   48.0843  135.3163 C   0  0  0  0  0  0  0  0  0  0  0  0
   12.8959   48.7775  136.1996 O   0  0  0  0  0  0  0  0  0  0  0  0
   10.7664   48.4222  135.1191 C   0  0  0  0  0  0  0  0  0  0  0  0
    9.9753   47.7318  134.2457 C   0  0  0  0  0  0  0  0  0  0  0  0
   10.4542   46.6375  133.4960 C   0  0  0  0  0  0  0  0  0  0  0  0
    9.7534   45.8865  132.6011 C   0  0  0  0  0  0  0  0  0  0  0  0
   13.8623   48.5285  136.3430 H   0  0  0  0  0  0  0  0  0  0  0  0
   10.3555   44.0273  129.6499 C   0  0  0  0  0  0  0  0  0  0  0  0
    9.9021   43.0810  128.7237 C   0  0  0  0  0  0  0  0  0  0  0  0
    9.0315   42.0641  129.0501 C   0  0  0  0  0  0  0  0  0  0  0  0
    8.6011   41.9907  130.3431 C   0  0  0  0  0  0  0  0  0  0  0  0
    9.0503   42.9270  131.2629 C   0  0  0  0  0  0  0  0  0  0  0  0
    9.9173   43.9429  130.9431 C   0  0  0  0  0  0  0  0  0  0  0  0
   12.6068   44.4874  128.6874 C   0  0  0  0  0  0  0  0  0  0  0  0
   11.2547   45.0849  129.1479 C   0  0  0  0  0  0  0  0  0  0  0  0
   10.7007   45.7381  127.8886 C   0  0  0  0  0  0  0  0  0  0  0  0
    8.3762   46.1454  132.3031 O   0  0  0  0  0  0  0  0  0  0  0  0
    8.1364   47.2069  131.4117 C   0  0  0  0  0  0  0  0  0  0  0  0
    8.4599   48.4978  131.7387 C   0  0  0  0  0  0  0  0  0  0  0  0
    8.2400   49.5654  130.8910 C   0  0  0  0  0  0  0  0  0  0  0  0
    7.6818   49.3772  129.6711 C   0  0  0  0  0  0  0  0  0  0  0  0
    7.3384   48.0668  129.3043 C   0  0  0  0  0  0  0  0  0  0  0  0
    7.5692   47.0108  130.1735 C   0  0  0  0  0  0  0  0  0  0  0  0
    7.4162   50.4311  128.7227 C   0  0  0  0  0  0  0  0  0  0  0  0
    7.3909   51.7013  129.0375 C   0  0  0  0  0  0  0  0  0  0  0  0
    7.1147   52.7324  128.0289 C   0  0  0  0  0  0  0  0  0  0  0  0
    7.4771   52.5104  126.7042 O   0  0  0  0  0  0  0  0  0  0  0  0
    6.5591   53.7943  128.3697 O   0  0  0  0  0  0  0  0  0  0  0  0
    8.4737   52.5140  126.4974 H   0  0  0  0  0  0  0  0  0  0  0  0
 19 20  1  0  0  0
 20 21  1  0  0  0
 20 13  1  0  0  0
 13 14  2  0  0  0
 14 15  1  0  0  0
 15 16  2  0  0  0
 16 17  1  0  0  0
 17 18  2  0  0  0
 18  1  1  0  0  0
  1  2  1  0  0  0
  2  3  1  0  0  0
  3  4  2  0  0  0
  4  5  1  0  0  0
  4  6  1  0  0  0
  6  7  1  0  0  0
  6  8  2  0  0  0
  8  9  1  0  0  0
  9 10  2  0  0  0
 10 11  1  0  0  0
 11 22  1  0  0  0
 22 23  1  0  0  0
 23 24  2  0  0  0
 24 25  1  0  0  0
 25 26  2  0  0  0
 26 29  1  0  0  0
 29 30  2  0  0  0
 30 31  1  0  0  0
 31 32  1  0  0  0
 31 33  2  0  0  0
 26 27  1  0  0  0
 27 28  2  0  0  0
 18 13  1  0  0  0
 11  1  2  0  0  0
 28 23  1  0  0  0
 10  3  1  0  0  0
  7 12  1  0  0  0
 32 34  1  0  0  0
M  END
> <minimizedAffinity>
5.39400

> <CNNscore>
0.4282376170

> <CNNaffinity>
7.8288545609

> <CNN_VS>
3.3526101112

> <CNNaffinity_variance>
1.2092766762

$$$$
[H]OC(=O)/C([H])=C(\[H])c1c([H])c([H])c(Oc2c(-c3c([H])c([H])c([H])c([H])c3C([H])(C([H])([H])[H])C([H])([H])[H])sc3c(F)c(O[H])c([H])c([H])c23)c([H])c1[H]


 34 37  0  0  0  0  0  0  0  0999 V2000
    8.6354   45.9279  130.1310 C   0  0  0  0  0  0  0  0  0  0  0  0
    6.9619   45.6716  129.9474 S   0  0  0  0  0  0  0  0  0  0  0  0
    6.4380   47.2711  129.7230 C   0  0  0  0  0  0  0  0  0  0  0  0
    5.1873   47.8812  129.5075 C   0  0  0  0  0  0  0  0  0  0  0  0
    4.1200   47.0532  129.4550 F   0  0  0  0  0  0  0  0  0  0  0  0
    5.0868   49.2459  129.3616 C   0  0  0  0  0  0  0  0  0  0  0  0
    3.8546   49.8427  129.1497 O   0  0  0  0  0  0  0  0  0  0  0  0
    6.2481   49.9782  129.4351 C   0  0  0  0  0  0  0  0  0  0  0  0
    7.4577   49.3795  129.6443 C   0  0  0  0  0  0  0  0  0  0  0  0
    7.5932   47.9841  129.7975 C   0  0  0  0  0  0  0  0  0  0  0  0
    8.7460   47.2903  130.0114 C   0  0  0  0  0  0  0  0  0  0  0  0
    3.0039   49.3043  129.0961 H   0  0  0  0  0  0  0  0  0  0  0  0
    9.6558   44.1274  131.5013 C   0  0  0  0  0  0  0  0  0  0  0  0
   10.6648   43.1739  131.6790 C   0  0  0  0  0  0  0  0  0  0  0  0
   11.7265   43.0297  130.8126 C   0  0  0  0  0  0  0  0  0  0  0  0
   11.7806   43.8646  129.7345 C   0  0  0  0  0  0  0  0  0  0  0  0
   10.7808   44.8096  129.5558 C   0  0  0  0  0  0  0  0  0  0  0  0
    9.7210   44.9582  130.4164 C   0  0  0  0  0  0  0  0  0  0  0  0
    8.4012   42.8146  133.2069 C   0  0  0  0  0  0  0  0  0  0  0  0
    8.6017   44.1939  132.5327 C   0  0  0  0  0  0  0  0  0  0  0  0
    9.0045   45.1043  133.6853 C   0  0  0  0  0  0  0  0  0  0  0  0
   10.0181   47.9410  130.1158 O   0  0  0  0  0  0  0  0  0  0  0  0
   10.5364   48.0569  131.4184 C   0  0  0  0  0  0  0  0  0  0  0  0
   11.4195   47.1356  131.9177 C   0  0  0  0  0  0  0  0  0  0  0  0
   11.9496   47.2154  133.1903 C   0  0  0  0  0  0  0  0  0  0  0  0
   11.6107   48.2323  134.0188 C   0  0  0  0  0  0  0  0  0  0  0  0
   10.7081   49.1937  133.5387 C   0  0  0  0  0  0  0  0  0  0  0  0
   10.1893   49.0916  132.2564 C   0  0  0  0  0  0  0  0  0  0  0  0
   12.1139   48.3950  135.3607 C   0  0  0  0  0  0  0  0  0  0  0  0
   13.3057   48.8599  135.6375 C   0  0  0  0  0  0  0  0  0  0  0  0
   13.7656   49.0043  137.0248 C   0  0  0  0  0  0  0  0  0  0  0  0
   14.9341   48.3671  137.4297 O   0  0  0  0  0  0  0  0  0  0  0  0
   13.1050   49.6952  137.8239 O   0  0  0  0  0  0  0  0  0  0  0  0
   14.8988   47.3524  137.5016 H   0  0  0  0  0  0  0  0  0  0  0  0
 19 20  1  0  0  0
 20 21  1  0  0  0
 20 13  1  0  0  0
 13 14  2  0  0  0
 14 15  1  0  0  0
 15 16  2  0  0  0
 16 17  1  0  0  0
 17 18  2  0  0  0
 18  1  1  0  0  0
  1  2  1  0  0  0
  2  3  1  0  0  0
  3  4  2  0  0  0
  4  5  1  0  0  0
  4  6  1  0  0  0
  6  7  1  0  0  0
  6  8  2  0  0  0
  8  9  1  0  0  0
  9 10  2  0  0  0
 10 11  1  0  0  0
 11 22  1  0  0  0
 22 23  1  0  0  0
 23 24  2  0  0  0
 24 25  1  0  0  0
 25 26  2  0  0  0
 26 29  1  0  0  0
 29 30  2  0  0  0
 30 31  1  0  0  0
 31 32  1  0  0  0
 31 33  2  0  0  0
 26 27  1  0  0  0
 27 28  2  0  0  0
 18 13  1  0  0  0
 11  1  2  0  0  0
 28 23  1  0  0  0
 10  3  1  0  0  0
  7 12  1  0  0  0
 32 34  1  0  0  0
M  END
> <minimizedAffinity>
4.94038

> <CNNscore>
0.4178058803

> <CNNaffinity>
7.7635698318

> <CNN_VS>
3.2436652184

> <CNNaffinity_variance>
0.6282657385

$$$$
[H]OC(=O)/C([H])=C(\[H])c1c([H])c([H])c(Oc2c(-c3c([H])c([H])c([H])c([H])c3C([H])(C([H])([H])[H])C([H])([H])[H])sc3c(F)c(O[H])c([H])c([H])c23)c([H])c1[H]


 34 37  0  0  0  0  0  0  0  0999 V2000
   10.1566   46.7332  131.3523 C   0  0  0  0  0  0  0  0  0  0  0  0
   10.1661   48.4050  131.6764 S   0  0  0  0  0  0  0  0  0  0  0  0
    8.9606   48.9245  130.5994 C   0  0  0  0  0  0  0  0  0  0  0  0
    8.3919   50.1721  130.2784 C   0  0  0  0  0  0  0  0  0  0  0  0
    8.8751   51.2398  130.9522 F   0  0  0  0  0  0  0  0  0  0  0  0
    7.4013   50.2694  129.3281 C   0  0  0  0  0  0  0  0  0  0  0  0
    6.8441   51.4985  129.0148 O   0  0  0  0  0  0  0  0  0  0  0  0
    6.9966   49.1080  128.7135 C   0  0  0  0  0  0  0  0  0  0  0  0
    7.5527   47.9014  129.0302 C   0  0  0  0  0  0  0  0  0  0  0  0
    8.5690   47.7693  129.9990 C   0  0  0  0  0  0  0  0  0  0  0  0
    9.1894   46.6197  130.3857 C   0  0  0  0  0  0  0  0  0  0  0  0
    7.1420   52.3493  129.4664 H   0  0  0  0  0  0  0  0  0  0  0  0
   11.8327   44.9209  131.0936 C   0  0  0  0  0  0  0  0  0  0  0  0
   12.6772   43.9689  131.6762 C   0  0  0  0  0  0  0  0  0  0  0  0
   12.7200   43.7290  133.0324 C   0  0  0  0  0  0  0  0  0  0  0  0
   11.8928   44.4642  133.8310 C   0  0  0  0  0  0  0  0  0  0  0  0
   11.0559   45.4091  133.2555 C   0  0  0  0  0  0  0  0  0  0  0  0
   11.0086   45.6520  131.9047 C   0  0  0  0  0  0  0  0  0  0  0  0
   13.3180   44.9567  129.0937 C   0  0  0  0  0  0  0  0  0  0  0  0
   11.8651   45.0405  129.6225 C   0  0  0  0  0  0  0  0  0  0  0  0
   11.1677   43.8650  128.9508 C   0  0  0  0  0  0  0  0  0  0  0  0
    8.8619   45.3479  129.8131 O   0  0  0  0  0  0  0  0  0  0  0  0
    8.4789   44.3501  130.7278 C   0  0  0  0  0  0  0  0  0  0  0  0
    8.4196   43.0315  130.3592 C   0  0  0  0  0  0  0  0  0  0  0  0
    8.0485   42.0243  131.2279 C   0  0  0  0  0  0  0  0  0  0  0  0
    7.7193   42.3039  132.5119 C   0  0  0  0  0  0  0  0  0  0  0  0
    7.7695   43.6450  132.9226 C   0  0  0  0  0  0  0  0  0  0  0  0
    8.1455   44.6389  132.0311 C   0  0  0  0  0  0  0  0  0  0  0  0
    7.3208   41.3181  133.4864 C   0  0  0  0  0  0  0  0  0  0  0  0
    6.2728   41.4448  134.2602 C   0  0  0  0  0  0  0  0  0  0  0  0
    5.9143   40.4073  135.2359 C   0  0  0  0  0  0  0  0  0  0  0  0
    5.6045   39.1258  134.7916 O   0  0  0  0  0  0  0  0  0  0  0  0
    5.8913   40.6853  136.4502 O   0  0  0  0  0  0  0  0  0  0  0  0
    4.7261   39.0174  134.2890 H   0  0  0  0  0  0  0  0  0  0  0  0
 19 20  1  0  0  0
 20 21  1  0  0  0
 20 13  1  0  0  0
 13 14  2  0  0  0
 14 15  1  0  0  0
 15 16  2  0  0  0
 16 17  1  0  0  0
 17 18  2  0  0  0
 18  1  1  0  0  0
  1  2  1  0  0  0
  2  3  1  0  0  0
  3  4  2  0  0  0
  4  5  1  0  0  0
  4  6  1  0  0  0
  6  7  1  0  0  0
  6  8  2  0  0  0
  8  9  1  0  0  0
  9 10  2  0  0  0
 10 11  1  0  0  0
 11 22  1  0  0  0
 22 23  1  0  0  0
 23 24  2  0  0  0
 24 25  1  0  0  0
 25 26  2  0  0  0
 26 29  1  0  0  0
 29 30  2  0  0  0
 30 31  1  0  0  0
 31 32  1  0  0  0
 31 33  2  0  0  0
 26 27  1  0  0  0
 27 28  2  0  0  0
 18 13  1  0  0  0
 11  1  2  0  0  0
 28 23  1  0  0  0
 10  3  1  0  0  0
  7 12  1  0  0  0
 32 34  1  0  0  0
M  END
> <minimizedAffinity>
6.16150

> <CNNscore>
0.4104962647

> <CNNaffinity>
8.0511255264

> <CNN_VS>
3.3049569130

> <CNNaffinity_variance>
0.9359510541

$$$$
[H]Oc1c([H])c([H])c(-c2c([H])c([H])c3c(Cl)c(O[H])c([H])c([H])c3c2[H])c(Cl)c1[H]


 22 24  0  0  0  0  0  0  0  0999 V2000
    9.2789   47.3095  131.3301 C   0  0  0  0  0  0  0  0  0  0  0  0
    9.1628   47.0969  132.6852 C   0  0  0  0  0  0  0  0  0  0  0  0
    9.8976   46.0733  133.2738 C   0  0  0  0  0  0  0  0  0  0  0  0
   10.7247   45.2948  132.4928 C   0  0  0  0  0  0  0  0  0  0  0  0
   11.4456   44.2857  133.0898 C   0  0  0  0  0  0  0  0  0  0  0  0
   11.2826   44.0373  134.7967 Cl  0  0  0  0  0  0  0  0  0  0  0  0
   12.2753   43.5077  132.2955 C   0  0  0  0  0  0  0  0  0  0  0  0
   13.0019   42.4873  132.9101 O   0  0  0  0  0  0  0  0  0  0  0  0
   12.3752   43.7406  130.9379 C   0  0  0  0  0  0  0  0  0  0  0  0
   11.6579   44.7430  130.3505 C   0  0  0  0  0  0  0  0  0  0  0  0
   10.8273   45.5275  131.1238 C   0  0  0  0  0  0  0  0  0  0  0  0
   10.1184   46.5206  130.5332 C   0  0  0  0  0  0  0  0  0  0  0  0
   13.5989   41.9279  132.3370 H   0  0  0  0  0  0  0  0  0  0  0  0
    6.3359   51.5588  129.0059 O   0  0  0  0  0  0  0  0  0  0  0  0
    7.0653   50.5019  129.5786 C   0  0  0  0  0  0  0  0  0  0  0  0
    8.1998   50.7580  130.3184 C   0  0  0  0  0  0  0  0  0  0  0  0
    8.9072   49.6934  130.8772 C   0  0  0  0  0  0  0  0  0  0  0  0
    8.4925   48.3890  130.7033 C   0  0  0  0  0  0  0  0  0  0  0  0
    7.3608   48.1234  129.9658 C   0  0  0  0  0  0  0  0  0  0  0  0
    6.7845   46.4937  129.6931 Cl  0  0  0  0  0  0  0  0  0  0  0  0
    6.6664   49.1969  129.4152 C   0  0  0  0  0  0  0  0  0  0  0  0
    6.6449   51.8089  128.0537 H   0  0  0  0  0  0  0  0  0  0  0  0
 14 15  1  0  0  0
 15 16  2  0  0  0
 16 17  1  0  0  0
 17 18  2  0  0  0
 18 19  1  0  0  0
 19 20  1  0  0  0
 19 21  2  0  0  0
 18  1  1  0  0  0
  1  2  2  0  0  0
  2  3  1  0  0  0
  3  4  2  0  0  0
  4  5  1  0  0  0
  5  6  1  0  0  0
  5  7  2  0  0  0
  7  8  1  0  0  0
  7  9  1  0  0  0
  9 10  2  0  0  0
 10 11  1  0  0  0
 11 12  2  0  0  0
 21 15  1  0  0  0
 12  1  1  0  0  0
 11  4  1  0  0  0
 14 22  1  0  0  0
  8 13  1  0  0  0
M  END
> <minimizedAffinity>
-8.54314

> <CNNscore>
0.8602645397

> <CNNaffinity>
7.6211023331

> <CNN_VS>
6.5561642647

> <CNNaffinity_variance>
0.5525279045

$$$$
[H]Oc1c([H])c([H])c(-c2c([H])c([H])c3c(Cl)c(O[H])c([H])c([H])c3c2[H])c(Cl)c1[H]


 22 24  0  0  0  0  0  0  0  0999 V2000
    8.6306   46.6641  131.2042 C   0  0  0  0  0  0  0  0  0  0  0  0
    8.5538   46.4465  132.5613 C   0  0  0  0  0  0  0  0  0  0  0  0
    9.4720   45.5914  133.1614 C   0  0  0  0  0  0  0  0  0  0  0  0
   10.4373   44.9812  132.3895 C   0  0  0  0  0  0  0  0  0  0  0  0
   11.3390   44.1379  132.9978 C   0  0  0  0  0  0  0  0  0  0  0  0
   11.2220   43.8794  134.7070 Cl  0  0  0  0  0  0  0  0  0  0  0  0
   12.3068   43.5285  132.2126 C   0  0  0  0  0  0  0  0  0  0  0  0
   13.2163   42.6752  132.8386 O   0  0  0  0  0  0  0  0  0  0  0  0
   12.3639   43.7628  130.8528 C   0  0  0  0  0  0  0  0  0  0  0  0
   11.4669   44.6005  130.2542 C   0  0  0  0  0  0  0  0  0  0  0  0
   10.4971   45.2159  131.0183 C   0  0  0  0  0  0  0  0  0  0  0  0
    9.6102   46.0460  130.4166 C   0  0  0  0  0  0  0  0  0  0  0  0
   13.9126   42.2372  132.2720 H   0  0  0  0  0  0  0  0  0  0  0  0
    4.8064   49.9984  128.6788 O   0  0  0  0  0  0  0  0  0  0  0  0
    5.7555   49.1743  129.3090 C   0  0  0  0  0  0  0  0  0  0  0  0
    5.6145   47.8033  129.2844 C   0  0  0  0  0  0  0  0  0  0  0  0
    6.5688   47.0059  129.9164 C   0  0  0  0  0  0  0  0  0  0  0  0
    7.6511   47.5636  130.5654 C   0  0  0  0  0  0  0  0  0  0  0  0
    7.8002   48.9318  130.5955 C   0  0  0  0  0  0  0  0  0  0  0  0
    9.1399   49.7079  131.4111 Cl  0  0  0  0  0  0  0  0  0  0  0  0
    6.8393   49.7133  129.9600 C   0  0  0  0  0  0  0  0  0  0  0  0
    4.0264   50.2789  129.2933 H   0  0  0  0  0  0  0  0  0  0  0  0
 14 15  1  0  0  0
 15 16  2  0  0  0
 16 17  1  0  0  0
 17 18  2  0  0  0
 18 19  1  0  0  0
 19 20  1  0  0  0
 19 21  2  0  0  0
 18  1  1  0  0  0
  1  2  2  0  0  0
  2  3  1  0  0  0
  3  4  2  0  0  0
  4  5  1  0  0  0
  5  6  1  0  0  0
  5  7  2  0  0  0
  7  8  1  0  0  0
  7  9  1  0  0  0
  9 10  2  0  0  0
 10 11  1  0  0  0
 11 12  2  0  0  0
 21 15  1  0  0  0
 12  1  1  0  0  0
 11  4  1  0  0  0
 14 22  1  0  0  0
  8 13  1  0  0  0
M  END
> <minimizedAffinity>
-8.37297

> <CNNscore>
0.8533765674

> <CNNaffinity>
7.5842542648

> <CNN_VS>
6.4722247124

> <CNNaffinity_variance>
0.3415490687

$$$$
[H]Oc1c([H])c([H])c(-c2c([H])c([H])c3c(Cl)c(O[H])c([H])c([H])c3c2[H])c(Cl)c1[H]


 22 24  0  0  0  0  0  0  0  0999 V2000
    9.2248   46.9950  130.5483 C   0  0  0  0  0  0  0  0  0  0  0  0
    8.8301   45.7976  129.9958 C   0  0  0  0  0  0  0  0  0  0  0  0
    9.4780   44.6291  130.3825 C   0  0  0  0  0  0  0  0  0  0  0  0
   10.4979   44.6920  131.3075 C   0  0  0  0  0  0  0  0  0  0  0  0
   11.1293   43.5271  131.6802 C   0  0  0  0  0  0  0  0  0  0  0  0
   10.6152   42.0324  130.9708 Cl  0  0  0  0  0  0  0  0  0  0  0  0
   12.1546   43.6006  132.6118 C   0  0  0  0  0  0  0  0  0  0  0  0
   12.7885   42.4142  132.9830 O   0  0  0  0  0  0  0  0  0  0  0  0
   12.5326   44.8140  133.1523 C   0  0  0  0  0  0  0  0  0  0  0  0
   11.9029   45.9667  132.7792 C   0  0  0  0  0  0  0  0  0  0  0  0
   10.8809   45.9141  131.8540 C   0  0  0  0  0  0  0  0  0  0  0  0
   10.2608   47.0629  131.4887 C   0  0  0  0  0  0  0  0  0  0  0  0
   13.5265   42.4687  133.6539 H   0  0  0  0  0  0  0  0  0  0  0  0
    6.5835   51.6988  128.8113 O   0  0  0  0  0  0  0  0  0  0  0  0
    7.2376   50.5329  129.2468 C   0  0  0  0  0  0  0  0  0  0  0  0
    7.1384   49.3651  128.5211 C   0  0  0  0  0  0  0  0  0  0  0  0
    7.7963   48.2209  128.9726 C   0  0  0  0  0  0  0  0  0  0  0  0
    8.5445   48.2361  130.1317 C   0  0  0  0  0  0  0  0  0  0  0  0
    8.6493   49.3975  130.8633 C   0  0  0  0  0  0  0  0  0  0  0  0
    9.5695   49.4861  132.3491 Cl  0  0  0  0  0  0  0  0  0  0  0  0
    7.9868   50.5305  130.3991 C   0  0  0  0  0  0  0  0  0  0  0  0
    5.6249   51.7996  129.1796 H   0  0  0  0  0  0  0  0  0  0  0  0
 14 15  1  0  0  0
 15 16  2  0  0  0
 16 17  1  0  0  0
 17 18  2  0  0  0
 18 19  1  0  0  0
 19 20  1  0  0  0
 19 21  2  0  0  0
 18  1  1  0  0  0
  1  2  2  0  0  0
  2  3  1  0  0  0
  3  4  2  0  0  0
  4  5  1  0  0  0
  5  6  1  0  0  0
  5  7  2  0  0  0
  7  8  1  0  0  0
  7  9  1  0  0  0
  9 10  2  0  0  0
 10 11  1  0  0  0
 11 12  2  0  0  0
 21 15  1  0  0  0
 12  1  1  0  0  0
 11  4  1  0  0  0
 14 22  1  0  0  0
  8 13  1  0  0  0
M  END
> <minimizedAffinity>
-8.53979

> <CNNscore>
0.8382853270

> <CNNaffinity>
7.5923814774

> <CNN_VS>
6.3645820618

> <CNNaffinity_variance>
0.5654846430

$$$$
[H]Oc1c([H])c([H])c(-c2c([H])c([H])c3c(Cl)c(O[H])c([H])c([H])c3c2[H])c(Cl)c1[H]


 22 24  0  0  0  0  0  0  0  0999 V2000
    9.3991   46.2727  131.5591 C   0  0  0  0  0  0  0  0  0  0  0  0
    8.4110   45.6141  130.8628 C   0  0  0  0  0  0  0  0  0  0  0  0
    7.4433   46.3584  130.1965 C   0  0  0  0  0  0  0  0  0  0  0  0
    7.4919   47.7351  130.2455 C   0  0  0  0  0  0  0  0  0  0  0  0
    6.5273   48.4578  129.5810 C   0  0  0  0  0  0  0  0  0  0  0  0
    5.2938   47.6065  128.7119 Cl  0  0  0  0  0  0  0  0  0  0  0  0
    6.5847   49.8428  129.6361 C   0  0  0  0  0  0  0  0  0  0  0  0
    5.6023   50.5665  128.9592 O   0  0  0  0  0  0  0  0  0  0  0  0
    7.5862   50.4809  130.3412 C   0  0  0  0  0  0  0  0  0  0  0  0
    8.5408   49.7592  130.9987 C   0  0  0  0  0  0  0  0  0  0  0  0
    8.5006   48.3809  130.9556 C   0  0  0  0  0  0  0  0  0  0  0  0
    9.4519   47.6715  131.6110 C   0  0  0  0  0  0  0  0  0  0  0  0
    5.6449   51.5636  128.9998 H   0  0  0  0  0  0  0  0  0  0  0  0
   13.3741   43.1906  134.1705 O   0  0  0  0  0  0  0  0  0  0  0  0
   12.3879   43.9584  133.5263 C   0  0  0  0  0  0  0  0  0  0  0  0
   12.4351   44.1516  132.1623 C   0  0  0  0  0  0  0  0  0  0  0  0
   11.4455   44.9169  131.5450 C   0  0  0  0  0  0  0  0  0  0  0  0
   10.4205   45.4839  132.2740 C   0  0  0  0  0  0  0  0  0  0  0  0
   10.3652   45.2967  133.6367 C   0  0  0  0  0  0  0  0  0  0  0  0
    9.1025   45.9969  134.6255 Cl  0  0  0  0  0  0  0  0  0  0  0  0
   11.3602   44.5304  134.2373 C   0  0  0  0  0  0  0  0  0  0  0  0
   14.1868   43.7409  134.4890 H   0  0  0  0  0  0  0  0  0  0  0  0
 14 15  1  0  0  0
 15 16  2  0  0  0
 16 17  1  0  0  0
 17 18  2  0  0  0
 18 19  1  0  0  0
 19 20  1  0  0  0
 19 21  2  0  0  0
 18  1  1  0  0  0
  1  2  2  0  0  0
  2  3  1  0  0  0
  3  4  2  0  0  0
  4  5  1  0  0  0
  5  6  1  0  0  0
  5  7  2  0  0  0
  7  8  1  0  0  0
  7  9  1  0  0  0
  9 10  2  0  0  0
 10 11  1  0  0  0
 11 12  2  0  0  0
 21 15  1  0  0  0
 12  1  1  0  0  0
 11  4  1  0  0  0
 14 22  1  0  0  0
  8 13  1  0  0  0
M  END
> <minimizedAffinity>
-8.39504

> <CNNscore>
0.8145636916

> <CNNaffinity>
7.4560709000

> <CNN_VS>
6.0734448433

> <CNNaffinity_variance>
0.7078425884

$$$$
[H]Oc1c([H])c([H])c(-c2c([H])c([H])c3c(Cl)c(O[H])c([H])c([H])c3c2[H])c(Cl)c1[H]


 22 24  0  0  0  0  0  0  0  0999 V2000
    8.7312   46.7359  130.4426 C   0  0  0  0  0  0  0  0  0  0  0  0
    9.7622   46.5798  129.5439 C   0  0  0  0  0  0  0  0  0  0  0  0
   10.8217   45.7401  129.8706 C   0  0  0  0  0  0  0  0  0  0  0  0
   10.8192   45.0829  131.0822 C   0  0  0  0  0  0  0  0  0  0  0  0
   11.8746   44.2551  131.3910 C   0  0  0  0  0  0  0  0  0  0  0  0
   13.1607   44.0751  130.2441 Cl  0  0  0  0  0  0  0  0  0  0  0  0
   11.8630   43.5980  132.6127 C   0  0  0  0  0  0  0  0  0  0  0  0
   12.9375   42.7612  132.9165 O   0  0  0  0  0  0  0  0  0  0  0  0
   10.8170   43.7705  133.4978 C   0  0  0  0  0  0  0  0  0  0  0  0
    9.7722   44.5927  133.1865 C   0  0  0  0  0  0  0  0  0  0  0  0
    9.7657   45.2549  131.9763 C   0  0  0  0  0  0  0  0  0  0  0  0
    8.7250   46.0696  131.6747 C   0  0  0  0  0  0  0  0  0  0  0  0
   12.9277   42.2887  133.7965 H   0  0  0  0  0  0  0  0  0  0  0  0
    4.3658   50.0712  129.0502 O   0  0  0  0  0  0  0  0  0  0  0  0
    5.4495   49.2463  129.3996 C   0  0  0  0  0  0  0  0  0  0  0  0
    5.3901   47.8867  129.1805 C   0  0  0  0  0  0  0  0  0  0  0  0
    6.4776   47.0882  129.5351 C   0  0  0  0  0  0  0  0  0  0  0  0
    7.6116   47.6338  130.1009 C   0  0  0  0  0  0  0  0  0  0  0  0
    7.6801   48.9905  130.3239 C   0  0  0  0  0  0  0  0  0  0  0  0
    9.0804   49.7486  131.0496 Cl  0  0  0  0  0  0  0  0  0  0  0  0
    6.5864   49.7732  129.9643 C   0  0  0  0  0  0  0  0  0  0  0  0
    3.6751   50.1926  129.8071 H   0  0  0  0  0  0  0  0  0  0  0  0
 14 15  1  0  0  0
 15 16  2  0  0  0
 16 17  1  0  0  0
 17 18  2  0  0  0
 18 19  1  0  0  0
 19 20  1  0  0  0
 19 21  2  0  0  0
 18  1  1  0  0  0
  1  2  2  0  0  0
  2  3  1  0  0  0
  3  4  2  0  0  0
  4  5  1  0  0  0
  5  6  1  0  0  0
  5  7  2  0  0  0
  7  8  1  0  0  0
  7  9  1  0  0  0
  9 10  2  0  0  0
 10 11  1  0  0  0
 11 12  2  0  0  0
 21 15  1  0  0  0
 12  1  1  0  0  0
 11  4  1  0  0  0
 14 22  1  0  0  0
  8 13  1  0  0  0
M  END
> <minimizedAffinity>
-9.28513

> <CNNscore>
0.8038867116

> <CNNaffinity>
7.4006438255

> <CNN_VS>
5.9492793083

> <CNNaffinity_variance>
0.2782394886

$$$$
[H]Oc1c([H])c([H])c(-c2c([H])c([H])c3c(Cl)c(O[H])c([H])c([H])c3c2[H])c(Cl)c1[H]


 22 24  0  0  0  0  0  0  0  0999 V2000
    9.4307   46.0661  130.9899 C   0  0  0  0  0  0  0  0  0  0  0  0
    8.3056   45.5396  130.3966 C   0  0  0  0  0  0  0  0  0  0  0  0
    7.3377   46.4045  129.8972 C   0  0  0  0  0  0  0  0  0  0  0  0
    7.5227   47.7662  130.0049 C   0  0  0  0  0  0  0  0  0  0  0  0
    6.5560   48.6093  129.5058 C   0  0  0  0  0  0  0  0  0  0  0  0
    5.1487   47.9232  128.7639 Cl  0  0  0  0  0  0  0  0  0  0  0  0
    6.7512   49.9781  129.6189 C   0  0  0  0  0  0  0  0  0  0  0  0
    5.7655   50.8245  129.1099 O   0  0  0  0  0  0  0  0  0  0  0  0
    7.8887   50.4825  130.2181 C   0  0  0  0  0  0  0  0  0  0  0  0
    8.8447   49.6417  130.7116 C   0  0  0  0  0  0  0  0  0  0  0  0
    8.6686   48.2773  130.6086 C   0  0  0  0  0  0  0  0  0  0  0  0
    9.6222   47.4492  131.1010 C   0  0  0  0  0  0  0  0  0  0  0  0
    5.9074   51.8098  129.1920 H   0  0  0  0  0  0  0  0  0  0  0  0
   13.3188   42.5853  133.2004 O   0  0  0  0  0  0  0  0  0  0  0  0
   12.3539   43.4460  132.6481 C   0  0  0  0  0  0  0  0  0  0  0  0
   11.3824   44.0092  133.4476 C   0  0  0  0  0  0  0  0  0  0  0  0
   10.4357   44.8604  132.8774 C   0  0  0  0  0  0  0  0  0  0  0  0
   10.4535   45.1493  131.5284 C   0  0  0  0  0  0  0  0  0  0  0  0
   11.4197   44.5914  130.7219 C   0  0  0  0  0  0  0  0  0  0  0  0
   11.4945   44.9025  129.0015 Cl  0  0  0  0  0  0  0  0  0  0  0  0
   12.3571   43.7443  131.3064 C   0  0  0  0  0  0  0  0  0  0  0  0
   13.0395   41.5920  133.1981 H   0  0  0  0  0  0  0  0  0  0  0  0
 14 15  1  0  0  0
 15 16  2  0  0  0
 16 17  1  0  0  0
 17 18  2  0  0  0
 18 19  1  0  0  0
 19 20  1  0  0  0
 19 21  2  0  0  0
 18  1  1  0  0  0
  1  2  2  0  0  0
  2  3  1  0  0  0
  3  4  2  0  0  0
  4  5  1  0  0  0
  5  6  1  0  0  0
  5  7  2  0  0  0
  7  8  1  0  0  0
  7  9  1  0  0  0
  9 10  2  0  0  0
 10 11  1  0  0  0
 11 12  2  0  0  0
 21 15  1  0  0  0
 12  1  1  0  0  0
 11  4  1  0  0  0
 14 22  1  0  0  0
  8 13  1  0  0  0
M  END
> <minimizedAffinity>
-8.34114

> <CNNscore>
0.7829692960

> <CNNaffinity>
7.4452161789

> <CNN_VS>
5.8293757439

> <CNNaffinity_variance>
0.5613621473

$$$$
[H]Oc1c([H])c([H])c(-c2c([H])c([H])c3c(Cl)c(O[H])c([H])c([H])c3c2[H])c(Cl)c1[H]


 22 24  0  0  0  0  0  0  0  0999 V2000
    8.6963   46.8417  130.7629 C   0  0  0  0  0  0  0  0  0  0  0  0
    7.9327   46.1604  131.6836 C   0  0  0  0  0  0  0  0  0  0  0  0
    8.3849   44.9353  132.1620 C   0  0  0  0  0  0  0  0  0  0  0  0
    9.5837   44.4289  131.7074 C   0  0  0  0  0  0  0  0  0  0  0  0
   10.0179   43.2154  132.1903 C   0  0  0  0  0  0  0  0  0  0  0  0
    9.0394   42.3765  133.3482 Cl  0  0  0  0  0  0  0  0  0  0  0  0
   11.2256   42.7141  131.7269 C   0  0  0  0  0  0  0  0  0  0  0  0
   11.6571   41.4831  132.2223 O   0  0  0  0  0  0  0  0  0  0  0  0
   11.9742   43.4164  130.8029 C   0  0  0  0  0  0  0  0  0  0  0  0
   11.5389   44.6200  130.3271 C   0  0  0  0  0  0  0  0  0  0  0  0
   10.3404   45.1351  130.7760 C   0  0  0  0  0  0  0  0  0  0  0  0
    9.9150   46.3305  130.2987 C   0  0  0  0  0  0  0  0  0  0  0  0
   12.5269   41.1234  131.8878 H   0  0  0  0  0  0  0  0  0  0  0  0
    6.7955   51.7472  128.6551 O   0  0  0  0  0  0  0  0  0  0  0  0
    7.2663   50.5318  129.1824 C   0  0  0  0  0  0  0  0  0  0  0  0
    6.9484   49.3372  128.5726 C   0  0  0  0  0  0  0  0  0  0  0  0
    7.4270   48.1439  129.1138 C   0  0  0  0  0  0  0  0  0  0  0  0
    8.2128   48.1369  130.2478 C   0  0  0  0  0  0  0  0  0  0  0  0
    8.5354   49.3249  130.8640 C   0  0  0  0  0  0  0  0  0  0  0  0
    9.5157   49.3903  132.3121 Cl  0  0  0  0  0  0  0  0  0  0  0  0
    8.0499   50.5068  130.3113 C   0  0  0  0  0  0  0  0  0  0  0  0
    5.8817   52.0389  129.0353 H   0  0  0  0  0  0  0  0  0  0  0  0
 14 15  1  0  0  0
 15 16  2  0  0  0
 16 17  1  0  0  0
 17 18  2  0  0  0
 18 19  1  0  0  0
 19 20  1  0  0  0
 19 21  2  0  0  0
 18  1  1  0  0  0
  1  2  2  0  0  0
  2  3  1  0  0  0
  3  4  2  0  0  0
  4  5  1  0  0  0
  5  6  1  0  0  0
  5  7  2  0  0  0
  7  8  1  0  0  0
  7  9  1  0  0  0
  9 10  2  0  0  0
 10 11  1  0  0  0
 11 12  2  0  0  0
 21 15  1  0  0  0
 12  1  1  0  0  0
 11  4  1  0  0  0
 14 22  1  0  0  0
  8 13  1  0  0  0
M  END
> <minimizedAffinity>
-9.17293

> <CNNscore>
0.7601428032

> <CNNaffinity>
7.4247641563

> <CNN_VS>
5.6438808441

> <CNNaffinity_variance>
0.4116453528

$$$$
[H]Oc1c([H])c([H])c(-c2c([H])c([H])c3c(Cl)c(O[H])c([H])c([H])c3c2[H])c(Cl)c1[H]


 22 24  0  0  0  0  0  0  0  0999 V2000
    9.2606   47.2540  131.3509 C   0  0  0  0  0  0  0  0  0  0  0  0
   10.0683   46.3932  130.6427 C   0  0  0  0  0  0  0  0  0  0  0  0
   10.7444   45.3867  131.3241 C   0  0  0  0  0  0  0  0  0  0  0  0
   10.5932   45.2706  132.6893 C   0  0  0  0  0  0  0  0  0  0  0  0
   11.2687   44.2695  133.3496 C   0  0  0  0  0  0  0  0  0  0  0  0
   12.2795   43.1986  132.4368 Cl  0  0  0  0  0  0  0  0  0  0  0  0
   11.1102   44.1607  134.7235 C   0  0  0  0  0  0  0  0  0  0  0  0
   11.7991   43.1426  135.3837 O   0  0  0  0  0  0  0  0  0  0  0  0
   10.2939   45.0364  135.4120 C   0  0  0  0  0  0  0  0  0  0  0  0
    9.6259   46.0279  134.7522 C   0  0  0  0  0  0  0  0  0  0  0  0
    9.7708   46.1521  133.3859 C   0  0  0  0  0  0  0  0  0  0  0  0
    9.1045   47.1391  132.7381 C   0  0  0  0  0  0  0  0  0  0  0  0
   11.6840   43.0655  136.3729 H   0  0  0  0  0  0  0  0  0  0  0  0
    6.5952   51.4813  128.6777 O   0  0  0  0  0  0  0  0  0  0  0  0
    7.2564   50.4299  129.3369 C   0  0  0  0  0  0  0  0  0  0  0  0
    8.2624   50.6966  130.2408 C   0  0  0  0  0  0  0  0  0  0  0  0
    8.9041   49.6373  130.8827 C   0  0  0  0  0  0  0  0  0  0  0  0
    8.5506   48.3278  130.6301 C   0  0  0  0  0  0  0  0  0  0  0  0
    7.5473   48.0516  129.7289 C   0  0  0  0  0  0  0  0  0  0  0  0
    7.0563   46.4153  129.3498 Cl  0  0  0  0  0  0  0  0  0  0  0  0
    6.9170   49.1199  129.0970 C   0  0  0  0  0  0  0  0  0  0  0  0
    7.0359   51.7549  127.7858 H   0  0  0  0  0  0  0  0  0  0  0  0
 14 15  1  0  0  0
 15 16  2  0  0  0
 16 17  1  0  0  0
 17 18  2  0  0  0
 18 19  1  0  0  0
 19 20  1  0  0  0
 19 21  2  0  0  0
 18  1  1  0  0  0
  1  2  2  0  0  0
  2  3  1  0  0  0
  3  4  2  0  0  0
  4  5  1  0  0  0
  5  6  1  0  0  0
  5  7  2  0  0  0
  7  8  1  0  0  0
  7  9  1  0  0  0
  9 10  2  0  0  0
 10 11  1  0  0  0
 11 12  2  0  0  0
 21 15  1  0  0  0
 12  1  1  0  0  0
 11  4  1  0  0  0
 14 22  1  0  0  0
  8 13  1  0  0  0
M  END
> <minimizedAffinity>
-7.50977

> <CNNscore>
0.7118451595

> <CNNaffinity>
7.4237174988

> <CNN_VS>
5.2845373154

> <CNNaffinity_variance>
0.6542652249

$$$$
[H]Oc1c([H])c([H])c(-c2c([H])c([H])c3c(Cl)c(O[H])c([H])c([H])c3c2[H])c(Cl)c1[H]


 22 24  0  0  0  0  0  0  0  0999 V2000
    9.2306   45.7160  130.8467 C   0  0  0  0  0  0  0  0  0  0  0  0
    9.8531   46.9030  131.1607 C   0  0  0  0  0  0  0  0  0  0  0  0
    9.1947   48.1003  130.9012 C   0  0  0  0  0  0  0  0  0  0  0  0
    7.9371   48.0757  130.3374 C   0  0  0  0  0  0  0  0  0  0  0  0
    7.2982   49.2688  130.0867 C   0  0  0  0  0  0  0  0  0  0  0  0
    8.1019   50.7497  130.4901 Cl  0  0  0  0  0  0  0  0  0  0  0  0
    6.0328   49.2339  129.5191 C   0  0  0  0  0  0  0  0  0  0  0  0
    5.3935   50.4486  129.2688 O   0  0  0  0  0  0  0  0  0  0  0  0
    5.4287   48.0302  129.2132 C   0  0  0  0  0  0  0  0  0  0  0  0
    6.0669   46.8493  129.4640 C   0  0  0  0  0  0  0  0  0  0  0  0
    7.3258   46.8636  130.0280 C   0  0  0  0  0  0  0  0  0  0  0  0
    7.9527   45.6871  130.2739 C   0  0  0  0  0  0  0  0  0  0  0  0
    4.4824   50.4219  128.8601 H   0  0  0  0  0  0  0  0  0  0  0  0
   11.9269   40.8708  132.0188 O   0  0  0  0  0  0  0  0  0  0  0  0
   11.2561   42.0709  131.7242 C   0  0  0  0  0  0  0  0  0  0  0  0
   10.7001   42.8254  132.7349 C   0  0  0  0  0  0  0  0  0  0  0  0
   10.0395   44.0126  132.4185 C   0  0  0  0  0  0  0  0  0  0  0  0
    9.9322   44.4458  131.1130 C   0  0  0  0  0  0  0  0  0  0  0  0
   10.4840   43.6988  130.0967 C   0  0  0  0  0  0  0  0  0  0  0  0
   10.3747   44.1802  128.4179 Cl  0  0  0  0  0  0  0  0  0  0  0  0
   11.1400   42.5169  130.4293 C   0  0  0  0  0  0  0  0  0  0  0  0
   11.3143   40.0405  132.0149 H   0  0  0  0  0  0  0  0  0  0  0  0
 14 15  1  0  0  0
 15 16  2  0  0  0
 16 17  1  0  0  0
 17 18  2  0  0  0
 18 19  1  0  0  0
 19 20  1  0  0  0
 19 21  2  0  0  0
 18  1  1  0  0  0
  1  2  2  0  0  0
  2  3  1  0  0  0
  3  4  2  0  0  0
  4  5  1  0  0  0
  5  6  1  0  0  0
  5  7  2  0  0  0
  7  8  1  0  0  0
  7  9  1  0  0  0
  9 10  2  0  0  0
 10 11  1  0  0  0
 11 12  2  0  0  0
 21 15  1  0  0  0
 12  1  1  0  0  0
 11  4  1  0  0  0
 14 22  1  0  0  0
  8 13  1  0  0  0
M  END
> <minimizedAffinity>
-6.12724

> <CNNscore>
0.6099925637

> <CNNaffinity>
7.3287687302

> <CNN_VS>
4.4704942703

> <CNNaffinity_variance>
1.0847800970

$$$$
[H]Oc1c([H])c([H])c(-c2nn(C([H])(C([H])([H])[H])C([H])([H])[H])c3c(C(F)(F)F)c([H])c([H])c([H])c23)c([H])c1[H]


 24 26  0  0  0  0  0  0  0  0999 V2000
   10.2364   45.8110  132.5830 N   0  0  0  0  0  0  0  0  0  0  0  0
    9.7589   47.0458  132.2522 N   0  0  0  0  0  0  0  0  0  0  0  0
    9.1379   47.0727  131.0886 C   0  0  0  0  0  0  0  0  0  0  0  0
    9.1972   45.7952  130.6073 C   0  0  0  0  0  0  0  0  0  0  0  0
    8.6681   45.2166  129.4726 C   0  0  0  0  0  0  0  0  0  0  0  0
    8.8193   43.8836  129.2569 C   0  0  0  0  0  0  0  0  0  0  0  0
    9.4960   43.1532  130.1682 C   0  0  0  0  0  0  0  0  0  0  0  0
   10.0791   43.6843  131.3734 C   0  0  0  0  0  0  0  0  0  0  0  0
    9.8938   45.0247  131.5547 C   0  0  0  0  0  0  0  0  0  0  0  0
    8.4967   48.1980  130.4168 C   0  0  0  0  0  0  0  0  0  0  0  0
    7.9662   48.0272  129.1743 C   0  0  0  0  0  0  0  0  0  0  0  0
    7.3523   49.1333  128.5702 C   0  0  0  0  0  0  0  0  0  0  0  0
    7.3006   50.3315  129.2251 C   0  0  0  0  0  0  0  0  0  0  0  0
    6.6848   51.4039  128.5956 O   0  0  0  0  0  0  0  0  0  0  0  0
    7.8310   50.5076  130.4702 C   0  0  0  0  0  0  0  0  0  0  0  0
    8.4396   49.4122  131.0701 C   0  0  0  0  0  0  0  0  0  0  0  0
    6.2740   51.3240  127.6674 H   0  0  0  0  0  0  0  0  0  0  0  0
   10.9208   42.8096  132.1249 C   0  0  0  0  0  0  0  0  0  0  0  0
   10.1646   42.0066  133.0467 F   0  0  0  0  0  0  0  0  0  0  0  0
   10.6690   41.6468  131.1077 F   0  0  0  0  0  0  0  0  0  0  0  0
   12.1648   42.4551  132.0720 F   0  0  0  0  0  0  0  0  0  0  0  0
   12.2681   45.1999  134.0235 C   0  0  0  0  0  0  0  0  0  0  0  0
   10.8395   45.5249  133.8212 C   0  0  0  0  0  0  0  0  0  0  0  0
    9.9652   45.5960  135.0702 C   0  0  0  0  0  0  0  0  0  0  0  0
 22 23  1  0  0  0
 23 24  1  0  0  0
 23  1  1  0  0  0
  1  2  1  0  0  0
  2  3  2  0  0  0
  3 10  1  0  0  0
 10 11  2  0  0  0
 11 12  1  0  0  0
 12 13  2  0  0  0
 13 14  1  0  0  0
 13 15  1  0  0  0
 15 16  2  0  0  0
  3  4  1  0  0  0
  4  5  2  0  0  0
  5  6  1  0  0  0
  6  7  2  0  0  0
  7  8  1  0  0  0
  8  9  2  0  0  0
  8 18  1  0  0  0
 18 19  1  0  0  0
 18 20  1  0  0  0
 18 21  1  0  0  0
  9  1  1  0  0  0
 16 10  1  0  0  0
  9  4  1  0  0  0
 14 17  1  0  0  0
M  END
> <minimizedAffinity>
-9.38948

> <CNNscore>
0.8075200915

> <CNNaffinity>
7.8490839005

> <CNN_VS>
6.3382930756

> <CNNaffinity_variance>
0.6519334912

$$$$
[H]Oc1c([H])c([H])c(-c2nn(C([H])(C([H])([H])[H])C([H])([H])[H])c3c(C(F)(F)F)c([H])c([H])c([H])c23)c([H])c1[H]


 24 26  0  0  0  0  0  0  0  0999 V2000
   10.5386   45.1824  131.1863 N   0  0  0  0  0  0  0  0  0  0  0  0
   10.0056   46.1102  130.3393 N   0  0  0  0  0  0  0  0  0  0  0  0
    9.3343   47.0612  130.9599 C   0  0  0  0  0  0  0  0  0  0  0  0
    9.4159   46.7642  132.2911 C   0  0  0  0  0  0  0  0  0  0  0  0
    8.9619   47.4312  133.4097 C   0  0  0  0  0  0  0  0  0  0  0  0
    9.2380   46.9455  134.6483 C   0  0  0  0  0  0  0  0  0  0  0  0
    9.9542   45.8061  134.7517 C   0  0  0  0  0  0  0  0  0  0  0  0
   10.4594   45.0523  133.6331 C   0  0  0  0  0  0  0  0  0  0  0  0
   10.1678   45.5822  132.4092 C   0  0  0  0  0  0  0  0  0  0  0  0
    8.6420   48.2142  130.3940 C   0  0  0  0  0  0  0  0  0  0  0  0
    8.7941   49.4396  130.9681 C   0  0  0  0  0  0  0  0  0  0  0  0
    8.1172   50.5205  130.3860 C   0  0  0  0  0  0  0  0  0  0  0  0
    7.3371   50.3264  129.2811 C   0  0  0  0  0  0  0  0  0  0  0  0
    6.6824   51.4200  128.7325 O   0  0  0  0  0  0  0  0  0  0  0  0
    7.1813   49.1002  128.7023 C   0  0  0  0  0  0  0  0  0  0  0  0
    7.8517   48.0282  129.2781 C   0  0  0  0  0  0  0  0  0  0  0  0
    6.7661   52.3550  129.1268 H   0  0  0  0  0  0  0  0  0  0  0  0
   11.0291   43.7747  133.9184 C   0  0  0  0  0  0  0  0  0  0  0  0
   12.4654   43.8265  133.9413 F   0  0  0  0  0  0  0  0  0  0  0  0
   11.1220   44.1241  135.4414 F   0  0  0  0  0  0  0  0  0  0  0  0
   10.5735   42.6278  134.3098 F   0  0  0  0  0  0  0  0  0  0  0  0
   12.8348   44.2525  130.5234 C   0  0  0  0  0  0  0  0  0  0  0  0
   11.3786   44.1394  130.7558 C   0  0  0  0  0  0  0  0  0  0  0  0
   10.7528   42.7624  130.5508 C   0  0  0  0  0  0  0  0  0  0  0  0
 22 23  1  0  0  0
 23 24  1  0  0  0
 23  1  1  0  0  0
  1  2  1  0  0  0
  2  3  2  0  0  0
  3 10  1  0  0  0
 10 11  2  0  0  0
 11 12  1  0  0  0
 12 13  2  0  0  0
 13 14  1  0  0  0
 13 15  1  0  0  0
 15 16  2  0  0  0
  3  4  1  0  0  0
  4  5  2  0  0  0
  5  6  1  0  0  0
  6  7  2  0  0  0
  7  8  1  0  0  0
  8  9  2  0  0  0
  8 18  1  0  0  0
 18 19  1  0  0  0
 18 20  1  0  0  0
 18 21  1  0  0  0
  9  1  1  0  0  0
 16 10  1  0  0  0
  9  4  1  0  0  0
 14 17  1  0  0  0
M  END
> <minimizedAffinity>
-9.50154

> <CNNscore>
0.8047833443

> <CNNaffinity>
7.7843732834

> <CNN_VS>
6.2647337914

> <CNNaffinity_variance>
0.4993683398

$$$$
[H]Oc1c([H])c([H])c(-c2nn(C([H])(C([H])([H])[H])C([H])([H])[H])c3c(C(F)(F)F)c([H])c([H])c([H])c23)c([H])c1[H]


 24 26  0  0  0  0  0  0  0  0999 V2000
   10.3215   45.1209  130.2025 N   0  0  0  0  0  0  0  0  0  0  0  0
    9.4488   45.9582  129.5704 N   0  0  0  0  0  0  0  0  0  0  0  0
    8.6235   46.5739  130.3950 C   0  0  0  0  0  0  0  0  0  0  0  0
    8.9521   46.1331  131.6459 C   0  0  0  0  0  0  0  0  0  0  0  0
    8.4758   46.4756  132.8942 C   0  0  0  0  0  0  0  0  0  0  0  0
    9.0305   45.9266  134.0064 C   0  0  0  0  0  0  0  0  0  0  0  0
   10.0425   45.0459  133.8575 C   0  0  0  0  0  0  0  0  0  0  0  0
   10.5917   44.6365  132.5905 C   0  0  0  0  0  0  0  0  0  0  0  0
   10.0119   45.2207  131.5014 C   0  0  0  0  0  0  0  0  0  0  0  0
    7.5720   47.5383  130.0900 C   0  0  0  0  0  0  0  0  0  0  0  0
    7.7824   48.8623  130.3288 C   0  0  0  0  0  0  0  0  0  0  0  0
    6.7479   49.7540  130.0126 C   0  0  0  0  0  0  0  0  0  0  0  0
    5.5775   49.2870  129.4842 C   0  0  0  0  0  0  0  0  0  0  0  0
    4.5762   50.1994  129.1838 O   0  0  0  0  0  0  0  0  0  0  0  0
    5.3618   47.9610  129.2433 C   0  0  0  0  0  0  0  0  0  0  0  0
    6.3862   47.0763  129.5561 C   0  0  0  0  0  0  0  0  0  0  0  0
    4.6879   51.1986  129.3447 H   0  0  0  0  0  0  0  0  0  0  0  0
   11.5257   43.5569  132.6088 C   0  0  0  0  0  0  0  0  0  0  0  0
   12.5535   43.7600  133.5930 F   0  0  0  0  0  0  0  0  0  0  0  0
   10.7376   42.8568  133.7659 F   0  0  0  0  0  0  0  0  0  0  0  0
   11.5872   42.3807  132.0712 F   0  0  0  0  0  0  0  0  0  0  0  0
   12.7933   44.5187  129.8798 C   0  0  0  0  0  0  0  0  0  0  0  0
   11.3571   44.4416  129.5354 C   0  0  0  0  0  0  0  0  0  0  0  0
   10.9724   43.5118  128.3877 C   0  0  0  0  0  0  0  0  0  0  0  0
 22 23  1  0  0  0
 23 24  1  0  0  0
 23  1  1  0  0  0
  1  2  1  0  0  0
  2  3  2  0  0  0
  3 10  1  0  0  0
 10 11  2  0  0  0
 11 12  1  0  0  0
 12 13  2  0  0  0
 13 14  1  0  0  0
 13 15  1  0  0  0
 15 16  2  0  0  0
  3  4  1  0  0  0
  4  5  2  0  0  0
  5  6  1  0  0  0
  6  7  2  0  0  0
  7  8  1  0  0  0
  8  9  2  0  0  0
  8 18  1  0  0  0
 18 19  1  0  0  0
 18 20  1  0  0  0
 18 21  1  0  0  0
  9  1  1  0  0  0
 16 10  1  0  0  0
  9  4  1  0  0  0
 14 17  1  0  0  0
M  END
> <minimizedAffinity>
-8.76847

> <CNNscore>
0.7206661701

> <CNNaffinity>
7.7920632362

> <CNN_VS>
5.6154761314

> <CNNaffinity_variance>
0.8019472957

$$$$
[H]Oc1c([H])c([H])c(-c2nn(C([H])(C([H])([H])[H])C([H])([H])[H])c3c(C(F)(F)F)c([H])c([H])c([H])c23)c([H])c1[H]


 24 26  0  0  0  0  0  0  0  0999 V2000
    9.5016   45.3485  132.2751 N   0  0  0  0  0  0  0  0  0  0  0  0
    8.7913   46.4970  132.0786 N   0  0  0  0  0  0  0  0  0  0  0  0
    8.9694   47.0248  130.8828 C   0  0  0  0  0  0  0  0  0  0  0  0
    9.8421   46.1946  130.2375 C   0  0  0  0  0  0  0  0  0  0  0  0
   10.3396   46.2070  128.9512 C   0  0  0  0  0  0  0  0  0  0  0  0
   11.1582   45.2075  128.5305 C   0  0  0  0  0  0  0  0  0  0  0  0
   11.4703   44.2193  129.3954 C   0  0  0  0  0  0  0  0  0  0  0  0
   10.9941   44.1384  130.7523 C   0  0  0  0  0  0  0  0  0  0  0  0
   10.1666   45.1569  131.1287 C   0  0  0  0  0  0  0  0  0  0  0  0
    8.3766   48.2310  130.3149 C   0  0  0  0  0  0  0  0  0  0  0  0
    8.4752   49.4109  130.9875 C   0  0  0  0  0  0  0  0  0  0  0  0
    7.8985   50.5458  130.4006 C   0  0  0  0  0  0  0  0  0  0  0  0
    7.2640   50.4467  129.1944 C   0  0  0  0  0  0  0  0  0  0  0  0
    6.7052   51.5915  128.6443 O   0  0  0  0  0  0  0  0  0  0  0  0
    7.1623   49.2664  128.5166 C   0  0  0  0  0  0  0  0  0  0  0  0
    7.7336   48.1409  129.0971 C   0  0  0  0  0  0  0  0  0  0  0  0
    6.7540   52.4956  129.1101 H   0  0  0  0  0  0  0  0  0  0  0  0
   11.5747   43.1327  131.5829 C   0  0  0  0  0  0  0  0  0  0  0  0
   12.8982   42.7813  131.1456 F   0  0  0  0  0  0  0  0  0  0  0  0
   12.2911   44.2216  132.4497 F   0  0  0  0  0  0  0  0  0  0  0  0
   11.2674   42.5771  132.7112 F   0  0  0  0  0  0  0  0  0  0  0  0
    8.6444   43.2844  133.5325 C   0  0  0  0  0  0  0  0  0  0  0  0
    9.3859   44.5603  133.4344 C   0  0  0  0  0  0  0  0  0  0  0  0
   10.1189   45.0297  134.6882 C   0  0  0  0  0  0  0  0  0  0  0  0
 22 23  1  0  0  0
 23 24  1  0  0  0
 23  1  1  0  0  0
  1  2  1  0  0  0
  2  3  2  0  0  0
  3 10  1  0  0  0
 10 11  2  0  0  0
 11 12  1  0  0  0
 12 13  2  0  0  0
 13 14  1  0  0  0
 13 15  1  0  0  0
 15 16  2  0  0  0
  3  4  1  0  0  0
  4  5  2  0  0  0
  5  6  1  0  0  0
  6  7  2  0  0  0
  7  8  1  0  0  0
  8  9  2  0  0  0
  8 18  1  0  0  0
 18 19  1  0  0  0
 18 20  1  0  0  0
 18 21  1  0  0  0
  9  1  1  0  0  0
 16 10  1  0  0  0
  9  4  1  0  0  0
 14 17  1  0  0  0
M  END
> <minimizedAffinity>
-8.48380

> <CNNscore>
0.6357887983

> <CNNaffinity>
7.5793738365

> <CNN_VS>
4.8188810349

> <CNNaffinity_variance>
0.6555777192

$$$$
[H]Oc1c([H])c([H])c(-c2nn(C([H])(C([H])([H])[H])C([H])([H])[H])c3c(C(F)(F)F)c([H])c([H])c([H])c23)c([H])c1[H]


 24 26  0  0  0  0  0  0  0  0999 V2000
    9.8961   45.0871  132.0253 N   0  0  0  0  0  0  0  0  0  0  0  0
    8.7982   45.8941  131.9503 N   0  0  0  0  0  0  0  0  0  0  0  0
    8.6258   46.4343  130.7592 C   0  0  0  0  0  0  0  0  0  0  0  0
    9.6559   45.9716  129.9898 C   0  0  0  0  0  0  0  0  0  0  0  0
    9.9552   46.1475  128.6550 C   0  0  0  0  0  0  0  0  0  0  0  0
   11.0242   45.5104  128.1095 C   0  0  0  0  0  0  0  0  0  0  0  0
   11.7768   44.7163  128.8999 C   0  0  0  0  0  0  0  0  0  0  0  0
   11.5307   44.4853  130.3001 C   0  0  0  0  0  0  0  0  0  0  0  0
   10.4413   45.1362  130.8033 C   0  0  0  0  0  0  0  0  0  0  0  0
    7.5705   47.3328  130.3035 C   0  0  0  0  0  0  0  0  0  0  0  0
    6.4350   46.8161  129.7575 C   0  0  0  0  0  0  0  0  0  0  0  0
    5.4440   47.7160  129.3413 C   0  0  0  0  0  0  0  0  0  0  0  0
    5.6337   49.0613  129.4883 C   0  0  0  0  0  0  0  0  0  0  0  0
    4.6307   49.9215  129.0649 O   0  0  0  0  0  0  0  0  0  0  0  0
    6.7700   49.5839  130.0346 C   0  0  0  0  0  0  0  0  0  0  0  0
    7.7529   48.6931  130.4476 C   0  0  0  0  0  0  0  0  0  0  0  0
    3.7646   49.5815  128.6511 H   0  0  0  0  0  0  0  0  0  0  0  0
   12.5336   43.7724  131.0243 C   0  0  0  0  0  0  0  0  0  0  0  0
   13.8074   43.8260  130.3604 F   0  0  0  0  0  0  0  0  0  0  0  0
   12.9955   45.0880  131.7359 F   0  0  0  0  0  0  0  0  0  0  0  0
   12.6136   43.2270  132.1957 F   0  0  0  0  0  0  0  0  0  0  0  0
   10.9712   44.8179  134.3380 C   0  0  0  0  0  0  0  0  0  0  0  0
   10.2165   44.3268  133.1646 C   0  0  0  0  0  0  0  0  0  0  0  0
    9.7106   42.8880  133.2233 C   0  0  0  0  0  0  0  0  0  0  0  0
 22 23  1  0  0  0
 23 24  1  0  0  0
 23  1  1  0  0  0
  1  2  1  0  0  0
  2  3  2  0  0  0
  3 10  1  0  0  0
 10 11  2  0  0  0
 11 12  1  0  0  0
 12 13  2  0  0  0
 13 14  1  0  0  0
 13 15  1  0  0  0
 15 16  2  0  0  0
  3  4  1  0  0  0
  4  5  2  0  0  0
  5  6  1  0  0  0
  6  7  2  0  0  0
  7  8  1  0  0  0
  8  9  2  0  0  0
  8 18  1  0  0  0
 18 19  1  0  0  0
 18 20  1  0  0  0
 18 21  1  0  0  0
  9  1  1  0  0  0
 16 10  1  0  0  0
  9  4  1  0  0  0
 14 17  1  0  0  0
M  END
> <minimizedAffinity>
-9.06258

> <CNNscore>
0.5347684622

> <CNNaffinity>
7.3202409744

> <CNN_VS>
3.9146339893

> <CNNaffinity_variance>
0.5225401521

$$$$
[H]Oc1c([H])c([H])c(-c2nn(C([H])(C([H])([H])[H])C([H])([H])[H])c3c(C(F)(F)F)c([H])c([H])c([H])c23)c([H])c1[H]


 24 26  0  0  0  0  0  0  0  0999 V2000
    9.9584   46.3953  133.1862 N   0  0  0  0  0  0  0  0  0  0  0  0
    9.0583   47.1244  132.4648 N   0  0  0  0  0  0  0  0  0  0  0  0
    8.7158   46.5544  131.3254 C   0  0  0  0  0  0  0  0  0  0  0  0
    9.4170   45.3830  131.2716 C   0  0  0  0  0  0  0  0  0  0  0  0
    9.4155   44.3538  130.3533 C   0  0  0  0  0  0  0  0  0  0  0  0
   10.1728   43.2472  130.5728 C   0  0  0  0  0  0  0  0  0  0  0  0
   10.9195   43.1864  131.6956 C   0  0  0  0  0  0  0  0  0  0  0  0
   10.9763   44.2191  132.6980 C   0  0  0  0  0  0  0  0  0  0  0  0
   10.1922   45.3069  132.4420 C   0  0  0  0  0  0  0  0  0  0  0  0
    7.7828   47.0263  130.3077 C   0  0  0  0  0  0  0  0  0  0  0  0
    8.2014   47.9269  129.3760 C   0  0  0  0  0  0  0  0  0  0  0  0
    7.2738   48.3460  128.4120 C   0  0  0  0  0  0  0  0  0  0  0  0
    5.9990   47.8540  128.4273 C   0  0  0  0  0  0  0  0  0  0  0  0
    5.1087   48.2920  127.4573 O   0  0  0  0  0  0  0  0  0  0  0  0
    5.5748   46.9516  129.3592 C   0  0  0  0  0  0  0  0  0  0  0  0
    6.4931   46.5353  130.3150 C   0  0  0  0  0  0  0  0  0  0  0  0
    5.3761   48.9640  126.7406 H   0  0  0  0  0  0  0  0  0  0  0  0
   11.9610   44.0738  133.7215 C   0  0  0  0  0  0  0  0  0  0  0  0
   11.5113   43.2008  134.7713 F   0  0  0  0  0  0  0  0  0  0  0  0
   12.5084   42.7702  133.0497 F   0  0  0  0  0  0  0  0  0  0  0  0
   13.2043   44.4072  133.8599 F   0  0  0  0  0  0  0  0  0  0  0  0
   11.4777   47.7062  134.7829 C   0  0  0  0  0  0  0  0  0  0  0  0
   10.3851   46.7576  134.4766 C   0  0  0  0  0  0  0  0  0  0  0  0
    9.6364   46.1614  135.6656 C   0  0  0  0  0  0  0  0  0  0  0  0
 22 23  1  0  0  0
 23 24  1  0  0  0
 23  1  1  0  0  0
  1  2  1  0  0  0
  2  3  2  0  0  0
  3 10  1  0  0  0
 10 11  2  0  0  0
 11 12  1  0  0  0
 12 13  2  0  0  0
 13 14  1  0  0  0
 13 15  1  0  0  0
 15 16  2  0  0  0
  3  4  1  0  0  0
  4  5  2  0  0  0
  5  6  1  0  0  0
  6  7  2  0  0  0
  7  8  1  0  0  0
  8  9  2  0  0  0
  8 18  1  0  0  0
 18 19  1  0  0  0
 18 20  1  0  0  0
 18 21  1  0  0  0
  9  1  1  0  0  0
 16 10  1  0  0  0
  9  4  1  0  0  0
 14 17  1  0  0  0
M  END
> <minimizedAffinity>
-4.84351

> <CNNscore>
0.4440257549

> <CNNaffinity>
7.1043829918

> <CNN_VS>
3.1545290947

> <CNNaffinity_variance>
0.5860643983

$$$$
[H]Oc1c([H])c([H])c(-c2nn(C([H])(C([H])([H])[H])C([H])([H])[H])c3c(C(F)(F)F)c([H])c([H])c([H])c23)c([H])c1[H]


 24 26  0  0  0  0  0  0  0  0999 V2000
   10.6994   44.9722  133.2511 N   0  0  0  0  0  0  0  0  0  0  0  0
   10.7024   44.2695  132.0813 N   0  0  0  0  0  0  0  0  0  0  0  0
    9.8958   44.7722  131.1664 C   0  0  0  0  0  0  0  0  0  0  0  0
    9.3182   45.8679  131.7433 C   0  0  0  0  0  0  0  0  0  0  0  0
    8.4461   46.8141  131.2468 C   0  0  0  0  0  0  0  0  0  0  0  0
    8.0682   47.8629  132.0236 C   0  0  0  0  0  0  0  0  0  0  0  0
    8.5591   47.9489  133.2780 C   0  0  0  0  0  0  0  0  0  0  0  0
    9.4693   47.0012  133.8678 C   0  0  0  0  0  0  0  0  0  0  0  0
    9.8302   45.9704  133.0487 C   0  0  0  0  0  0  0  0  0  0  0  0
    9.6444   44.3035  129.8078 C   0  0  0  0  0  0  0  0  0  0  0  0
    8.4105   44.4685  129.2558 C   0  0  0  0  0  0  0  0  0  0  0  0
    8.2165   44.0109  127.9450 C   0  0  0  0  0  0  0  0  0  0  0  0
    9.2451   43.4223  127.2648 C   0  0  0  0  0  0  0  0  0  0  0  0
    9.0156   42.9817  125.9692 O   0  0  0  0  0  0  0  0  0  0  0  0
   10.4833   43.2543  127.8138 C   0  0  0  0  0  0  0  0  0  0  0  0
   10.6770   43.7076  129.1127 C   0  0  0  0  0  0  0  0  0  0  0  0
    8.1100   43.0836  125.5149 H   0  0  0  0  0  0  0  0  0  0  0  0
    9.7350   47.1416  135.2635 C   0  0  0  0  0  0  0  0  0  0  0  0
    8.7281   47.9307  135.9193 F   0  0  0  0  0  0  0  0  0  0  0  0
    8.8086   45.9232  135.5917 F   0  0  0  0  0  0  0  0  0  0  0  0
   10.5655   46.6107  136.1028 F   0  0  0  0  0  0  0  0  0  0  0  0
   12.8743   45.3098  134.5674 C   0  0  0  0  0  0  0  0  0  0  0  0
   11.5576   44.6805  134.3268 C   0  0  0  0  0  0  0  0  0  0  0  0
   11.0805   43.6637  135.3603 C   0  0  0  0  0  0  0  0  0  0  0  0
 22 23  1  0  0  0
 23 24  1  0  0  0
 23  1  1  0  0  0
  1  2  1  0  0  0
  2  3  2  0  0  0
  3 10  1  0  0  0
 10 11  2  0  0  0
 11 12  1  0  0  0
 12 13  2  0  0  0
 13 14  1  0  0  0
 13 15  1  0  0  0
 15 16  2  0  0  0
  3  4  1  0  0  0
  4  5  2  0  0  0
  5  6  1  0  0  0
  6  7  2  0  0  0
  7  8  1  0  0  0
  8  9  2  0  0  0
  8 18  1  0  0  0
 18 19  1  0  0  0
 18 20  1  0  0  0
 18 21  1  0  0  0
  9  1  1  0  0  0
 16 10  1  0  0  0
  9  4  1  0  0  0
 14 17  1  0  0  0
M  END
> <minimizedAffinity>
3.30293

> <CNNscore>
0.3523866832

> <CNNaffinity>
6.8172836304

> <CNN_VS>
2.4023199081

> <CNNaffinity_variance>
1.8330215216

$$$$
[H]Oc1c([H])c([H])c(-c2nn(C([H])(C([H])([H])[H])C([H])([H])[H])c3c(C(F)(F)F)c([H])c([H])c([H])c23)c([H])c1[H]


 24 26  0  0  0  0  0  0  0  0999 V2000
    9.4163   47.7412  130.9260 N   0  0  0  0  0  0  0  0  0  0  0  0
   10.6521   47.1825  131.0778 N   0  0  0  0  0  0  0  0  0  0  0  0
   10.8292   46.0972  130.3490 C   0  0  0  0  0  0  0  0  0  0  0  0
    9.6578   45.9111  129.6706 C   0  0  0  0  0  0  0  0  0  0  0  0
    9.2843   44.9819  128.7222 C   0  0  0  0  0  0  0  0  0  0  0  0
    8.0573   45.0586  128.1434 C   0  0  0  0  0  0  0  0  0  0  0  0
    7.2248   46.0518  128.5206 C   0  0  0  0  0  0  0  0  0  0  0  0
    7.5406   47.0556  129.5041 C   0  0  0  0  0  0  0  0  0  0  0  0
    8.7865   46.9467  130.0513 C   0  0  0  0  0  0  0  0  0  0  0  0
   12.0090   45.2453  130.2439 C   0  0  0  0  0  0  0  0  0  0  0  0
   12.4132   44.5186  131.3223 C   0  0  0  0  0  0  0  0  0  0  0  0
   13.5468   43.7073  131.1736 C   0  0  0  0  0  0  0  0  0  0  0  0
   14.2071   43.6639  129.9780 C   0  0  0  0  0  0  0  0  0  0  0  0
   15.3251   42.8494  129.8684 O   0  0  0  0  0  0  0  0  0  0  0  0
   13.8061   44.3906  128.8946 C   0  0  0  0  0  0  0  0  0  0  0  0
   12.6828   45.1950  129.0406 C   0  0  0  0  0  0  0  0  0  0  0  0
   15.6645   42.2879  130.6471 H   0  0  0  0  0  0  0  0  0  0  0  0
    6.4765   47.9123  129.9188 C   0  0  0  0  0  0  0  0  0  0  0  0
    5.2733   47.6648  129.1722 F   0  0  0  0  0  0  0  0  0  0  0  0
    5.9384   46.8171  130.8992 F   0  0  0  0  0  0  0  0  0  0  0  0
    6.2859   48.7406  130.8954 F   0  0  0  0  0  0  0  0  0  0  0  0
    8.8321   50.2354  130.8086 C   0  0  0  0  0  0  0  0  0  0  0  0
    9.0427   48.9583  131.5241 C   0  0  0  0  0  0  0  0  0  0  0  0
    8.7890   48.9614  133.0291 C   0  0  0  0  0  0  0  0  0  0  0  0
 22 23  1  0  0  0
 23 24  1  0  0  0
 23  1  1  0  0  0
  1  2  1  0  0  0
  2  3  2  0  0  0
  3 10  1  0  0  0
 10 11  2  0  0  0
 11 12  1  0  0  0
 12 13  2  0  0  0
 13 14  1  0  0  0
 13 15  1  0  0  0
 15 16  2  0  0  0
  3  4  1  0  0  0
  4  5  2  0  0  0
  5  6  1  0  0  0
  6  7  2  0  0  0
  7  8  1  0  0  0
  8  9  2  0  0  0
  8 18  1  0  0  0
 18 19  1  0  0  0
 18 20  1  0  0  0
 18 21  1  0  0  0
  9  1  1  0  0  0
 16 10  1  0  0  0
  9  4  1  0  0  0
 14 17  1  0  0  0
M  END
> <minimizedAffinity>
6.09528

> <CNNscore>
0.3187562823

> <CNNaffinity>
6.5430984497

> <CNN_VS>
2.0856537819

> <CNNaffinity_variance>
1.8314220905

$$$$
[H]Oc1c([H])c([H])c(-c2nn(C([H])(C([H])([H])[H])C([H])([H])[H])c3c(C(F)(F)F)c([H])c([H])c([H])c23)c([H])c1[H]


 24 26  0  0  0  0  0  0  0  0999 V2000
    8.9705   47.8514  131.3040 N   0  0  0  0  0  0  0  0  0  0  0  0
    9.2030   47.1040  130.1861 N   0  0  0  0  0  0  0  0  0  0  0  0
    9.3685   45.8200  130.4398 C   0  0  0  0  0  0  0  0  0  0  0  0
    9.2423   45.6906  131.7941 C   0  0  0  0  0  0  0  0  0  0  0  0
    9.2572   44.5826  132.6155 C   0  0  0  0  0  0  0  0  0  0  0  0
    9.0382   44.7234  133.9491 C   0  0  0  0  0  0  0  0  0  0  0  0
    8.8140   45.9601  134.4410 C   0  0  0  0  0  0  0  0  0  0  0  0
    8.7861   47.1633  133.6498 C   0  0  0  0  0  0  0  0  0  0  0  0
    9.0001   46.9738  132.3149 C   0  0  0  0  0  0  0  0  0  0  0  0
    9.6237   44.7264  129.5083 C   0  0  0  0  0  0  0  0  0  0  0  0
   10.4778   44.9159  128.4648 C   0  0  0  0  0  0  0  0  0  0  0  0
   10.6999   43.8352  127.5999 C   0  0  0  0  0  0  0  0  0  0  0  0
   10.0693   42.6425  127.8167 C   0  0  0  0  0  0  0  0  0  0  0  0
   10.3138   41.5954  126.9396 O   0  0  0  0  0  0  0  0  0  0  0  0
    9.2123   42.4478  128.8609 C   0  0  0  0  0  0  0  0  0  0  0  0
    8.9914   43.5179  129.7188 C   0  0  0  0  0  0  0  0  0  0  0  0
   10.9444   41.6899  126.1458 H   0  0  0  0  0  0  0  0  0  0  0  0
    8.7265   48.4018  134.3575 C   0  0  0  0  0  0  0  0  0  0  0  0
    7.8308   48.3301  135.4795 F   0  0  0  0  0  0  0  0  0  0  0  0
    9.8196   47.9117  135.3651 F   0  0  0  0  0  0  0  0  0  0  0  0
    9.3901   49.5132  134.3300 F   0  0  0  0  0  0  0  0  0  0  0  0
    9.5638   50.3166  131.6876 C   0  0  0  0  0  0  0  0  0  0  0  0
    8.6629   49.2234  131.2627 C   0  0  0  0  0  0  0  0  0  0  0  0
    7.3064   49.6301  130.6932 C   0  0  0  0  0  0  0  0  0  0  0  0
 22 23  1  0  0  0
 23 24  1  0  0  0
 23  1  1  0  0  0
  1  2  1  0  0  0
  2  3  2  0  0  0
  3 10  1  0  0  0
 10 11  2  0  0  0
 11 12  1  0  0  0
 12 13  2  0  0  0
 13 14  1  0  0  0
 13 15  1  0  0  0
 15 16  2  0  0  0
  3  4  1  0  0  0
  4  5  2  0  0  0
  5  6  1  0  0  0
  6  7  2  0  0  0
  7  8  1  0  0  0
  8  9  2  0  0  0
  8 18  1  0  0  0
 18 19  1  0  0  0
 18 20  1  0  0  0
 18 21  1  0  0  0
  9  1  1  0  0  0
 16 10  1  0  0  0
  9  4  1  0  0  0
 14 17  1  0  0  0
M  END
> <minimizedAffinity>
-0.45218

> <CNNscore>
0.2976029515

> <CNNaffinity>
6.9870347977

> <CNN_VS>
2.0793621540

> <CNNaffinity_variance>
1.6187226772

$$$$
[H]Oc1c([H])c([H])c([H])c(N2C([H])(c3c([H])c([H])c(N4C([H])([H])C([H])([H])N(C([H])([H])C([H])(C([H])([H])[H])C([H])([H])[H])C([H])([H])C4([H])[H])c([H])c3[H])c3c([H])c([H])c(O[H])c([H])c3C([H])([H])C2([H])[H])c1[H]


 36 40  0  0  0  0  0  0  0  0999 V2000
    9.6109   44.4683  130.9062 C   0  0  0  0  0  0  0  0  0  0  0  0
    9.6426   44.3319  132.3566 N   0  0  0  0  0  0  0  0  0  0  0  0
   10.3025   45.4100  133.0733 C   0  0  0  0  0  0  0  0  0  0  0  0
   11.5698   45.8820  132.4030 C   0  0  0  0  0  0  0  0  0  0  0  0
   11.9423   45.0814  131.2181 C   0  0  0  0  0  0  0  0  0  0  0  0
   13.2860   45.0457  130.8629 C   0  0  0  0  0  0  0  0  0  0  0  0
   13.6930   44.3157  129.7690 C   0  0  0  0  0  0  0  0  0  0  0  0
   15.0465   44.3069  129.4484 O   0  0  0  0  0  0  0  0  0  0  0  0
   12.7696   43.6111  129.0132 C   0  0  0  0  0  0  0  0  0  0  0  0
   11.4354   43.6457  129.3647 C   0  0  0  0  0  0  0  0  0  0  0  0
   11.0413   44.3798  130.4612 C   0  0  0  0  0  0  0  0  0  0  0  0
   15.4151   43.7976  128.6661 H   0  0  0  0  0  0  0  0  0  0  0  0
    9.0802   43.2191  133.0319 C   0  0  0  0  0  0  0  0  0  0  0  0
    9.7722   42.5424  134.0093 C   0  0  0  0  0  0  0  0  0  0  0  0
    9.2148   41.4377  134.6617 C   0  0  0  0  0  0  0  0  0  0  0  0
    7.9584   40.9925  134.3481 C   0  0  0  0  0  0  0  0  0  0  0  0
    7.2635   41.6549  133.3817 C   0  0  0  0  0  0  0  0  0  0  0  0
    5.9872   41.2551  133.0174 O   0  0  0  0  0  0  0  0  0  0  0  0
    7.8128   42.7551  132.7283 C   0  0  0  0  0  0  0  0  0  0  0  0
    5.8475   40.5714  132.2693 H   0  0  0  0  0  0  0  0  0  0  0  0
    8.1223   48.3074  129.7887 C   0  0  0  0  0  0  0  0  0  0  0  0
    9.3940   47.8955  129.4182 C   0  0  0  0  0  0  0  0  0  0  0  0
    9.8596   46.6485  129.7868 C   0  0  0  0  0  0  0  0  0  0  0  0
    9.0875   45.8033  130.5156 C   0  0  0  0  0  0  0  0  0  0  0  0
    7.8341   46.1853  130.8917 C   0  0  0  0  0  0  0  0  0  0  0  0
    7.3420   47.4407  130.5308 C   0  0  0  0  0  0  0  0  0  0  0  0
    7.1307   52.0998  128.4182 N   0  0  0  0  0  0  0  0  0  0  0  0
    6.2094   51.0115  128.1360 C   0  0  0  0  0  0  0  0  0  0  0  0
    7.0865   49.7515  128.0684 C   0  0  0  0  0  0  0  0  0  0  0  0
    7.6423   49.5977  129.3990 N   0  0  0  0  0  0  0  0  0  0  0  0
    7.7429   50.6698  130.3463 C   0  0  0  0  0  0  0  0  0  0  0  0
    7.6102   52.0464  129.7573 C   0  0  0  0  0  0  0  0  0  0  0  0
    6.5316   53.3877  128.1530 C   0  0  0  0  0  0  0  0  0  0  0  0
    5.8322   54.6616  126.1400 C   0  0  0  0  0  0  0  0  0  0  0  0
    6.9296   53.8088  126.7563 C   0  0  0  0  0  0  0  0  0  0  0  0
    8.1830   54.6607  126.7709 C   0  0  0  0  0  0  0  0  0  0  0  0
 34 35  1  0  0  0
 35 36  1  0  0  0
 35 33  1  0  0  0
 33 27  1  0  0  0
 27 28  1  0  0  0
 28 29  1  0  0  0
 29 30  1  0  0  0
 30 31  1  0  0  0
 31 32  1  0  0  0
 30 21  1  0  0  0
 21 22  2  0  0  0
 22 23  1  0  0  0
 23 24  2  0  0  0
 24 25  1  0  0  0
 25 26  2  0  0  0
 24  1  1  0  0  0
  1  2  1  0  0  0
  2  3  1  0  0  0
  3  4  1  0  0  0
  4  5  1  0  0  0
  5  6  2  0  0  0
  6  7  1  0  0  0
  7  8  1  0  0  0
  7  9  2  0  0  0
  9 10  1  0  0  0
 10 11  2  0  0  0
  2 13  1  0  0  0
 13 14  2  0  0  0
 14 15  1  0  0  0
 15 16  2  0  0  0
 16 17  1  0  0  0
 17 18  1  0  0  0
 17 19  2  0  0  0
 32 27  1  0  0  0
 26 21  1  0  0  0
 11  1  1  0  0  0
 19 13  1  0  0  0
 11  5  1  0  0  0
  8 12  1  0  0  0
 18 20  1  0  0  0
M  END
> <minimizedAffinity>
15.31431

> <CNNscore>
0.3832903802

> <CNNaffinity>
7.3240470886

> <CNN_VS>
2.8072369099

> <CNNaffinity_variance>
1.9458706379

$$$$
[H]Oc1c([H])c([H])c([H])c(N2C([H])(c3c([H])c([H])c(N4C([H])([H])C([H])([H])N(C([H])([H])C([H])(C([H])([H])[H])C([H])([H])[H])C([H])([H])C4([H])[H])c([H])c3[H])c3c([H])c([H])c(O[H])c([H])c3C([H])([H])C2([H])[H])c1[H]


 36 40  0  0  0  0  0  0  0  0999 V2000
    9.8113   46.7140  131.2419 C   0  0  0  0  0  0  0  0  0  0  0  0
    8.9413   46.0937  132.2327 N   0  0  0  0  0  0  0  0  0  0  0  0
    7.8220   45.3369  131.6981 C   0  0  0  0  0  0  0  0  0  0  0  0
    7.1516   46.0131  130.5269 C   0  0  0  0  0  0  0  0  0  0  0  0
    7.6952   47.3552  130.2320 C   0  0  0  0  0  0  0  0  0  0  0  0
    6.8576   48.2616  129.5920 C   0  0  0  0  0  0  0  0  0  0  0  0
    7.3084   49.5274  129.2924 C   0  0  0  0  0  0  0  0  0  0  0  0
    6.4382   50.4031  128.6516 O   0  0  0  0  0  0  0  0  0  0  0  0
    8.5983   49.9094  129.6252 C   0  0  0  0  0  0  0  0  0  0  0  0
    9.4308   49.0105  130.2606 C   0  0  0  0  0  0  0  0  0  0  0  0
    8.9676   47.7474  130.5546 C   0  0  0  0  0  0  0  0  0  0  0  0
    6.6975   51.3402  128.4027 H   0  0  0  0  0  0  0  0  0  0  0  0
    9.1575   46.2243  133.6281 C   0  0  0  0  0  0  0  0  0  0  0  0
    8.7020   47.3159  134.3302 C   0  0  0  0  0  0  0  0  0  0  0  0
    8.9305   47.4430  135.7044 C   0  0  0  0  0  0  0  0  0  0  0  0
    9.6170   46.4821  136.3976 C   0  0  0  0  0  0  0  0  0  0  0  0
   10.0729   45.3964  135.7128 C   0  0  0  0  0  0  0  0  0  0  0  0
   10.7745   44.3884  136.3554 O   0  0  0  0  0  0  0  0  0  0  0  0
    9.8488   45.2641  134.3448 C   0  0  0  0  0  0  0  0  0  0  0  0
   11.7938   44.4290  136.4332 H   0  0  0  0  0  0  0  0  0  0  0  0
   11.0610   43.8536  128.3334 C   0  0  0  0  0  0  0  0  0  0  0  0
   11.0040   43.5287  129.6806 C   0  0  0  0  0  0  0  0  0  0  0  0
   10.5954   44.4663  130.6089 C   0  0  0  0  0  0  0  0  0  0  0  0
   10.2424   45.7193  130.2255 C   0  0  0  0  0  0  0  0  0  0  0  0
   10.2901   46.0627  128.9070 C   0  0  0  0  0  0  0  0  0  0  0  0
   10.6998   45.1319  127.9508 C   0  0  0  0  0  0  0  0  0  0  0  0
   12.5215   40.8223  125.9000 N   0  0  0  0  0  0  0  0  0  0  0  0
   11.0801   40.9824  125.9971 C   0  0  0  0  0  0  0  0  0  0  0  0
   10.8362   41.5771  127.3928 C   0  0  0  0  0  0  0  0  0  0  0  0
   11.4790   42.8770  127.3750 N   0  0  0  0  0  0  0  0  0  0  0  0
   12.5162   43.2372  126.4523 C   0  0  0  0  0  0  0  0  0  0  0  0
   13.1802   42.0768  125.7652 C   0  0  0  0  0  0  0  0  0  0  0  0
   12.8884   39.9458  124.8113 C   0  0  0  0  0  0  0  0  0  0  0  0
   12.9731   38.2167  126.5908 C   0  0  0  0  0  0  0  0  0  0  0  0
   12.4830   38.5387  125.1881 C   0  0  0  0  0  0  0  0  0  0  0  0
   10.9755   38.3839  125.2102 C   0  0  0  0  0  0  0  0  0  0  0  0
 34 35  1  0  0  0
 35 36  1  0  0  0
 35 33  1  0  0  0
 33 27  1  0  0  0
 27 28  1  0  0  0
 28 29  1  0  0  0
 29 30  1  0  0  0
 30 31  1  0  0  0
 31 32  1  0  0  0
 30 21  1  0  0  0
 21 22  2  0  0  0
 22 23  1  0  0  0
 23 24  2  0  0  0
 24 25  1  0  0  0
 25 26  2  0  0  0
 24  1  1  0  0  0
  1  2  1  0  0  0
  2  3  1  0  0  0
  3  4  1  0  0  0
  4  5  1  0  0  0
  5  6  2  0  0  0
  6  7  1  0  0  0
  7  8  1  0  0  0
  7  9  2  0  0  0
  9 10  1  0  0  0
 10 11  2  0  0  0
  2 13  1  0  0  0
 13 14  2  0  0  0
 14 15  1  0  0  0
 15 16  2  0  0  0
 16 17  1  0  0  0
 17 18  1  0  0  0
 17 19  2  0  0  0
 32 27  1  0  0  0
 26 21  1  0  0  0
 11  1  1  0  0  0
 19 13  1  0  0  0
 11  5  1  0  0  0
  8 12  1  0  0  0
 18 20  1  0  0  0
M  END
> <minimizedAffinity>
22.61019

> <CNNscore>
0.3028854728

> <CNNaffinity>
7.6285657883

> <CNN_VS>
2.3105816841

> <CNNaffinity_variance>
1.2465895414

$$$$
[H]Oc1c([H])c([H])c([H])c(N2C([H])(c3c([H])c([H])c(N4C([H])([H])C([H])([H])N(C([H])([H])C([H])(C([H])([H])[H])C([H])([H])[H])C([H])([H])C4([H])[H])c([H])c3[H])c3c([H])c([H])c(O[H])c([H])c3C([H])([H])C2([H])[H])c1[H]


 36 40  0  0  0  0  0  0  0  0999 V2000
    9.5203   46.5042  130.6987 C   0  0  0  0  0  0  0  0  0  0  0  0
    9.0354   46.1468  132.0255 N   0  0  0  0  0  0  0  0  0  0  0  0
    7.9135   45.2238  132.0553 C   0  0  0  0  0  0  0  0  0  0  0  0
    6.8722   45.5186  131.0031 C   0  0  0  0  0  0  0  0  0  0  0  0
    7.1474   46.7481  130.2308 C   0  0  0  0  0  0  0  0  0  0  0  0
    6.0633   47.4042  129.6589 C   0  0  0  0  0  0  0  0  0  0  0  0
    6.2580   48.5551  128.9291 C   0  0  0  0  0  0  0  0  0  0  0  0
    5.1463   49.1801  128.3739 O   0  0  0  0  0  0  0  0  0  0  0  0
    7.5333   49.0696  128.7579 C   0  0  0  0  0  0  0  0  0  0  0  0
    8.6104   48.4192  129.3252 C   0  0  0  0  0  0  0  0  0  0  0  0
    8.4020   47.2688  130.0528 C   0  0  0  0  0  0  0  0  0  0  0  0
    5.2120   50.0214  127.8306 H   0  0  0  0  0  0  0  0  0  0  0  0
    9.6061   46.6690  133.2140 C   0  0  0  0  0  0  0  0  0  0  0  0
   10.3239   47.8423  133.2151 C   0  0  0  0  0  0  0  0  0  0  0  0
   10.8944   48.3440  134.3897 C   0  0  0  0  0  0  0  0  0  0  0  0
   10.7564   47.6817  135.5803 C   0  0  0  0  0  0  0  0  0  0  0  0
   10.0474   46.5186  135.5914 C   0  0  0  0  0  0  0  0  0  0  0  0
    9.8706   45.7999  136.7634 O   0  0  0  0  0  0  0  0  0  0  0  0
    9.4773   46.0138  134.4255 C   0  0  0  0  0  0  0  0  0  0  0  0
   10.5410   45.0781  137.0398 H   0  0  0  0  0  0  0  0  0  0  0  0
   10.2667   43.0032  128.3773 C   0  0  0  0  0  0  0  0  0  0  0  0
   10.3956   42.9891  129.7583 C   0  0  0  0  0  0  0  0  0  0  0  0
   10.1483   44.1311  130.4949 C   0  0  0  0  0  0  0  0  0  0  0  0
    9.7757   45.2858  129.8871 C   0  0  0  0  0  0  0  0  0  0  0  0
    9.6423   45.3248  128.5309 C   0  0  0  0  0  0  0  0  0  0  0  0
    9.8868   44.1832  127.7657 C   0  0  0  0  0  0  0  0  0  0  0  0
   10.6574   39.7038  125.8864 N   0  0  0  0  0  0  0  0  0  0  0  0
   11.8390   40.5131  126.1346 C   0  0  0  0  0  0  0  0  0  0  0  0
   11.3054   41.9282  126.4068 C   0  0  0  0  0  0  0  0  0  0  0  0
   10.5181   41.8160  127.6194 N   0  0  0  0  0  0  0  0  0  0  0  0
    9.9715   40.5800  128.0997 C   0  0  0  0  0  0  0  0  0  0  0  0
    9.9179   39.4759  127.0810 C   0  0  0  0  0  0  0  0  0  0  0  0
   10.9947   38.4460  125.2600 C   0  0  0  0  0  0  0  0  0  0  0  0
    8.6233   38.5731  124.5360 C   0  0  0  0  0  0  0  0  0  0  0  0
   10.0406   38.2281  124.1074 C   0  0  0  0  0  0  0  0  0  0  0  0
   10.3709   39.1322  122.9367 C   0  0  0  0  0  0  0  0  0  0  0  0
 34 35  1  0  0  0
 35 36  1  0  0  0
 35 33  1  0  0  0
 33 27  1  0  0  0
 27 28  1  0  0  0
 28 29  1  0  0  0
 29 30  1  0  0  0
 30 31  1  0  0  0
 31 32  1  0  0  0
 30 21  1  0  0  0
 21 22  2  0  0  0
 22 23  1  0  0  0
 23 24  2  0  0  0
 24 25  1  0  0  0
 25 26  2  0  0  0
 24  1  1  0  0  0
  1  2  1  0  0  0
  2  3  1  0  0  0
  3  4  1  0  0  0
  4  5  1  0  0  0
  5  6  2  0  0  0
  6  7  1  0  0  0
  7  8  1  0  0  0
  7  9  2  0  0  0
  9 10  1  0  0  0
 10 11  2  0  0  0
  2 13  1  0  0  0
 13 14  2  0  0  0
 14 15  1  0  0  0
 15 16  2  0  0  0
 16 17  1  0  0  0
 17 18  1  0  0  0
 17 19  2  0  0  0
 32 27  1  0  0  0
 26 21  1  0  0  0
 11  1  1  0  0  0
 19 13  1  0  0  0
 11  5  1  0  0  0
  8 12  1  0  0  0
 18 20  1  0  0  0
M  END
> <minimizedAffinity>
25.93389

> <CNNscore>
0.2711769938

> <CNNaffinity>
7.2279891968

> <CNN_VS>
1.9600644112

> <CNNaffinity_variance>
0.8075903654

$$$$
[H]Oc1c([H])c([H])c([H])c(N2C([H])(c3c([H])c([H])c(N4C([H])([H])C([H])([H])N(C([H])([H])C([H])(C([H])([H])[H])C([H])([H])[H])C([H])([H])C4([H])[H])c([H])c3[H])c3c([H])c([H])c(O[H])c([H])c3C([H])([H])C2([H])[H])c1[H]


 36 40  0  0  0  0  0  0  0  0999 V2000
    8.9598   44.8694  131.0724 C   0  0  0  0  0  0  0  0  0  0  0  0
    8.3966   46.0557  130.4408 N   0  0  0  0  0  0  0  0  0  0  0  0
    9.3021   46.7969  129.5794 C   0  0  0  0  0  0  0  0  0  0  0  0
   10.6954   46.9203  130.1464 C   0  0  0  0  0  0  0  0  0  0  0  0
   10.8285   46.3618  131.5080 C   0  0  0  0  0  0  0  0  0  0  0  0
   11.8339   46.8765  132.3186 C   0  0  0  0  0  0  0  0  0  0  0  0
   12.0053   46.3961  133.5972 C   0  0  0  0  0  0  0  0  0  0  0  0
   13.0230   46.9385  134.3749 O   0  0  0  0  0  0  0  0  0  0  0  0
   11.1793   45.3971  134.0876 C   0  0  0  0  0  0  0  0  0  0  0  0
   10.1808   44.8853  133.2839 C   0  0  0  0  0  0  0  0  0  0  0  0
   10.0200   45.3746  132.0067 C   0  0  0  0  0  0  0  0  0  0  0  0
   13.2063   46.6379  135.3147 H   0  0  0  0  0  0  0  0  0  0  0  0
    7.0587   46.4735  130.6557 C   0  0  0  0  0  0  0  0  0  0  0  0
    6.6390   46.9530  131.8747 C   0  0  0  0  0  0  0  0  0  0  0  0
    5.3142   47.3513  132.0819 C   0  0  0  0  0  0  0  0  0  0  0  0
    4.3891   47.2768  131.0751 C   0  0  0  0  0  0  0  0  0  0  0  0
    4.7931   46.8036  129.8633 C   0  0  0  0  0  0  0  0  0  0  0  0
    3.9062   46.7031  128.8028 O   0  0  0  0  0  0  0  0  0  0  0  0
    6.1105   46.4053  129.6507 C   0  0  0  0  0  0  0  0  0  0  0  0
    3.3653   45.8476  128.6534 H   0  0  0  0  0  0  0  0  0  0  0  0
   10.8289   42.3498  128.1808 C   0  0  0  0  0  0  0  0  0  0  0  0
    9.5790   42.0433  128.6983 C   0  0  0  0  0  0  0  0  0  0  0  0
    8.9874   42.8710  129.6325 C   0  0  0  0  0  0  0  0  0  0  0  0
    9.6124   43.9963  130.0623 C   0  0  0  0  0  0  0  0  0  0  0  0
   10.8413   44.3190  129.5684 C   0  0  0  0  0  0  0  0  0  0  0  0
   11.4589   43.4978  128.6235 C   0  0  0  0  0  0  0  0  0  0  0  0
   12.8591   39.7024  125.7084 N   0  0  0  0  0  0  0  0  0  0  0  0
   11.4108   39.5982  125.7740 C   0  0  0  0  0  0  0  0  0  0  0  0
   11.0364   40.0984  127.1779 C   0  0  0  0  0  0  0  0  0  0  0  0
   11.4348   41.4925  127.2087 N   0  0  0  0  0  0  0  0  0  0  0  0
   12.4080   42.0599  126.3211 C   0  0  0  0  0  0  0  0  0  0  0  0
   13.2836   41.0582  125.6215 C   0  0  0  0  0  0  0  0  0  0  0  0
   13.3993   38.9382  124.6073 C   0  0  0  0  0  0  0  0  0  0  0  0
   11.2741   37.7896  125.1804 C   0  0  0  0  0  0  0  0  0  0  0  0
   12.3077   38.0281  124.0912 C   0  0  0  0  0  0  0  0  0  0  0  0
   11.5703   38.6542  122.9244 C   0  0  0  0  0  0  0  0  0  0  0  0
 34 35  1  0  0  0
 35 36  1  0  0  0
 35 33  1  0  0  0
 33 27  1  0  0  0
 27 28  1  0  0  0
 28 29  1  0  0  0
 29 30  1  0  0  0
 30 31  1  0  0  0
 31 32  1  0  0  0
 30 21  1  0  0  0
 21 22  2  0  0  0
 22 23  1  0  0  0
 23 24  2  0  0  0
 24 25  1  0  0  0
 25 26  2  0  0  0
 24  1  1  0  0  0
  1  2  1  0  0  0
  2  3  1  0  0  0
  3  4  1  0  0  0
  4  5  1  0  0  0
  5  6  2  0  0  0
  6  7  1  0  0  0
  7  8  1  0  0  0
  7  9  2  0  0  0
  9 10  1  0  0  0
 10 11  2  0  0  0
  2 13  1  0  0  0
 13 14  2  0  0  0
 14 15  1  0  0  0
 15 16  2  0  0  0
 16 17  1  0  0  0
 17 18  1  0  0  0
 17 19  2  0  0  0
 32 27  1  0  0  0
 26 21  1  0  0  0
 11  1  1  0  0  0
 19 13  1  0  0  0
 11  5  1  0  0  0
  8 12  1  0  0  0
 18 20  1  0  0  0
M  END
> <minimizedAffinity>
58.32335

> <CNNscore>
0.2600460947

> <CNNaffinity>
7.0973677635

> <CNN_VS>
1.8456428051

> <CNNaffinity_variance>
2.0450854301

$$$$
[H]Oc1c([H])c([H])c([H])c(N2C([H])(c3c([H])c([H])c(N4C([H])([H])C([H])([H])N(C([H])([H])C([H])(C([H])([H])[H])C([H])([H])[H])C([H])([H])C4([H])[H])c([H])c3[H])c3c([H])c([H])c(O[H])c([H])c3C([H])([H])C2([H])[H])c1[H]


 36 40  0  0  0  0  0  0  0  0999 V2000
    8.7940   44.2448  130.6856 C   0  0  0  0  0  0  0  0  0  0  0  0
    9.0101   44.2698  132.1265 N   0  0  0  0  0  0  0  0  0  0  0  0
    9.5035   45.5262  132.6646 C   0  0  0  0  0  0  0  0  0  0  0  0
   10.5639   46.1673  131.8028 C   0  0  0  0  0  0  0  0  0  0  0  0
   10.9653   45.3369  130.6482 C   0  0  0  0  0  0  0  0  0  0  0  0
   12.2403   45.5313  130.1290 C   0  0  0  0  0  0  0  0  0  0  0  0
   12.6703   44.7861  129.0543 C   0  0  0  0  0  0  0  0  0  0  0  0
   13.9529   45.0122  128.5658 O   0  0  0  0  0  0  0  0  0  0  0  0
   11.8386   43.8374  128.4810 C   0  0  0  0  0  0  0  0  0  0  0  0
   10.5726   43.6435  128.9955 C   0  0  0  0  0  0  0  0  0  0  0  0
   10.1546   44.3955  130.0708 C   0  0  0  0  0  0  0  0  0  0  0  0
   14.3332   44.5071  127.7863 H   0  0  0  0  0  0  0  0  0  0  0  0
    8.7694   43.1444  132.9549 C   0  0  0  0  0  0  0  0  0  0  0  0
    9.7662   42.5841  133.7194 C   0  0  0  0  0  0  0  0  0  0  0  0
    9.5232   41.4662  134.5242 C   0  0  0  0  0  0  0  0  0  0  0  0
    8.2815   40.8913  134.5777 C   0  0  0  0  0  0  0  0  0  0  0  0
    7.2863   41.4376  133.8249 C   0  0  0  0  0  0  0  0  0  0  0  0
    6.0072   40.9036  133.8341 O   0  0  0  0  0  0  0  0  0  0  0  0
    7.5218   42.5503  133.0214 C   0  0  0  0  0  0  0  0  0  0  0  0
    5.7410   40.1736  133.1685 H   0  0  0  0  0  0  0  0  0  0  0  0
    6.4238   47.5739  129.4597 C   0  0  0  0  0  0  0  0  0  0  0  0
    7.6194   47.2719  128.8245 C   0  0  0  0  0  0  0  0  0  0  0  0
    8.3736   46.1892  129.2329 C   0  0  0  0  0  0  0  0  0  0  0  0
    7.9638   45.4013  130.2590 C   0  0  0  0  0  0  0  0  0  0  0  0
    6.7924   45.6776  130.8991 C   0  0  0  0  0  0  0  0  0  0  0  0
    6.0133   46.7665  130.5039 C   0  0  0  0  0  0  0  0  0  0  0  0
    3.8070   50.6407  128.4645 N   0  0  0  0  0  0  0  0  0  0  0  0
    5.0757   51.0000  129.0763 C   0  0  0  0  0  0  0  0  0  0  0  0
    5.4535   49.7951  129.9520 C   0  0  0  0  0  0  0  0  0  0  0  0
    5.6431   48.6928  129.0289 N   0  0  0  0  0  0  0  0  0  0  0  0
    5.0863   48.6589  127.7076 C   0  0  0  0  0  0  0  0  0  0  0  0
    3.9713   49.6380  127.4677 C   0  0  0  0  0  0  0  0  0  0  0  0
    3.1382   51.7942  127.9074 C   0  0  0  0  0  0  0  0  0  0  0  0
    0.8275   51.2453  127.1839 C   0  0  0  0  0  0  0  0  0  0  0  0
    2.2831   51.3249  126.7520 C   0  0  0  0  0  0  0  0  0  0  0  0
    2.3376   52.2983  125.5916 C   0  0  0  0  0  0  0  0  0  0  0  0
 34 35  1  0  0  0
 35 36  1  0  0  0
 35 33  1  0  0  0
 33 27  1  0  0  0
 27 28  1  0  0  0
 28 29  1  0  0  0
 29 30  1  0  0  0
 30 31  1  0  0  0
 31 32  1  0  0  0
 30 21  1  0  0  0
 21 22  2  0  0  0
 22 23  1  0  0  0
 23 24  2  0  0  0
 24 25  1  0  0  0
 25 26  2  0  0  0
 24  1  1  0  0  0
  1  2  1  0  0  0
  2  3  1  0  0  0
  3  4  1  0  0  0
  4  5  1  0  0  0
  5  6  2  0  0  0
  6  7  1  0  0  0
  7  8  1  0  0  0
  7  9  2  0  0  0
  9 10  1  0  0  0
 10 11  2  0  0  0
  2 13  1  0  0  0
 13 14  2  0  0  0
 14 15  1  0  0  0
 15 16  2  0  0  0
 16 17  1  0  0  0
 17 18  1  0  0  0
 17 19  2  0  0  0
 32 27  1  0  0  0
 26 21  1  0  0  0
 11  1  1  0  0  0
 19 13  1  0  0  0
 11  5  1  0  0  0
  8 12  1  0  0  0
 18 20  1  0  0  0
M  END
> <minimizedAffinity>
24.45907

> <CNNscore>
0.2298175246

> <CNNaffinity>
7.0185670853

> <CNN_VS>
1.6129896641

> <CNNaffinity_variance>
1.4097679853

$$$$
[H]Oc1c([H])c([H])c([H])c(N2C([H])(c3c([H])c([H])c(N4C([H])([H])C([H])([H])N(C([H])([H])C([H])(C([H])([H])[H])C([H])([H])[H])C([H])([H])C4([H])[H])c([H])c3[H])c3c([H])c([H])c(O[H])c([H])c3C([H])([H])C2([H])[H])c1[H]


 36 40  0  0  0  0  0  0  0  0999 V2000
    9.4293   45.3601  131.5259 C   0  0  0  0  0  0  0  0  0  0  0  0
    8.4424   44.8780  132.4836 N   0  0  0  0  0  0  0  0  0  0  0  0
    8.0375   45.8332  133.5009 C   0  0  0  0  0  0  0  0  0  0  0  0
    9.1883   46.6393  134.0522 C   0  0  0  0  0  0  0  0  0  0  0  0
   10.5051   46.2192  133.5293 C   0  0  0  0  0  0  0  0  0  0  0  0
   11.6210   46.4730  134.3188 C   0  0  0  0  0  0  0  0  0  0  0  0
   12.8739   46.1032  133.8845 C   0  0  0  0  0  0  0  0  0  0  0  0
   13.9635   46.3758  134.7050 O   0  0  0  0  0  0  0  0  0  0  0  0
   13.0346   45.4760  132.6592 C   0  0  0  0  0  0  0  0  0  0  0  0
   11.9276   45.2234  131.8746 C   0  0  0  0  0  0  0  0  0  0  0  0
   10.6798   45.5984  132.3206 C   0  0  0  0  0  0  0  0  0  0  0  0
   14.9050   46.1352  134.4540 H   0  0  0  0  0  0  0  0  0  0  0  0
    7.9154   43.5622  132.4408 C   0  0  0  0  0  0  0  0  0  0  0  0
    7.8357   42.8543  131.2642 C   0  0  0  0  0  0  0  0  0  0  0  0
    7.3028   41.5615  131.2287 C   0  0  0  0  0  0  0  0  0  0  0  0
    6.8419   40.9565  132.3674 C   0  0  0  0  0  0  0  0  0  0  0  0
    6.9158   41.6479  133.5387 C   0  0  0  0  0  0  0  0  0  0  0  0
    6.4667   41.0925  134.7267 O   0  0  0  0  0  0  0  0  0  0  0  0
    7.4450   42.9353  133.5807 C   0  0  0  0  0  0  0  0  0  0  0  0
    5.4969   41.2171  135.0279 H   0  0  0  0  0  0  0  0  0  0  0  0
    8.1925   49.0848  129.8526 C   0  0  0  0  0  0  0  0  0  0  0  0
    8.6028   48.9933  131.1745 C   0  0  0  0  0  0  0  0  0  0  0  0
    9.0019   47.7798  131.6998 C   0  0  0  0  0  0  0  0  0  0  0  0
    9.0014   46.6564  130.9385 C   0  0  0  0  0  0  0  0  0  0  0  0
    8.6025   46.7208  129.6365 C   0  0  0  0  0  0  0  0  0  0  0  0
    8.1949   47.9361  129.0837 C   0  0  0  0  0  0  0  0  0  0  0  0
    6.5704   52.5910  128.3298 N   0  0  0  0  0  0  0  0  0  0  0  0
    7.4601   52.6936  129.4747 C   0  0  0  0  0  0  0  0  0  0  0  0
    7.3021   51.3621  130.2254 C   0  0  0  0  0  0  0  0  0  0  0  0
    7.7859   50.3454  129.3114 N   0  0  0  0  0  0  0  0  0  0  0  0
    7.8748   50.5310  127.8921 C   0  0  0  0  0  0  0  0  0  0  0  0
    7.0731   51.6836  127.3553 C   0  0  0  0  0  0  0  0  0  0  0  0
    6.3228   53.8821  127.7298 C   0  0  0  0  0  0  0  0  0  0  0  0
    6.1193   54.6581  125.3802 C   0  0  0  0  0  0  0  0  0  0  0  0
    6.9878   53.9008  126.3719 C   0  0  0  0  0  0  0  0  0  0  0  0
    8.3207   54.6208  126.4180 C   0  0  0  0  0  0  0  0  0  0  0  0
 34 35  1  0  0  0
 35 36  1  0  0  0
 35 33  1  0  0  0
 33 27  1  0  0  0
 27 28  1  0  0  0
 28 29  1  0  0  0
 29 30  1  0  0  0
 30 31  1  0  0  0
 31 32  1  0  0  0
 30 21  1  0  0  0
 21 22  2  0  0  0
 22 23  1  0  0  0
 23 24  2  0  0  0
 24 25  1  0  0  0
 25 26  2  0  0  0
 24  1  1  0  0  0
  1  2  1  0  0  0
  2  3  1  0  0  0
  3  4  1  0  0  0
  4  5  1  0  0  0
  5  6  2  0  0  0
  6  7  1  0  0  0
  7  8  1  0  0  0
  7  9  2  0  0  0
  9 10  1  0  0  0
 10 11  2  0  0  0
  2 13  1  0  0  0
 13 14  2  0  0  0
 14 15  1  0  0  0
 15 16  2  0  0  0
 16 17  1  0  0  0
 17 18  1  0  0  0
 17 19  2  0  0  0
 32 27  1  0  0  0
 26 21  1  0  0  0
 11  1  1  0  0  0
 19 13  1  0  0  0
 11  5  1  0  0  0
  8 12  1  0  0  0
 18 20  1  0  0  0
M  END
> <minimizedAffinity>
19.48276

> <CNNscore>
0.2103988379

> <CNNaffinity>
7.0977644920

> <CNN_VS>
1.4933613539

> <CNNaffinity_variance>
1.2295072079

$$$$
[H]Oc1c([H])c([H])c([H])c(N2C([H])(c3c([H])c([H])c(N4C([H])([H])C([H])([H])N(C([H])([H])C([H])(C([H])([H])[H])C([H])([H])[H])C([H])([H])C4([H])[H])c([H])c3[H])c3c([H])c([H])c(O[H])c([H])c3C([H])([H])C2([H])[H])c1[H]


 36 40  0  0  0  0  0  0  0  0999 V2000
   10.7986   46.2926  131.0707 C   0  0  0  0  0  0  0  0  0  0  0  0
   10.8819   45.0147  130.3754 N   0  0  0  0  0  0  0  0  0  0  0  0
    9.6927   44.1828  130.4479 C   0  0  0  0  0  0  0  0  0  0  0  0
    9.0529   44.1771  131.8150 C   0  0  0  0  0  0  0  0  0  0  0  0
    9.8242   44.9259  132.8290 C   0  0  0  0  0  0  0  0  0  0  0  0
    9.6640   44.5572  134.1599 C   0  0  0  0  0  0  0  0  0  0  0  0
   10.3573   45.2179  135.1488 C   0  0  0  0  0  0  0  0  0  0  0  0
   10.1679   44.8176  136.4674 O   0  0  0  0  0  0  0  0  0  0  0  0
   11.2195   46.2544  134.8280 C   0  0  0  0  0  0  0  0  0  0  0  0
   11.3794   46.6213  133.5071 C   0  0  0  0  0  0  0  0  0  0  0  0
   10.6800   45.9523  132.5275 C   0  0  0  0  0  0  0  0  0  0  0  0
   10.6392   45.2527  137.2393 H   0  0  0  0  0  0  0  0  0  0  0  0
   12.0459   44.5968  129.6816 C   0  0  0  0  0  0  0  0  0  0  0  0
   13.2950   44.6803  130.2513 C   0  0  0  0  0  0  0  0  0  0  0  0
   14.4395   44.2776  129.5552 C   0  0  0  0  0  0  0  0  0  0  0  0
   14.3537   43.7855  128.2802 C   0  0  0  0  0  0  0  0  0  0  0  0
   13.1217   43.6981  127.7056 C   0  0  0  0  0  0  0  0  0  0  0  0
   12.9661   43.2089  126.4181 O   0  0  0  0  0  0  0  0  0  0  0  0
   11.9785   44.0975  128.3932 C   0  0  0  0  0  0  0  0  0  0  0  0
   12.9991   43.8385  125.6124 H   0  0  0  0  0  0  0  0  0  0  0  0
    7.2746   48.4092  129.9282 C   0  0  0  0  0  0  0  0  0  0  0  0
    7.8612   48.6097  131.1690 C   0  0  0  0  0  0  0  0  0  0  0  0
    9.0031   47.9175  131.5222 C   0  0  0  0  0  0  0  0  0  0  0  0
    9.5733   47.0307  130.6677 C   0  0  0  0  0  0  0  0  0  0  0  0
    9.0154   46.8163  129.4425 C   0  0  0  0  0  0  0  0  0  0  0  0
    7.8615   47.5044  129.0635 C   0  0  0  0  0  0  0  0  0  0  0  0
    4.0340   50.5372  128.4405 N   0  0  0  0  0  0  0  0  0  0  0  0
    3.7740   49.2537  129.0712 C   0  0  0  0  0  0  0  0  0  0  0  0
    5.0513   48.4299  128.8448 C   0  0  0  0  0  0  0  0  0  0  0  0
    6.0954   49.1333  129.5647 N   0  0  0  0  0  0  0  0  0  0  0  0
    6.0144   50.5181  129.9286 C   0  0  0  0  0  0  0  0  0  0  0  0
    4.9727   51.3060  129.1845 C   0  0  0  0  0  0  0  0  0  0  0  0
    2.8167   51.2902  128.2425 C   0  0  0  0  0  0  0  0  0  0  0  0
    1.3041   51.0975  126.2831 C   0  0  0  0  0  0  0  0  0  0  0  0
    2.6708   51.5605  126.7619 C   0  0  0  0  0  0  0  0  0  0  0  0
    2.7563   53.0430  126.4586 C   0  0  0  0  0  0  0  0  0  0  0  0
 34 35  1  0  0  0
 35 36  1  0  0  0
 35 33  1  0  0  0
 33 27  1  0  0  0
 27 28  1  0  0  0
 28 29  1  0  0  0
 29 30  1  0  0  0
 30 31  1  0  0  0
 31 32  1  0  0  0
 30 21  1  0  0  0
 21 22  2  0  0  0
 22 23  1  0  0  0
 23 24  2  0  0  0
 24 25  1  0  0  0
 25 26  2  0  0  0
 24  1  1  0  0  0
  1  2  1  0  0  0
  2  3  1  0  0  0
  3  4  1  0  0  0
  4  5  1  0  0  0
  5  6  2  0  0  0
  6  7  1  0  0  0
  7  8  1  0  0  0
  7  9  2  0  0  0
  9 10  1  0  0  0
 10 11  2  0  0  0
  2 13  1  0  0  0
 13 14  2  0  0  0
 14 15  1  0  0  0
 15 16  2  0  0  0
 16 17  1  0  0  0
 17 18  1  0  0  0
 17 19  2  0  0  0
 32 27  1  0  0  0
 26 21  1  0  0  0
 11  1  1  0  0  0
 19 13  1  0  0  0
 11  5  1  0  0  0
  8 12  1  0  0  0
 18 20  1  0  0  0
M  END
> <minimizedAffinity>
20.48766

> <CNNscore>
0.1991622299

> <CNNaffinity>
7.2514419556

> <CNN_VS>
1.4442133904

> <CNNaffinity_variance>
0.8915619850

$$$$
[H]Oc1c([H])c([H])c([H])c(N2C([H])(c3c([H])c([H])c(N4C([H])([H])C([H])([H])N(C([H])([H])C([H])(C([H])([H])[H])C([H])([H])[H])C([H])([H])C4([H])[H])c([H])c3[H])c3c([H])c([H])c(O[H])c([H])c3C([H])([H])C2([H])[H])c1[H]


 36 40  0  0  0  0  0  0  0  0999 V2000
    9.7010   46.0836  131.4398 C   0  0  0  0  0  0  0  0  0  0  0  0
    9.1044   44.8122  131.8287 N   0  0  0  0  0  0  0  0  0  0  0  0
    7.9363   44.9047  132.6879 C   0  0  0  0  0  0  0  0  0  0  0  0
    8.0704   45.9548  133.7638 C   0  0  0  0  0  0  0  0  0  0  0  0
    9.4008   46.5972  133.7966 C   0  0  0  0  0  0  0  0  0  0  0  0
    9.8247   47.1362  135.0061 C   0  0  0  0  0  0  0  0  0  0  0  0
   11.0554   47.7463  135.0978 C   0  0  0  0  0  0  0  0  0  0  0  0
   11.4409   48.2724  136.3264 O   0  0  0  0  0  0  0  0  0  0  0  0
   11.8815   47.8290  133.9882 C   0  0  0  0  0  0  0  0  0  0  0  0
   11.4618   47.2943  132.7870 C   0  0  0  0  0  0  0  0  0  0  0  0
   10.2285   46.6867  132.7086 C   0  0  0  0  0  0  0  0  0  0  0  0
   12.3226   48.7305  136.4675 H   0  0  0  0  0  0  0  0  0  0  0  0
    9.6290   43.5626  131.4114 C   0  0  0  0  0  0  0  0  0  0  0  0
   10.2682   42.7184  132.2893 C   0  0  0  0  0  0  0  0  0  0  0  0
   10.7939   41.4930  131.8666 C   0  0  0  0  0  0  0  0  0  0  0  0
   10.6890   41.0924  130.5614 C   0  0  0  0  0  0  0  0  0  0  0  0
   10.0578   41.9202  129.6828 C   0  0  0  0  0  0  0  0  0  0  0  0
    9.9181   41.5738  128.3479 O   0  0  0  0  0  0  0  0  0  0  0  0
    9.5326   43.1415  130.0972 C   0  0  0  0  0  0  0  0  0  0  0  0
   10.6319   41.8347  127.6630 H   0  0  0  0  0  0  0  0  0  0  0  0
    6.7400   48.7215  129.8659 C   0  0  0  0  0  0  0  0  0  0  0  0
    7.7547   49.1904  130.6873 C   0  0  0  0  0  0  0  0  0  0  0  0
    8.7064   48.3229  131.1868 C   0  0  0  0  0  0  0  0  0  0  0  0
    8.6701   47.0000  130.8866 C   0  0  0  0  0  0  0  0  0  0  0  0
    7.6827   46.5151  130.0813 C   0  0  0  0  0  0  0  0  0  0  0  0
    6.7100   47.3728  129.5647 C   0  0  0  0  0  0  0  0  0  0  0  0
    3.9545   51.1278  127.9439 N   0  0  0  0  0  0  0  0  0  0  0  0
    3.5234   50.3962  129.1235 C   0  0  0  0  0  0  0  0  0  0  0  0
    4.4065   49.1392  129.1603 C   0  0  0  0  0  0  0  0  0  0  0  0
    5.7602   49.6252  129.3460 N   0  0  0  0  0  0  0  0  0  0  0  0
    6.1739   50.9621  129.0319 C   0  0  0  0  0  0  0  0  0  0  0  0
    5.2360   51.7177  128.1324 C   0  0  0  0  0  0  0  0  0  0  0  0
    2.9923   52.1353  127.5602 C   0  0  0  0  0  0  0  0  0  0  0  0
    0.8255   51.1826  126.8111 C   0  0  0  0  0  0  0  0  0  0  0  0
    2.2166   51.6116  126.3726 C   0  0  0  0  0  0  0  0  0  0  0  0
    2.0267   52.6841  125.3187 C   0  0  0  0  0  0  0  0  0  0  0  0
 34 35  1  0  0  0
 35 36  1  0  0  0
 35 33  1  0  0  0
 33 27  1  0  0  0
 27 28  1  0  0  0
 28 29  1  0  0  0
 29 30  1  0  0  0
 30 31  1  0  0  0
 31 32  1  0  0  0
 30 21  1  0  0  0
 21 22  2  0  0  0
 22 23  1  0  0  0
 23 24  2  0  0  0
 24 25  1  0  0  0
 25 26  2  0  0  0
 24  1  1  0  0  0
  1  2  1  0  0  0
  2  3  1  0  0  0
  3  4  1  0  0  0
  4  5  1  0  0  0
  5  6  2  0  0  0
  6  7  1  0  0  0
  7  8  1  0  0  0
  7  9  2  0  0  0
  9 10  1  0  0  0
 10 11  2  0  0  0
  2 13  1  0  0  0
 13 14  2  0  0  0
 14 15  1  0  0  0
 15 16  2  0  0  0
 16 17  1  0  0  0
 17 18  1  0  0  0
 17 19  2  0  0  0
 32 27  1  0  0  0
 26 21  1  0  0  0
 11  1  1  0  0  0
 19 13  1  0  0  0
 11  5  1  0  0  0
  8 12  1  0  0  0
 18 20  1  0  0  0
M  END
> <minimizedAffinity>
22.98870

> <CNNscore>
0.1821112037

> <CNNaffinity>
7.2517786026

> <CNN_VS>
1.3206300735

> <CNNaffinity_variance>
1.1183540821

$$$$
[H]Oc1c([H])c([H])c([H])c(N2C([H])(c3c([H])c([H])c(N4C([H])([H])C([H])([H])N(C([H])([H])C([H])(C([H])([H])[H])C([H])([H])[H])C([H])([H])C4([H])[H])c([H])c3[H])c3c([H])c([H])c(O[H])c([H])c3C([H])([H])C2([H])[H])c1[H]


 36 40  0  0  0  0  0  0  0  0999 V2000
    8.9884   45.7241  131.4593 C   0  0  0  0  0  0  0  0  0  0  0  0
   10.2572   45.8555  132.1639 N   0  0  0  0  0  0  0  0  0  0  0  0
   11.3363   46.4630  131.4038 C   0  0  0  0  0  0  0  0  0  0  0  0
   11.3951   45.9901  129.9716 C   0  0  0  0  0  0  0  0  0  0  0  0
   10.4178   44.9257  129.6626 C   0  0  0  0  0  0  0  0  0  0  0  0
   10.7192   44.0599  128.6174 C   0  0  0  0  0  0  0  0  0  0  0  0
    9.8472   43.0481  128.2841 C   0  0  0  0  0  0  0  0  0  0  0  0
   10.1871   42.2042  127.2319 O   0  0  0  0  0  0  0  0  0  0  0  0
    8.6634   42.8833  128.9854 C   0  0  0  0  0  0  0  0  0  0  0  0
    8.3630   43.7421  130.0233 C   0  0  0  0  0  0  0  0  0  0  0  0
    9.2438   44.7501  130.3465 C   0  0  0  0  0  0  0  0  0  0  0  0
    9.6009   41.4462  126.9336 H   0  0  0  0  0  0  0  0  0  0  0  0
   10.4396   45.4120  133.4984 C   0  0  0  0  0  0  0  0  0  0  0  0
   11.0956   44.2376  133.7856 C   0  0  0  0  0  0  0  0  0  0  0  0
   11.2602   43.8011  135.1044 C   0  0  0  0  0  0  0  0  0  0  0  0
   10.7725   44.5307  136.1555 C   0  0  0  0  0  0  0  0  0  0  0  0
   10.1211   45.6956  135.8832 C   0  0  0  0  0  0  0  0  0  0  0  0
    9.6037   46.4807  136.9017 O   0  0  0  0  0  0  0  0  0  0  0  0
    9.9537   46.1356  134.5727 C   0  0  0  0  0  0  0  0  0  0  0  0
    8.6472   46.3392  137.2359 H   0  0  0  0  0  0  0  0  0  0  0  0
    7.8418   49.4429  129.7103 C   0  0  0  0  0  0  0  0  0  0  0  0
    7.6989   48.2499  129.0172 C   0  0  0  0  0  0  0  0  0  0  0  0
    8.0734   47.0545  129.5991 C   0  0  0  0  0  0  0  0  0  0  0  0
    8.5866   47.0209  130.8549 C   0  0  0  0  0  0  0  0  0  0  0  0
    8.7368   48.1802  131.5563 C   0  0  0  0  0  0  0  0  0  0  0  0
    8.3653   49.4002  130.9889 C   0  0  0  0  0  0  0  0  0  0  0  0
    7.1501   53.0952  127.8596 N   0  0  0  0  0  0  0  0  0  0  0  0
    6.4409   51.9311  127.3548 C   0  0  0  0  0  0  0  0  0  0  0  0
    7.3609   50.7385  127.6590 C   0  0  0  0  0  0  0  0  0  0  0  0
    7.4466   50.6778  129.1054 N   0  0  0  0  0  0  0  0  0  0  0  0
    7.1622   51.7900  129.9651 C   0  0  0  0  0  0  0  0  0  0  0  0
    7.1554   53.1292  129.2825 C   0  0  0  0  0  0  0  0  0  0  0  0
    6.6013   54.3238  127.3325 C   0  0  0  0  0  0  0  0  0  0  0  0
    8.4980   53.6865  125.8626 C   0  0  0  0  0  0  0  0  0  0  0  0
    7.3478   54.6607  126.0614 C   0  0  0  0  0  0  0  0  0  0  0  0
    6.4548   54.5303  124.8438 C   0  0  0  0  0  0  0  0  0  0  0  0
 34 35  1  0  0  0
 35 36  1  0  0  0
 35 33  1  0  0  0
 33 27  1  0  0  0
 27 28  1  0  0  0
 28 29  1  0  0  0
 29 30  1  0  0  0
 30 31  1  0  0  0
 31 32  1  0  0  0
 30 21  1  0  0  0
 21 22  2  0  0  0
 22 23  1  0  0  0
 23 24  2  0  0  0
 24 25  1  0  0  0
 25 26  2  0  0  0
 24  1  1  0  0  0
  1  2  1  0  0  0
  2  3  1  0  0  0
  3  4  1  0  0  0
  4  5  1  0  0  0
  5  6  2  0  0  0
  6  7  1  0  0  0
  7  8  1  0  0  0
  7  9  2  0  0  0
  9 10  1  0  0  0
 10 11  2  0  0  0
  2 13  1  0  0  0
 13 14  2  0  0  0
 14 15  1  0  0  0
 15 16  2  0  0  0
 16 17  1  0  0  0
 17 18  1  0  0  0
 17 19  2  0  0  0
 32 27  1  0  0  0
 26 21  1  0  0  0
 11  1  1  0  0  0
 19 13  1  0  0  0
 11  5  1  0  0  0
  8 12  1  0  0  0
 18 20  1  0  0  0
M  END
> <minimizedAffinity>
9.76865

> <CNNscore>
0.1762254685

> <CNNaffinity>
7.2450494766

> <CNN_VS>
1.2767622471

> <CNNaffinity_variance>
1.0823501348

$$$$
[H]Oc1c([H])c([H])c2c(-c3c([H])c([H])c(F)c([H])c3[H])c(C(=O)c3c([H])c([H])c(C#N)c([H])c3[H])sc2c1[H]


 28 31  0  0  0  0  0  0  0  0999 V2000
    6.8600   52.0801  129.1248 O   0  0  0  0  0  0  0  0  0  0  0  0
    7.4050   50.8808  129.4934 C   0  0  0  0  0  0  0  0  0  0  0  0
    8.3637   50.7571  130.4867 C   0  0  0  0  0  0  0  0  0  0  0  0
    8.9300   49.5746  130.8803 C   0  0  0  0  0  0  0  0  0  0  0  0
    8.5392   48.3703  130.2571 C   0  0  0  0  0  0  0  0  0  0  0  0
    9.0117   47.1389  130.5373 C   0  0  0  0  0  0  0  0  0  0  0  0
    8.4964   46.0871  129.8027 C   0  0  0  0  0  0  0  0  0  0  0  0
    7.3887   46.8805  128.7722 S   0  0  0  0  0  0  0  0  0  0  0  0
    7.5974   48.4853  129.2804 C   0  0  0  0  0  0  0  0  0  0  0  0
    7.0328   49.6953  128.8933 C   0  0  0  0  0  0  0  0  0  0  0  0
    6.0252   52.5037  129.5237 H   0  0  0  0  0  0  0  0  0  0  0  0
   10.0243   46.8044  131.5935 C   0  0  0  0  0  0  0  0  0  0  0  0
   11.2116   46.1955  131.2594 C   0  0  0  0  0  0  0  0  0  0  0  0
   12.1021   45.9019  132.2672 C   0  0  0  0  0  0  0  0  0  0  0  0
   11.8437   46.1983  133.6011 C   0  0  0  0  0  0  0  0  0  0  0  0
   12.7348   45.9042  134.5865 F   0  0  0  0  0  0  0  0  0  0  0  0
   10.6567   46.8033  133.9132 C   0  0  0  0  0  0  0  0  0  0  0  0
    9.7607   47.0999  132.9092 C   0  0  0  0  0  0  0  0  0  0  0  0
    8.8589   44.6763  129.9171 C   0  0  0  0  0  0  0  0  0  0  0  0
    9.6906   44.2642  129.0295 O   0  0  0  0  0  0  0  0  0  0  0  0
    8.3901   43.7502  130.8963 C   0  0  0  0  0  0  0  0  0  0  0  0
    8.5510   44.1332  132.2500 C   0  0  0  0  0  0  0  0  0  0  0  0
    8.1449   43.3115  133.2618 C   0  0  0  0  0  0  0  0  0  0  0  0
    7.5692   42.0885  132.9486 C   0  0  0  0  0  0  0  0  0  0  0  0
    7.4052   41.6990  131.6413 C   0  0  0  0  0  0  0  0  0  0  0  0
    7.8226   42.5441  130.6065 C   0  0  0  0  0  0  0  0  0  0  0  0
    7.1379   41.2144  133.9925 C   0  0  0  0  0  0  0  0  0  0  0  0
    6.7828   40.4843  134.8337 N   0  0  0  0  0  0  0  0  0  0  0  0
  1  2  1  0  0  0
  2  3  2  0  0  0
  3  4  1  0  0  0
  4  5  2  0  0  0
  5  6  1  0  0  0
  6  7  2  0  0  0
  7  8  1  0  0  0
  8  9  1  0  0  0
  9 10  2  0  0  0
  7 19  1  0  0  0
 19 20  2  0  0  0
 19 21  1  0  0  0
 21 22  2  0  0  0
 22 23  1  0  0  0
 23 24  2  0  0  0
 24 25  1  0  0  0
 25 26  2  0  0  0
 24 27  1  0  0  0
 27 28  3  0  0  0
  6 12  1  0  0  0
 12 13  2  0  0  0
 13 14  1  0  0  0
 14 15  2  0  0  0
 15 16  1  0  0  0
 15 17  1  0  0  0
 17 18  2  0  0  0
 10  2  1  0  0  0
 26 21  1  0  0  0
 18 12  1  0  0  0
  9  5  1  0  0  0
  1 11  1  0  0  0
M  END
> <minimizedAffinity>
0.87436

> <CNNscore>
0.5718203783

> <CNNaffinity>
7.7432885170

> <CNN_VS>
4.4277701378

> <CNNaffinity_variance>
1.2287700176

$$$$
[H]Oc1c([H])c([H])c2c(-c3c([H])c([H])c(F)c([H])c3[H])c(C(=O)c3c([H])c([H])c(C#N)c([H])c3[H])sc2c1[H]


 28 31  0  0  0  0  0  0  0  0999 V2000
    6.8839   51.9718  129.3445 O   0  0  0  0  0  0  0  0  0  0  0  0
    7.3534   50.7706  129.8002 C   0  0  0  0  0  0  0  0  0  0  0  0
    8.5030   50.6467  130.5645 C   0  0  0  0  0  0  0  0  0  0  0  0
    9.0011   49.4622  131.0364 C   0  0  0  0  0  0  0  0  0  0  0  0
    8.3280   48.2559  130.7482 C   0  0  0  0  0  0  0  0  0  0  0  0
    8.7023   47.0216  131.1411 C   0  0  0  0  0  0  0  0  0  0  0  0
    7.9006   45.9671  130.7452 C   0  0  0  0  0  0  0  0  0  0  0  0
    6.6793   46.7624  129.8539 S   0  0  0  0  0  0  0  0  0  0  0  0
    7.1976   48.3711  129.9977 C   0  0  0  0  0  0  0  0  0  0  0  0
    6.7060   49.5832  129.5265 C   0  0  0  0  0  0  0  0  0  0  0  0
    6.2288   52.5797  129.8311 H   0  0  0  0  0  0  0  0  0  0  0  0
    9.8937   46.6929  131.9929 C   0  0  0  0  0  0  0  0  0  0  0  0
   11.0254   46.1453  131.4349 C   0  0  0  0  0  0  0  0  0  0  0  0
   12.0868   45.8542  132.2618 C   0  0  0  0  0  0  0  0  0  0  0  0
   12.0534   46.0936  133.6313 C   0  0  0  0  0  0  0  0  0  0  0  0
   13.1115   45.8027  134.4359 F   0  0  0  0  0  0  0  0  0  0  0  0
   10.9183   46.6380  134.1673 C   0  0  0  0  0  0  0  0  0  0  0  0
    9.8520   46.9319  133.3453 C   0  0  0  0  0  0  0  0  0  0  0  0
    8.1070   44.5503  131.0366 C   0  0  0  0  0  0  0  0  0  0  0  0
    7.7371   44.1865  132.2115 O   0  0  0  0  0  0  0  0  0  0  0  0
    8.6597   43.5692  130.1601 C   0  0  0  0  0  0  0  0  0  0  0  0
    9.1227   44.0374  128.9065 C   0  0  0  0  0  0  0  0  0  0  0  0
    9.6581   43.1757  127.9930 C   0  0  0  0  0  0  0  0  0  0  0  0
    9.7445   41.8269  128.3069 C   0  0  0  0  0  0  0  0  0  0  0  0
    9.3002   41.3534  129.5177 C   0  0  0  0  0  0  0  0  0  0  0  0
    8.7519   42.2400  130.4520 C   0  0  0  0  0  0  0  0  0  0  0  0
   10.3013   40.9091  127.3649 C   0  0  0  0  0  0  0  0  0  0  0  0
   10.7499   40.1426  126.6045 N   0  0  0  0  0  0  0  0  0  0  0  0
  1  2  1  0  0  0
  2  3  2  0  0  0
  3  4  1  0  0  0
  4  5  2  0  0  0
  5  6  1  0  0  0
  6  7  2  0  0  0
  7  8  1  0  0  0
  8  9  1  0  0  0
  9 10  2  0  0  0
  7 19  1  0  0  0
 19 20  2  0  0  0
 19 21  1  0  0  0
 21 22  2  0  0  0
 22 23  1  0  0  0
 23 24  2  0  0  0
 24 25  1  0  0  0
 25 26  2  0  0  0
 24 27  1  0  0  0
 27 28  3  0  0  0
  6 12  1  0  0  0
 12 13  2  0  0  0
 13 14  1  0  0  0
 14 15  2  0  0  0
 15 16  1  0  0  0
 15 17  1  0  0  0
 17 18  2  0  0  0
 10  2  1  0  0  0
 26 21  1  0  0  0
 18 12  1  0  0  0
  9  5  1  0  0  0
  1 11  1  0  0  0
M  END
> <minimizedAffinity>
3.41033

> <CNNscore>
0.5160576105

> <CNNaffinity>
7.6241965294

> <CNN_VS>
3.9345245361

> <CNNaffinity_variance>
1.1685882807

$$$$
[H]Oc1c([H])c([H])c2c(-c3c([H])c([H])c(F)c([H])c3[H])c(C(=O)c3c([H])c([H])c(C#N)c([H])c3[H])sc2c1[H]


 28 31  0  0  0  0  0  0  0  0999 V2000
   15.6458   43.9220  128.1991 O   0  0  0  0  0  0  0  0  0  0  0  0
   14.4721   44.2705  128.8087 C   0  0  0  0  0  0  0  0  0  0  0  0
   13.4353   44.9105  128.1478 C   0  0  0  0  0  0  0  0  0  0  0  0
   12.2489   45.2735  128.7260 C   0  0  0  0  0  0  0  0  0  0  0  0
   12.0220   44.9958  130.0908 C   0  0  0  0  0  0  0  0  0  0  0  0
   10.9095   45.2970  130.7905 C   0  0  0  0  0  0  0  0  0  0  0  0
   10.8923   44.9397  132.1260 C   0  0  0  0  0  0  0  0  0  0  0  0
   12.4239   44.2079  132.3193 S   0  0  0  0  0  0  0  0  0  0  0  0
   13.0368   44.3670  130.7457 C   0  0  0  0  0  0  0  0  0  0  0  0
   14.2360   44.0054  130.1422 C   0  0  0  0  0  0  0  0  0  0  0  0
   15.8367   43.0373  127.7339 H   0  0  0  0  0  0  0  0  0  0  0  0
    9.6782   45.9586  130.2435 C   0  0  0  0  0  0  0  0  0  0  0  0
    9.6551   47.3138  130.0093 C   0  0  0  0  0  0  0  0  0  0  0  0
    8.4979   47.8723  129.5156 C   0  0  0  0  0  0  0  0  0  0  0  0
    7.3607   47.1182  129.2475 C   0  0  0  0  0  0  0  0  0  0  0  0
    6.2244   47.6840  128.7572 F   0  0  0  0  0  0  0  0  0  0  0  0
    7.4034   45.7718  129.4879 C   0  0  0  0  0  0  0  0  0  0  0  0
    8.5586   45.2062  129.9821 C   0  0  0  0  0  0  0  0  0  0  0  0
    9.8116   45.1698  133.0821 C   0  0  0  0  0  0  0  0  0  0  0  0
    9.7804   46.3537  133.5791 O   0  0  0  0  0  0  0  0  0  0  0  0
    8.8204   44.2297  133.4940 C   0  0  0  0  0  0  0  0  0  0  0  0
    9.0145   42.8902  133.0777 C   0  0  0  0  0  0  0  0  0  0  0  0
    8.1163   41.9176  133.4108 C   0  0  0  0  0  0  0  0  0  0  0  0
    7.0031   42.2568  134.1665 C   0  0  0  0  0  0  0  0  0  0  0  0
    6.7971   43.5509  134.5794 C   0  0  0  0  0  0  0  0  0  0  0  0
    7.7203   44.5455  134.2360 C   0  0  0  0  0  0  0  0  0  0  0  0
    6.0516   41.2541  134.5255 C   0  0  0  0  0  0  0  0  0  0  0  0
    5.2699   40.4292  134.8001 N   0  0  0  0  0  0  0  0  0  0  0  0
  1  2  1  0  0  0
  2  3  2  0  0  0
  3  4  1  0  0  0
  4  5  2  0  0  0
  5  6  1  0  0  0
  6  7  2  0  0  0
  7  8  1  0  0  0
  8  9  1  0  0  0
  9 10  2  0  0  0
  7 19  1  0  0  0
 19 20  2  0  0  0
 19 21  1  0  0  0
 21 22  2  0  0  0
 22 23  1  0  0  0
 23 24  2  0  0  0
 24 25  1  0  0  0
 25 26  2  0  0  0
 24 27  1  0  0  0
 27 28  3  0  0  0
  6 12  1  0  0  0
 12 13  2  0  0  0
 13 14  1  0  0  0
 14 15  2  0  0  0
 15 16  1  0  0  0
 15 17  1  0  0  0
 17 18  2  0  0  0
 10  2  1  0  0  0
 26 21  1  0  0  0
 18 12  1  0  0  0
  9  5  1  0  0  0
  1 11  1  0  0  0
M  END
> <minimizedAffinity>
13.28362

> <CNNscore>
0.5036357641

> <CNNaffinity>
7.2991914749

> <CNN_VS>
3.6761338711

> <CNNaffinity_variance>
1.9117492437

$$$$
[H]Oc1c([H])c([H])c2c(-c3c([H])c([H])c(F)c([H])c3[H])c(C(=O)c3c([H])c([H])c(C#N)c([H])c3[H])sc2c1[H]


 28 31  0  0  0  0  0  0  0  0999 V2000
    6.2865   52.3264  128.7160 O   0  0  0  0  0  0  0  0  0  0  0  0
    6.8185   51.1792  129.2374 C   0  0  0  0  0  0  0  0  0  0  0  0
    7.1425   51.0345  130.5774 C   0  0  0  0  0  0  0  0  0  0  0  0
    7.6759   49.9026  131.1323 C   0  0  0  0  0  0  0  0  0  0  0  0
    7.9306   48.7780  130.3189 C   0  0  0  0  0  0  0  0  0  0  0  0
    8.4540   47.6036  130.7251 C   0  0  0  0  0  0  0  0  0  0  0  0
    8.6278   46.6274  129.7615 C   0  0  0  0  0  0  0  0  0  0  0  0
    8.0510   47.4074  128.3553 S   0  0  0  0  0  0  0  0  0  0  0  0
    7.6144   48.9138  129.0015 C   0  0  0  0  0  0  0  0  0  0  0  0
    7.0730   50.0717  128.4546 C   0  0  0  0  0  0  0  0  0  0  0  0
    5.2952   52.5426  128.6383 H   0  0  0  0  0  0  0  0  0  0  0  0
    8.8375   47.2512  132.1328 C   0  0  0  0  0  0  0  0  0  0  0  0
    9.9637   47.7910  132.7092 C   0  0  0  0  0  0  0  0  0  0  0  0
   10.2756   47.4279  133.9999 C   0  0  0  0  0  0  0  0  0  0  0  0
    9.4962   46.5410  134.7346 C   0  0  0  0  0  0  0  0  0  0  0  0
    9.8159   46.1932  136.0108 F   0  0  0  0  0  0  0  0  0  0  0  0
    8.3804   46.0142  134.1432 C   0  0  0  0  0  0  0  0  0  0  0  0
    8.0623   46.3733  132.8515 C   0  0  0  0  0  0  0  0  0  0  0  0
    9.1829   45.2901  129.9574 C   0  0  0  0  0  0  0  0  0  0  0  0
    8.3143   44.3862  130.2368 O   0  0  0  0  0  0  0  0  0  0  0  0
   10.5558   44.9128  129.8643 C   0  0  0  0  0  0  0  0  0  0  0  0
   11.1263   44.9350  128.5684 C   0  0  0  0  0  0  0  0  0  0  0  0
   12.4299   44.5802  128.3725 C   0  0  0  0  0  0  0  0  0  0  0  0
   13.1960   44.1944  129.4632 C   0  0  0  0  0  0  0  0  0  0  0  0
   12.6603   44.1658  130.7281 C   0  0  0  0  0  0  0  0  0  0  0  0
   11.3233   44.5304  130.9252 C   0  0  0  0  0  0  0  0  0  0  0  0
   14.5617   43.8193  129.2794 C   0  0  0  0  0  0  0  0  0  0  0  0
   15.6823   43.5281  129.1171 N   0  0  0  0  0  0  0  0  0  0  0  0
  1  2  1  0  0  0
  2  3  2  0  0  0
  3  4  1  0  0  0
  4  5  2  0  0  0
  5  6  1  0  0  0
  6  7  2  0  0  0
  7  8  1  0  0  0
  8  9  1  0  0  0
  9 10  2  0  0  0
  7 19  1  0  0  0
 19 20  2  0  0  0
 19 21  1  0  0  0
 21 22  2  0  0  0
 22 23  1  0  0  0
 23 24  2  0  0  0
 24 25  1  0  0  0
 25 26  2  0  0  0
 24 27  1  0  0  0
 27 28  3  0  0  0
  6 12  1  0  0  0
 12 13  2  0  0  0
 13 14  1  0  0  0
 14 15  2  0  0  0
 15 16  1  0  0  0
 15 17  1  0  0  0
 17 18  2  0  0  0
 10  2  1  0  0  0
 26 21  1  0  0  0
 18 12  1  0  0  0
  9  5  1  0  0  0
  1 11  1  0  0  0
M  END
> <minimizedAffinity>
-3.15244

> <CNNscore>
0.4973007739

> <CNNaffinity>
7.2901077271

> <CNN_VS>
3.6253762245

> <CNNaffinity_variance>
0.4389885962

$$$$
[H]Oc1c([H])c([H])c2c(-c3c([H])c([H])c(F)c([H])c3[H])c(C(=O)c3c([H])c([H])c(C#N)c([H])c3[H])sc2c1[H]


 28 31  0  0  0  0  0  0  0  0999 V2000
    6.6260   52.0169  128.3361 O   0  0  0  0  0  0  0  0  0  0  0  0
    7.0691   50.8835  128.9605 C   0  0  0  0  0  0  0  0  0  0  0  0
    7.3885   50.8361  130.3085 C   0  0  0  0  0  0  0  0  0  0  0  0
    7.8343   49.7208  130.9650 C   0  0  0  0  0  0  0  0  0  0  0  0
    7.9951   48.5102  130.2577 C   0  0  0  0  0  0  0  0  0  0  0  0
    8.4268   47.3400  130.7699 C   0  0  0  0  0  0  0  0  0  0  0  0
    8.5176   46.2697  129.8994 C   0  0  0  0  0  0  0  0  0  0  0  0
    7.9959   46.9617  128.4272 S   0  0  0  0  0  0  0  0  0  0  0  0
    7.6829   48.5503  128.9329 C   0  0  0  0  0  0  0  0  0  0  0  0
    7.2311   49.6928  128.2821 C   0  0  0  0  0  0  0  0  0  0  0  0
    5.6544   52.3027  128.2376 H   0  0  0  0  0  0  0  0  0  0  0  0
    8.7895   47.0879  132.2044 C   0  0  0  0  0  0  0  0  0  0  0  0
    9.9331   47.6289  132.7444 C   0  0  0  0  0  0  0  0  0  0  0  0
   10.2244   47.3594  134.0625 C   0  0  0  0  0  0  0  0  0  0  0  0
    9.4077   46.5652  134.8600 C   0  0  0  0  0  0  0  0  0  0  0  0
    9.7074   46.3094  136.1625 F   0  0  0  0  0  0  0  0  0  0  0  0
    8.2751   46.0356  134.3041 C   0  0  0  0  0  0  0  0  0  0  0  0
    7.9774   46.3013  132.9852 C   0  0  0  0  0  0  0  0  0  0  0  0
    8.9669   44.9161  130.2170 C   0  0  0  0  0  0  0  0  0  0  0  0
    8.4489   43.9955  129.4866 O   0  0  0  0  0  0  0  0  0  0  0  0
    9.9009   44.5410  131.2285 C   0  0  0  0  0  0  0  0  0  0  0  0
   11.1802   45.1440  131.1562 C   0  0  0  0  0  0  0  0  0  0  0  0
   12.1477   44.8424  132.0708 C   0  0  0  0  0  0  0  0  0  0  0  0
   11.8636   43.9325  133.0791 C   0  0  0  0  0  0  0  0  0  0  0  0
   10.6286   43.3366  133.1656 C   0  0  0  0  0  0  0  0  0  0  0  0
    9.6390   43.6484  132.2261 C   0  0  0  0  0  0  0  0  0  0  0  0
   12.8621   43.6034  134.0457 C   0  0  0  0  0  0  0  0  0  0  0  0
   13.6802   43.3531  134.8425 N   0  0  0  0  0  0  0  0  0  0  0  0
  1  2  1  0  0  0
  2  3  2  0  0  0
  3  4  1  0  0  0
  4  5  2  0  0  0
  5  6  1  0  0  0
  6  7  2  0  0  0
  7  8  1  0  0  0
  8  9  1  0  0  0
  9 10  2  0  0  0
  7 19  1  0  0  0
 19 20  2  0  0  0
 19 21  1  0  0  0
 21 22  2  0  0  0
 22 23  1  0  0  0
 23 24  2  0  0  0
 24 25  1  0  0  0
 25 26  2  0  0  0
 24 27  1  0  0  0
 27 28  3  0  0  0
  6 12  1  0  0  0
 12 13  2  0  0  0
 13 14  1  0  0  0
 14 15  2  0  0  0
 15 16  1  0  0  0
 15 17  1  0  0  0
 17 18  2  0  0  0
 10  2  1  0  0  0
 26 21  1  0  0  0
 18 12  1  0  0  0
  9  5  1  0  0  0
  1 11  1  0  0  0
M  END
> <minimizedAffinity>
-4.74746

> <CNNscore>
0.4893518984

> <CNNaffinity>
7.4913911819

> <CNN_VS>
3.6659264565

> <CNNaffinity_variance>
0.4361506402

$$$$
[H]Oc1c([H])c([H])c2c(-c3c([H])c([H])c(F)c([H])c3[H])c(C(=O)c3c([H])c([H])c(C#N)c([H])c3[H])sc2c1[H]


 28 31  0  0  0  0  0  0  0  0999 V2000
   14.8021   46.3753  132.3233 O   0  0  0  0  0  0  0  0  0  0  0  0
   13.4906   45.9995  132.2254 C   0  0  0  0  0  0  0  0  0  0  0  0
   12.9501   44.9405  132.9380 C   0  0  0  0  0  0  0  0  0  0  0  0
   11.6441   44.5374  132.8642 C   0  0  0  0  0  0  0  0  0  0  0  0
   10.7481   45.2204  132.0144 C   0  0  0  0  0  0  0  0  0  0  0  0
    9.4424   44.9338  131.8384 C   0  0  0  0  0  0  0  0  0  0  0  0
    8.7399   45.7280  130.9511 C   0  0  0  0  0  0  0  0  0  0  0  0
    9.9416   46.8205  130.4214 S   0  0  0  0  0  0  0  0  0  0  0  0
   11.2731   46.2619  131.3116 C   0  0  0  0  0  0  0  0  0  0  0  0
   12.6030   46.6577  131.3989 C   0  0  0  0  0  0  0  0  0  0  0  0
   15.1805   47.0548  132.9794 H   0  0  0  0  0  0  0  0  0  0  0  0
    8.6771   43.8499  132.5401 C   0  0  0  0  0  0  0  0  0  0  0  0
    8.1815   44.0490  133.8077 C   0  0  0  0  0  0  0  0  0  0  0  0
    7.4944   43.0194  134.4101 C   0  0  0  0  0  0  0  0  0  0  0  0
    7.2862   41.7948  133.7850 C   0  0  0  0  0  0  0  0  0  0  0  0
    6.6029   40.7869  134.3923 F   0  0  0  0  0  0  0  0  0  0  0  0
    7.7878   41.6162  132.5246 C   0  0  0  0  0  0  0  0  0  0  0  0
    8.4765   42.6426  131.9156 C   0  0  0  0  0  0  0  0  0  0  0  0
    7.3295   45.6044  130.5899 C   0  0  0  0  0  0  0  0  0  0  0  0
    6.8471   44.4207  130.7149 O   0  0  0  0  0  0  0  0  0  0  0  0
    6.4703   46.6472  130.1312 C   0  0  0  0  0  0  0  0  0  0  0  0
    6.8599   47.9695  130.4553 C   0  0  0  0  0  0  0  0  0  0  0  0
    6.0991   49.0361  130.0717 C   0  0  0  0  0  0  0  0  0  0  0  0
    4.9319   48.8106  129.3562 C   0  0  0  0  0  0  0  0  0  0  0  0
    4.5369   47.5350  129.0327 C   0  0  0  0  0  0  0  0  0  0  0  0
    5.3195   46.4437  129.4276 C   0  0  0  0  0  0  0  0  0  0  0  0
    4.1220   49.9129  128.9456 C   0  0  0  0  0  0  0  0  0  0  0  0
    3.4498   50.8148  128.6271 N   0  0  0  0  0  0  0  0  0  0  0  0
  1  2  1  0  0  0
  2  3  2  0  0  0
  3  4  1  0  0  0
  4  5  2  0  0  0
  5  6  1  0  0  0
  6  7  2  0  0  0
  7  8  1  0  0  0
  8  9  1  0  0  0
  9 10  2  0  0  0
  7 19  1  0  0  0
 19 20  2  0  0  0
 19 21  1  0  0  0
 21 22  2  0  0  0
 22 23  1  0  0  0
 23 24  2  0  0  0
 24 25  1  0  0  0
 25 26  2  0  0  0
 24 27  1  0  0  0
 27 28  3  0  0  0
  6 12  1  0  0  0
 12 13  2  0  0  0
 13 14  1  0  0  0
 14 15  2  0  0  0
 15 16  1  0  0  0
 15 17  1  0  0  0
 17 18  2  0  0  0
 10  2  1  0  0  0
 26 21  1  0  0  0
 18 12  1  0  0  0
  9  5  1  0  0  0
  1 11  1  0  0  0
M  END
> <minimizedAffinity>
20.48793

> <CNNscore>
0.4893301427

> <CNNaffinity>
7.6463165283

> <CNN_VS>
3.7415730953

> <CNNaffinity_variance>
5.2493877411

$$$$
[H]Oc1c([H])c([H])c2c(-c3c([H])c([H])c(F)c([H])c3[H])c(C(=O)c3c([H])c([H])c(C#N)c([H])c3[H])sc2c1[H]


 28 31  0  0  0  0  0  0  0  0999 V2000
    4.6860   47.9241  127.7001 O   0  0  0  0  0  0  0  0  0  0  0  0
    5.7939   47.7656  128.4865 C   0  0  0  0  0  0  0  0  0  0  0  0
    6.2369   48.7322  129.3758 C   0  0  0  0  0  0  0  0  0  0  0  0
    7.3399   48.6073  130.1767 C   0  0  0  0  0  0  0  0  0  0  0  0
    8.1109   47.4264  130.1263 C   0  0  0  0  0  0  0  0  0  0  0  0
    9.2184   47.1670  130.8503 C   0  0  0  0  0  0  0  0  0  0  0  0
    9.8300   45.9442  130.6449 C   0  0  0  0  0  0  0  0  0  0  0  0
    8.8239   45.2366  129.4594 S   0  0  0  0  0  0  0  0  0  0  0  0
    7.6807   46.4729  129.2546 C   0  0  0  0  0  0  0  0  0  0  0  0
    6.5573   46.6168  128.4482 C   0  0  0  0  0  0  0  0  0  0  0  0
    3.7354   47.6591  127.9483 H   0  0  0  0  0  0  0  0  0  0  0  0
    9.8295   48.0733  131.8789 C   0  0  0  0  0  0  0  0  0  0  0  0
   10.3343   47.5631  133.0523 C   0  0  0  0  0  0  0  0  0  0  0  0
   10.8758   48.4385  133.9663 C   0  0  0  0  0  0  0  0  0  0  0  0
   10.9293   49.8103  133.7447 C   0  0  0  0  0  0  0  0  0  0  0  0
   11.4699   50.6633  134.6566 F   0  0  0  0  0  0  0  0  0  0  0  0
   10.4212   50.2983  132.5717 C   0  0  0  0  0  0  0  0  0  0  0  0
    9.8777   49.4276  131.6523 C   0  0  0  0  0  0  0  0  0  0  0  0
   11.0384   45.4467  131.2985 C   0  0  0  0  0  0  0  0  0  0  0  0
   12.1174   45.6055  130.6202 O   0  0  0  0  0  0  0  0  0  0  0  0
   11.1227   44.8261  132.5807 C   0  0  0  0  0  0  0  0  0  0  0  0
   12.3723   44.9163  133.2406 C   0  0  0  0  0  0  0  0  0  0  0  0
   12.5580   44.3453  134.4666 C   0  0  0  0  0  0  0  0  0  0  0  0
   11.5030   43.6706  135.0641 C   0  0  0  0  0  0  0  0  0  0  0  0
   10.2833   43.5718  134.4395 C   0  0  0  0  0  0  0  0  0  0  0  0
   10.0964   44.1586  133.1824 C   0  0  0  0  0  0  0  0  0  0  0  0
   11.6769   43.0663  136.3464 C   0  0  0  0  0  0  0  0  0  0  0  0
   11.8000   42.5747  137.4000 N   0  0  0  0  0  0  0  0  0  0  0  0
  1  2  1  0  0  0
  2  3  2  0  0  0
  3  4  1  0  0  0
  4  5  2  0  0  0
  5  6  1  0  0  0
  6  7  2  0  0  0
  7  8  1  0  0  0
  8  9  1  0  0  0
  9 10  2  0  0  0
  7 19  1  0  0  0
 19 20  2  0  0  0
 19 21  1  0  0  0
 21 22  2  0  0  0
 22 23  1  0  0  0
 23 24  2  0  0  0
 24 25  1  0  0  0
 25 26  2  0  0  0
 24 27  1  0  0  0
 27 28  3  0  0  0
  6 12  1  0  0  0
 12 13  2  0  0  0
 13 14  1  0  0  0
 14 15  2  0  0  0
 15 16  1  0  0  0
 15 17  1  0  0  0
 17 18  2  0  0  0
 10  2  1  0  0  0
 26 21  1  0  0  0
 18 12  1  0  0  0
  9  5  1  0  0  0
  1 11  1  0  0  0
M  END
> <minimizedAffinity>
6.98356

> <CNNscore>
0.4872797430

> <CNNaffinity>
7.5872650146

> <CNN_VS>
3.6971204281

> <CNNaffinity_variance>
1.9612429142

$$$$
[H]Oc1c([H])c([H])c2c(-c3c([H])c([H])c(F)c([H])c3[H])c(C(=O)c3c([H])c([H])c(C#N)c([H])c3[H])sc2c1[H]


 28 31  0  0  0  0  0  0  0  0999 V2000
    6.3321   51.9412  128.6881 O   0  0  0  0  0  0  0  0  0  0  0  0
    6.9797   50.8614  129.2223 C   0  0  0  0  0  0  0  0  0  0  0  0
    7.0977   50.6468  130.5866 C   0  0  0  0  0  0  0  0  0  0  0  0
    7.7382   49.5789  131.1550 C   0  0  0  0  0  0  0  0  0  0  0  0
    8.3356   48.6018  130.3306 C   0  0  0  0  0  0  0  0  0  0  0  0
    8.9993   47.5050  130.7484 C   0  0  0  0  0  0  0  0  0  0  0  0
    9.5148   46.6735  129.7715 C   0  0  0  0  0  0  0  0  0  0  0  0
    9.0415   47.4718  128.3372 S   0  0  0  0  0  0  0  0  0  0  0  0
    8.2229   48.8068  128.9892 C   0  0  0  0  0  0  0  0  0  0  0  0
    7.5684   49.8980  128.4289 C   0  0  0  0  0  0  0  0  0  0  0  0
    5.3448   51.9848  128.4457 H   0  0  0  0  0  0  0  0  0  0  0  0
    9.2034   47.0909  132.1766 C   0  0  0  0  0  0  0  0  0  0  0  0
    8.2307   46.3885  132.8493 C   0  0  0  0  0  0  0  0  0  0  0  0
    8.4642   46.0408  134.1606 C   0  0  0  0  0  0  0  0  0  0  0  0
    9.6412   46.3732  134.8225 C   0  0  0  0  0  0  0  0  0  0  0  0
    9.8589   46.0205  136.1187 F   0  0  0  0  0  0  0  0  0  0  0  0
   10.5961   47.0728  134.1364 C   0  0  0  0  0  0  0  0  0  0  0  0
   10.3690   47.4241  132.8235 C   0  0  0  0  0  0  0  0  0  0  0  0
   10.2754   45.4432  129.9782 C   0  0  0  0  0  0  0  0  0  0  0  0
   11.2016   45.2352  129.1130 O   0  0  0  0  0  0  0  0  0  0  0  0
   10.0892   44.4886  131.0224 C   0  0  0  0  0  0  0  0  0  0  0  0
    8.8292   43.8438  131.0658 C   0  0  0  0  0  0  0  0  0  0  0  0
    8.5485   42.9226  132.0334 C   0  0  0  0  0  0  0  0  0  0  0  0
    9.5166   42.6223  132.9810 C   0  0  0  0  0  0  0  0  0  0  0  0
   10.7448   43.2377  132.9558 C   0  0  0  0  0  0  0  0  0  0  0  0
   11.0291   44.1817  131.9621 C   0  0  0  0  0  0  0  0  0  0  0  0
    9.2427   41.6616  134.0016 C   0  0  0  0  0  0  0  0  0  0  0  0
    9.0024   40.8855  134.8423 N   0  0  0  0  0  0  0  0  0  0  0  0
  1  2  1  0  0  0
  2  3  2  0  0  0
  3  4  1  0  0  0
  4  5  2  0  0  0
  5  6  1  0  0  0
  6  7  2  0  0  0
  7  8  1  0  0  0
  8  9  1  0  0  0
  9 10  2  0  0  0
  7 19  1  0  0  0
 19 20  2  0  0  0
 19 21  1  0  0  0
 21 22  2  0  0  0
 22 23  1  0  0  0
 23 24  2  0  0  0
 24 25  1  0  0  0
 25 26  2  0  0  0
 24 27  1  0  0  0
 27 28  3  0  0  0
  6 12  1  0  0  0
 12 13  2  0  0  0
 13 14  1  0  0  0
 14 15  2  0  0  0
 15 16  1  0  0  0
 15 17  1  0  0  0
 17 18  2  0  0  0
 10  2  1  0  0  0
 26 21  1  0  0  0
 18 12  1  0  0  0
  9  5  1  0  0  0
  1 11  1  0  0  0
M  END
> <minimizedAffinity>
-1.96160

> <CNNscore>
0.4832365513

> <CNNaffinity>
7.4954004288

> <CNN_VS>
3.6220514774

> <CNNaffinity_variance>
0.5110117793

$$$$
[H]Oc1c([H])c([H])c2c(-c3c([H])c([H])c(F)c([H])c3[H])c(C(=O)c3c([H])c([H])c(C#N)c([H])c3[H])sc2c1[H]


 28 31  0  0  0  0  0  0  0  0999 V2000
   11.5911   43.1987  136.5727 O   0  0  0  0  0  0  0  0  0  0  0  0
   11.2770   43.7447  135.3586 C   0  0  0  0  0  0  0  0  0  0  0  0
   11.1426   42.9936  134.2014 C   0  0  0  0  0  0  0  0  0  0  0  0
   10.8299   43.5064  132.9714 C   0  0  0  0  0  0  0  0  0  0  0  0
   10.6206   44.8942  132.8248 C   0  0  0  0  0  0  0  0  0  0  0  0
   10.3121   45.5364  131.6800 C   0  0  0  0  0  0  0  0  0  0  0  0
   10.1532   46.9079  131.7533 C   0  0  0  0  0  0  0  0  0  0  0  0
   10.4426   47.2127  133.4091 S   0  0  0  0  0  0  0  0  0  0  0  0
   10.7510   45.6376  133.9581 C   0  0  0  0  0  0  0  0  0  0  0  0
   11.0694   45.0997  135.1999 C   0  0  0  0  0  0  0  0  0  0  0  0
   10.9262   42.8599  137.2644 H   0  0  0  0  0  0  0  0  0  0  0  0
   10.0974   44.8934  130.3408 C   0  0  0  0  0  0  0  0  0  0  0  0
   11.0803   44.9303  129.3793 C   0  0  0  0  0  0  0  0  0  0  0  0
   10.8293   44.3332  128.1646 C   0  0  0  0  0  0  0  0  0  0  0  0
    9.6250   43.6988  127.8796 C   0  0  0  0  0  0  0  0  0  0  0  0
    9.3921   43.1106  126.6749 F   0  0  0  0  0  0  0  0  0  0  0  0
    8.6597   43.6735  128.8490 C   0  0  0  0  0  0  0  0  0  0  0  0
    8.9043   44.2694  130.0672 C   0  0  0  0  0  0  0  0  0  0  0  0
    9.8321   47.8140  130.6529 C   0  0  0  0  0  0  0  0  0  0  0  0
   10.8505   48.2398  129.9963 O   0  0  0  0  0  0  0  0  0  0  0  0
    8.5324   48.2484  130.2551 C   0  0  0  0  0  0  0  0  0  0  0  0
    8.1773   49.5724  130.6102 C   0  0  0  0  0  0  0  0  0  0  0  0
    6.9517   50.0782  130.2852 C   0  0  0  0  0  0  0  0  0  0  0  0
    6.0507   49.2767  129.5989 C   0  0  0  0  0  0  0  0  0  0  0  0
    6.3766   47.9894  129.2462 C   0  0  0  0  0  0  0  0  0  0  0  0
    7.6343   47.4741  129.5810 C   0  0  0  0  0  0  0  0  0  0  0  0
    4.7634   49.7871  129.2497 C   0  0  0  0  0  0  0  0  0  0  0  0
    3.7011   50.1889  128.9720 N   0  0  0  0  0  0  0  0  0  0  0  0
  1  2  1  0  0  0
  2  3  2  0  0  0
  3  4  1  0  0  0
  4  5  2  0  0  0
  5  6  1  0  0  0
  6  7  2  0  0  0
  7  8  1  0  0  0
  8  9  1  0  0  0
  9 10  2  0  0  0
  7 19  1  0  0  0
 19 20  2  0  0  0
 19 21  1  0  0  0
 21 22  2  0  0  0
 22 23  1  0  0  0
 23 24  2  0  0  0
 24 25  1  0  0  0
 25 26  2  0  0  0
 24 27  1  0  0  0
 27 28  3  0  0  0
  6 12  1  0  0  0
 12 13  2  0  0  0
 13 14  1  0  0  0
 14 15  2  0  0  0
 15 16  1  0  0  0
 15 17  1  0  0  0
 17 18  2  0  0  0
 10  2  1  0  0  0
 26 21  1  0  0  0
 18 12  1  0  0  0
  9  5  1  0  0  0
  1 11  1  0  0  0
M  END
> <minimizedAffinity>
-2.45368

> <CNNscore>
0.4824131429

> <CNNaffinity>
7.4831743240

> <CNN_VS>
3.6099815369

> <CNNaffinity_variance>
0.4775159955

$$$$
[H]Oc1c([H])c([H])c([C@@]2([H])[C@]([H])(C([H])([H])[H])c3c(F)c(O[H])c([H])c([H])c3O[C@@]2([H])c2c([H])c([H])c(OC([H])([H])C([H])([H])N3C([H])([H])C([H])([H])C([H])([H])C3([H])[H])c([H])c2[H])c([H])c1[H]


 36 40  0  0  0  0  0  0  0  0999 V2000
    8.0525   43.1009  129.4491 C   0  0  0  0  0  0  0  0  0  0  0  0
    8.5597   44.4819  129.0840 C   0  0  0  0  0  0  0  0  0  0  0  0
    8.1194   45.4228  130.2197 C   0  0  0  0  0  0  0  0  0  0  0  0
    9.1271   45.3690  131.2771 C   0  0  0  0  0  0  0  0  0  0  0  0
   10.4059   45.7322  130.8180 O   0  0  0  0  0  0  0  0  0  0  0  0
   10.9101   45.0656  129.7145 C   0  0  0  0  0  0  0  0  0  0  0  0
   12.2676   44.9972  129.4475 C   0  0  0  0  0  0  0  0  0  0  0  0
   12.7656   44.3354  128.3501 C   0  0  0  0  0  0  0  0  0  0  0  0
   11.8402   43.7301  127.5092 C   0  0  0  0  0  0  0  0  0  0  0  0
   12.3134   43.0620  126.4047 O   0  0  0  0  0  0  0  0  0  0  0  0
   10.4852   43.7891  127.7615 C   0  0  0  0  0  0  0  0  0  0  0  0
    9.6302   43.1800  126.9064 F   0  0  0  0  0  0  0  0  0  0  0  0
   10.0147   44.4613  128.8721 C   0  0  0  0  0  0  0  0  0  0  0  0
   11.6664   42.6152  125.7794 H   0  0  0  0  0  0  0  0  0  0  0  0
    7.7482   46.6671  129.5984 C   0  0  0  0  0  0  0  0  0  0  0  0
    8.6797   47.7217  129.6410 C   0  0  0  0  0  0  0  0  0  0  0  0
    8.4299   48.9384  129.0749 C   0  0  0  0  0  0  0  0  0  0  0  0
    7.2331   49.1645  128.4356 C   0  0  0  0  0  0  0  0  0  0  0  0
    6.9538   50.4032  127.8479 O   0  0  0  0  0  0  0  0  0  0  0  0
    6.2901   48.1549  128.3709 C   0  0  0  0  0  0  0  0  0  0  0  0
    6.5743   46.9130  128.9618 C   0  0  0  0  0  0  0  0  0  0  0  0
    7.6243   51.1472  127.8842 H   0  0  0  0  0  0  0  0  0  0  0  0
    8.7921   45.9996  132.5715 C   0  0  0  0  0  0  0  0  0  0  0  0
    9.2110   47.2928  132.7582 C   0  0  0  0  0  0  0  0  0  0  0  0
    8.9381   47.9434  133.9468 C   0  0  0  0  0  0  0  0  0  0  0  0
    8.2507   47.3032  134.9440 C   0  0  0  0  0  0  0  0  0  0  0  0
    7.8382   45.9765  134.7118 C   0  0  0  0  0  0  0  0  0  0  0  0
    8.1134   45.3374  133.5267 C   0  0  0  0  0  0  0  0  0  0  0  0
    7.9685   47.9024  136.1242 O   0  0  0  0  0  0  0  0  0  0  0  0
    8.6962   47.9565  137.2944 C   0  0  0  0  0  0  0  0  0  0  0  0
   10.0535   47.3700  137.1265 C   0  0  0  0  0  0  0  0  0  0  0  0
   10.1736   46.4155  136.0529 N   0  0  0  0  0  0  0  0  0  0  0  0
   11.1670   46.7038  135.0784 C   0  0  0  0  0  0  0  0  0  0  0  0
   11.7991   45.3947  134.6688 C   0  0  0  0  0  0  0  0  0  0  0  0
   10.9244   44.3355  135.2589 C   0  0  0  0  0  0  0  0  0  0  0  0
   10.3021   45.0549  136.4568 C   0  0  0  0  0  0  0  0  0  0  0  0
  1  2  1  0  0  0
  2  3  1  0  0  0
  3  4  1  0  0  0
  4  5  1  0  0  0
  5  6  1  0  0  0
  6  7  2  0  0  0
  7  8  1  0  0  0
  8  9  2  0  0  0
  9 10  1  0  0  0
  9 11  1  0  0  0
 11 12  1  0  0  0
 11 13  2  0  0  0
  4 23  1  0  0  0
 23 24  2  0  0  0
 24 25  1  0  0  0
 25 26  2  0  0  0
 26 29  1  0  0  0
 29 30  1  0  0  0
 30 31  1  0  0  0
 31 32  1  0  0  0
 32 33  1  0  0  0
 33 34  1  0  0  0
 34 35  1  0  0  0
 35 36  1  0  0  0
 26 27  1  0  0  0
 27 28  2  0  0  0
  3 15  1  0  0  0
 15 16  2  0  0  0
 16 17  1  0  0  0
 17 18  2  0  0  0
 18 19  1  0  0  0
 18 20  1  0  0  0
 20 21  2  0  0  0
 13  2  1  0  0  0
 28 23  1  0  0  0
 21 15  1  0  0  0
 13  6  1  0  0  0
 36 32  1  0  0  0
 10 14  1  0  0  0
 19 22  1  0  0  0
M  END
> <minimizedAffinity>
14.24331

> <CNNscore>
0.4450393915

> <CNNaffinity>
7.7833275795

> <CNN_VS>
3.4638874531

> <CNNaffinity_variance>
1.6233524084

$$$$
[H]Oc1c([H])c([H])c([C@@]2([H])[C@]([H])(C([H])([H])[H])c3c(F)c(O[H])c([H])c([H])c3O[C@@]2([H])c2c([H])c([H])c(OC([H])([H])C([H])([H])N3C([H])([H])C([H])([H])C([H])([H])C3([H])[H])c([H])c2[H])c([H])c1[H]


 36 40  0  0  0  0  0  0  0  0999 V2000
   10.5355   50.0848  133.1352 C   0  0  0  0  0  0  0  0  0  0  0  0
    9.2515   49.3433  132.8204 C   0  0  0  0  0  0  0  0  0  0  0  0
    9.5261   48.5135  131.5535 C   0  0  0  0  0  0  0  0  0  0  0  0
   10.1221   47.2417  131.9579 C   0  0  0  0  0  0  0  0  0  0  0  0
    9.2973   46.5190  132.8385 O   0  0  0  0  0  0  0  0  0  0  0  0
    8.8501   47.1622  133.9799 C   0  0  0  0  0  0  0  0  0  0  0  0
    8.4356   46.4695  135.1056 C   0  0  0  0  0  0  0  0  0  0  0  0
    7.9908   47.1108  136.2376 C   0  0  0  0  0  0  0  0  0  0  0  0
    7.9739   48.4995  136.2061 C   0  0  0  0  0  0  0  0  0  0  0  0
    7.5331   49.1641  137.3261 O   0  0  0  0  0  0  0  0  0  0  0  0
    8.3835   49.2037  135.0929 C   0  0  0  0  0  0  0  0  0  0  0  0
    8.3451   50.5569  135.1201 F   0  0  0  0  0  0  0  0  0  0  0  0
    8.8255   48.5317  133.9704 C   0  0  0  0  0  0  0  0  0  0  0  0
    7.5101   50.1684  137.3308 H   0  0  0  0  0  0  0  0  0  0  0  0
    8.3230   48.5623  130.7647 C   0  0  0  0  0  0  0  0  0  0  0  0
    7.7235   47.3384  130.4118 C   0  0  0  0  0  0  0  0  0  0  0  0
    6.5768   47.2742  129.6741 C   0  0  0  0  0  0  0  0  0  0  0  0
    5.9688   48.4328  129.2497 C   0  0  0  0  0  0  0  0  0  0  0  0
    4.7930   48.3928  128.4923 O   0  0  0  0  0  0  0  0  0  0  0  0
    6.5251   49.6566  129.5747 C   0  0  0  0  0  0  0  0  0  0  0  0
    7.7051   49.6925  130.3352 C   0  0  0  0  0  0  0  0  0  0  0  0
    4.3746   47.5158  128.2467 H   0  0  0  0  0  0  0  0  0  0  0  0
   10.6969   46.3892  130.8957 C   0  0  0  0  0  0  0  0  0  0  0  0
   10.3260   46.6714  129.6052 C   0  0  0  0  0  0  0  0  0  0  0  0
   10.8200   45.9116  128.5617 C   0  0  0  0  0  0  0  0  0  0  0  0
   11.6799   44.8739  128.8079 C   0  0  0  0  0  0  0  0  0  0  0  0
   12.0359   44.6180  130.1466 C   0  0  0  0  0  0  0  0  0  0  0  0
   11.5403   45.3789  131.1781 C   0  0  0  0  0  0  0  0  0  0  0  0
   12.1813   44.1025  127.8154 O   0  0  0  0  0  0  0  0  0  0  0  0
   11.6304   43.0213  127.1602 C   0  0  0  0  0  0  0  0  0  0  0  0
   10.1540   43.1516  127.0274 C   0  0  0  0  0  0  0  0  0  0  0  0
    9.4022   42.7479  128.1893 N   0  0  0  0  0  0  0  0  0  0  0  0
   10.1283   42.0246  129.1739 C   0  0  0  0  0  0  0  0  0  0  0  0
    9.6328   42.4730  130.5284 C   0  0  0  0  0  0  0  0  0  0  0  0
    8.4057   43.2802  130.2495 C   0  0  0  0  0  0  0  0  0  0  0  0
    8.6619   43.7845  128.8282 C   0  0  0  0  0  0  0  0  0  0  0  0
  1  2  1  0  0  0
  2  3  1  0  0  0
  3  4  1  0  0  0
  4  5  1  0  0  0
  5  6  1  0  0  0
  6  7  2  0  0  0
  7  8  1  0  0  0
  8  9  2  0  0  0
  9 10  1  0  0  0
  9 11  1  0  0  0
 11 12  1  0  0  0
 11 13  2  0  0  0
  4 23  1  0  0  0
 23 24  2  0  0  0
 24 25  1  0  0  0
 25 26  2  0  0  0
 26 29  1  0  0  0
 29 30  1  0  0  0
 30 31  1  0  0  0
 31 32  1  0  0  0
 32 33  1  0  0  0
 33 34  1  0  0  0
 34 35  1  0  0  0
 35 36  1  0  0  0
 26 27  1  0  0  0
 27 28  2  0  0  0
  3 15  1  0  0  0
 15 16  2  0  0  0
 16 17  1  0  0  0
 17 18  2  0  0  0
 18 19  1  0  0  0
 18 20  1  0  0  0
 20 21  2  0  0  0
 13  2  1  0  0  0
 28 23  1  0  0  0
 21 15  1  0  0  0
 13  6  1  0  0  0
 36 32  1  0  0  0
 10 14  1  0  0  0
 19 22  1  0  0  0
M  END
> <minimizedAffinity>
12.94982

> <CNNscore>
0.4304020703

> <CNNaffinity>
7.7323570251

> <CNN_VS>
3.3280224800

> <CNNaffinity_variance>
0.6741911173

$$$$
[H]Oc1c([H])c([H])c([C@@]2([H])[C@]([H])(C([H])([H])[H])c3c(F)c(O[H])c([H])c([H])c3O[C@@]2([H])c2c([H])c([H])c(OC([H])([H])C([H])([H])N3C([H])([H])C([H])([H])C([H])([H])C3([H])[H])c([H])c2[H])c([H])c1[H]


 36 40  0  0  0  0  0  0  0  0999 V2000
   12.8083   47.3268  132.9720 C   0  0  0  0  0  0  0  0  0  0  0  0
   11.6316   46.4246  132.6574 C   0  0  0  0  0  0  0  0  0  0  0  0
   10.4274   47.3497  132.4059 C   0  0  0  0  0  0  0  0  0  0  0  0
   10.4470   47.7575  131.0025 C   0  0  0  0  0  0  0  0  0  0  0  0
   10.4036   46.6596  130.1245 O   0  0  0  0  0  0  0  0  0  0  0  0
   11.3475   45.6608  130.2912 C   0  0  0  0  0  0  0  0  0  0  0  0
   11.6973   44.7947  129.2684 C   0  0  0  0  0  0  0  0  0  0  0  0
   12.6344   43.8028  129.4370 C   0  0  0  0  0  0  0  0  0  0  0  0
   13.2237   43.7032  130.6911 C   0  0  0  0  0  0  0  0  0  0  0  0
   14.1639   42.7190  130.8849 O   0  0  0  0  0  0  0  0  0  0  0  0
   12.8862   44.5581  131.7198 C   0  0  0  0  0  0  0  0  0  0  0  0
   13.4940   44.4135  132.9210 F   0  0  0  0  0  0  0  0  0  0  0  0
   11.9413   45.5451  131.5202 C   0  0  0  0  0  0  0  0  0  0  0  0
   14.6059   42.6241  131.7820 H   0  0  0  0  0  0  0  0  0  0  0  0
    9.2822   46.6951  132.9821 C   0  0  0  0  0  0  0  0  0  0  0  0
    9.1115   46.7855  134.3766 C   0  0  0  0  0  0  0  0  0  0  0  0
    8.0554   46.2085  135.0207 C   0  0  0  0  0  0  0  0  0  0  0  0
    7.1132   45.5094  134.3027 C   0  0  0  0  0  0  0  0  0  0  0  0
    6.0220   44.9090  134.9402 O   0  0  0  0  0  0  0  0  0  0  0  0
    7.2433   45.3966  132.9304 C   0  0  0  0  0  0  0  0  0  0  0  0
    8.3398   46.0007  132.2941 C   0  0  0  0  0  0  0  0  0  0  0  0
    5.9102   44.9797  135.9337 H   0  0  0  0  0  0  0  0  0  0  0  0
    9.5298   48.8428  130.5945 C   0  0  0  0  0  0  0  0  0  0  0  0
    8.5395   48.5156  129.7030 C   0  0  0  0  0  0  0  0  0  0  0  0
    7.6493   49.4815  129.2729 C   0  0  0  0  0  0  0  0  0  0  0  0
    7.7500   50.7685  129.7313 C   0  0  0  0  0  0  0  0  0  0  0  0
    8.7804   51.0624  130.6459 C   0  0  0  0  0  0  0  0  0  0  0  0
    9.6608   50.0957  131.0686 C   0  0  0  0  0  0  0  0  0  0  0  0
    6.9026   51.7447  129.3307 O   0  0  0  0  0  0  0  0  0  0  0  0
    6.6718   52.2667  128.0753 C   0  0  0  0  0  0  0  0  0  0  0  0
    6.7753   53.7511  128.0685 C   0  0  0  0  0  0  0  0  0  0  0  0
    7.2282   54.3221  126.8247 N   0  0  0  0  0  0  0  0  0  0  0  0
    8.6361   54.4541  126.6822 C   0  0  0  0  0  0  0  0  0  0  0  0
    8.9814   54.1420  125.2454 C   0  0  0  0  0  0  0  0  0  0  0  0
    7.6705   54.0967  124.5281 C   0  0  0  0  0  0  0  0  0  0  0  0
    6.6981   53.7195  125.6471 C   0  0  0  0  0  0  0  0  0  0  0  0
  1  2  1  0  0  0
  2  3  1  0  0  0
  3  4  1  0  0  0
  4  5  1  0  0  0
  5  6  1  0  0  0
  6  7  2  0  0  0
  7  8  1  0  0  0
  8  9  2  0  0  0
  9 10  1  0  0  0
  9 11  1  0  0  0
 11 12  1  0  0  0
 11 13  2  0  0  0
  4 23  1  0  0  0
 23 24  2  0  0  0
 24 25  1  0  0  0
 25 26  2  0  0  0
 26 29  1  0  0  0
 29 30  1  0  0  0
 30 31  1  0  0  0
 31 32  1  0  0  0
 32 33  1  0  0  0
 33 34  1  0  0  0
 34 35  1  0  0  0
 35 36  1  0  0  0
 26 27  1  0  0  0
 27 28  2  0  0  0
  3 15  1  0  0  0
 15 16  2  0  0  0
 16 17  1  0  0  0
 17 18  2  0  0  0
 18 19  1  0  0  0
 18 20  1  0  0  0
 20 21  2  0  0  0
 13  2  1  0  0  0
 28 23  1  0  0  0
 21 15  1  0  0  0
 13  6  1  0  0  0
 36 32  1  0  0  0
 10 14  1  0  0  0
 19 22  1  0  0  0
M  END
> <minimizedAffinity>
11.90997

> <CNNscore>
0.4104578197

> <CNNaffinity>
7.2012586594

> <CNN_VS>
2.9558129311

> <CNNaffinity_variance>
1.2692936659

$$$$
[H]Oc1c([H])c([H])c([C@@]2([H])[C@]([H])(C([H])([H])[H])c3c(F)c(O[H])c([H])c([H])c3O[C@@]2([H])c2c([H])c([H])c(OC([H])([H])C([H])([H])N3C([H])([H])C([H])([H])C([H])([H])C3([H])[H])c([H])c2[H])c([H])c1[H]


 36 40  0  0  0  0  0  0  0  0999 V2000
   13.1036   45.0191  131.2952 C   0  0  0  0  0  0  0  0  0  0  0  0
   11.8116   44.8872  132.0767 C   0  0  0  0  0  0  0  0  0  0  0  0
   11.0338   46.1974  131.8584 C   0  0  0  0  0  0  0  0  0  0  0  0
   10.2609   46.0723  130.6243 C   0  0  0  0  0  0  0  0  0  0  0  0
    9.3718   44.9831  130.6565 O   0  0  0  0  0  0  0  0  0  0  0  0
    9.8880   43.7360  130.9643 C   0  0  0  0  0  0  0  0  0  0  0  0
    9.2519   42.5609  130.5992 C   0  0  0  0  0  0  0  0  0  0  0  0
    9.7663   41.3236  130.9071 C   0  0  0  0  0  0  0  0  0  0  0  0
   10.9654   41.2995  131.6082 C   0  0  0  0  0  0  0  0  0  0  0  0
   11.5003   40.0740  131.9282 O   0  0  0  0  0  0  0  0  0  0  0  0
   11.6110   42.4609  131.9789 C   0  0  0  0  0  0  0  0  0  0  0  0
   12.7774   42.3756  132.6611 F   0  0  0  0  0  0  0  0  0  0  0  0
   11.0699   43.6894  131.6552 C   0  0  0  0  0  0  0  0  0  0  0  0
   12.3663   40.0271  132.4351 H   0  0  0  0  0  0  0  0  0  0  0  0
   10.4008   46.5103  133.1128 C   0  0  0  0  0  0  0  0  0  0  0  0
   10.3770   47.8597  133.5135 C   0  0  0  0  0  0  0  0  0  0  0  0
    9.7944   48.2637  134.6799 C   0  0  0  0  0  0  0  0  0  0  0  0
    9.2044   47.3376  135.5084 C   0  0  0  0  0  0  0  0  0  0  0  0
    8.6011   47.7271  136.7092 O   0  0  0  0  0  0  0  0  0  0  0  0
    9.2057   46.0012  135.1521 C   0  0  0  0  0  0  0  0  0  0  0  0
    9.8121   45.6143  133.9459 C   0  0  0  0  0  0  0  0  0  0  0  0
    8.5899   48.6907  136.9847 H   0  0  0  0  0  0  0  0  0  0  0  0
    9.6331   47.2974  130.0853 C   0  0  0  0  0  0  0  0  0  0  0  0
    9.7611   48.4405  130.8333 C   0  0  0  0  0  0  0  0  0  0  0  0
    9.1942   49.6219  130.3934 C   0  0  0  0  0  0  0  0  0  0  0  0
    8.5018   49.6593  129.2119 C   0  0  0  0  0  0  0  0  0  0  0  0
    8.3943   48.4641  128.4742 C   0  0  0  0  0  0  0  0  0  0  0  0
    8.9615   47.2939  128.9188 C   0  0  0  0  0  0  0  0  0  0  0  0
    7.9271   50.7937  128.7490 O   0  0  0  0  0  0  0  0  0  0  0  0
    6.6065   51.1911  128.7527 C   0  0  0  0  0  0  0  0  0  0  0  0
    5.8943   50.7244  129.9730 C   0  0  0  0  0  0  0  0  0  0  0  0
    5.3163   49.4076  129.8721 N   0  0  0  0  0  0  0  0  0  0  0  0
    4.9796   48.9800  128.5592 C   0  0  0  0  0  0  0  0  0  0  0  0
    5.2986   47.5069  128.4625 C   0  0  0  0  0  0  0  0  0  0  0  0
    5.5725   47.0720  129.8664 C   0  0  0  0  0  0  0  0  0  0  0  0
    6.0428   48.3700  130.5251 C   0  0  0  0  0  0  0  0  0  0  0  0
  1  2  1  0  0  0
  2  3  1  0  0  0
  3  4  1  0  0  0
  4  5  1  0  0  0
  5  6  1  0  0  0
  6  7  2  0  0  0
  7  8  1  0  0  0
  8  9  2  0  0  0
  9 10  1  0  0  0
  9 11  1  0  0  0
 11 12  1  0  0  0
 11 13  2  0  0  0
  4 23  1  0  0  0
 23 24  2  0  0  0
 24 25  1  0  0  0
 25 26  2  0  0  0
 26 29  1  0  0  0
 29 30  1  0  0  0
 30 31  1  0  0  0
 31 32  1  0  0  0
 32 33  1  0  0  0
 33 34  1  0  0  0
 34 35  1  0  0  0
 35 36  1  0  0  0
 26 27  1  0  0  0
 27 28  2  0  0  0
  3 15  1  0  0  0
 15 16  2  0  0  0
 16 17  1  0  0  0
 17 18  2  0  0  0
 18 19  1  0  0  0
 18 20  1  0  0  0
 20 21  2  0  0  0
 13  2  1  0  0  0
 28 23  1  0  0  0
 21 15  1  0  0  0
 13  6  1  0  0  0
 36 32  1  0  0  0
 10 14  1  0  0  0
 19 22  1  0  0  0
M  END
> <minimizedAffinity>
5.20628

> <CNNscore>
0.3997039199

> <CNNaffinity>
7.7901368141

> <CNN_VS>
3.1137483120

> <CNNaffinity_variance>
0.8967950940

$$$$
[H]Oc1c([H])c([H])c([C@@]2([H])[C@]([H])(C([H])([H])[H])c3c(F)c(O[H])c([H])c([H])c3O[C@@]2([H])c2c([H])c([H])c(OC([H])([H])C([H])([H])N3C([H])([H])C([H])([H])C([H])([H])C3([H])[H])c([H])c2[H])c([H])c1[H]


 36 40  0  0  0  0  0  0  0  0999 V2000
   13.2811   45.9880  132.8591 C   0  0  0  0  0  0  0  0  0  0  0  0
   12.2668   45.1207  132.1405 C   0  0  0  0  0  0  0  0  0  0  0  0
   10.9203   45.8617  132.2262 C   0  0  0  0  0  0  0  0  0  0  0  0
   10.8465   46.8095  131.1161 C   0  0  0  0  0  0  0  0  0  0  0  0
   10.9721   46.1803  129.8645 O   0  0  0  0  0  0  0  0  0  0  0  0
   12.0728   45.3666  129.6576 C   0  0  0  0  0  0  0  0  0  0  0  0
   12.5445   45.0679  128.3900 C   0  0  0  0  0  0  0  0  0  0  0  0
   13.6373   44.2585  128.1872 C   0  0  0  0  0  0  0  0  0  0  0  0
   14.2571   43.7459  129.3200 C   0  0  0  0  0  0  0  0  0  0  0  0
   15.3522   42.9336  129.1435 O   0  0  0  0  0  0  0  0  0  0  0  0
   13.7994   44.0342  130.5890 C   0  0  0  0  0  0  0  0  0  0  0  0
   14.4440   43.5060  131.6561 F   0  0  0  0  0  0  0  0  0  0  0  0
   12.6992   44.8507  130.7611 C   0  0  0  0  0  0  0  0  0  0  0  0
   15.8197   42.5489  129.9451 H   0  0  0  0  0  0  0  0  0  0  0  0
    9.9114   44.8538  132.4219 C   0  0  0  0  0  0  0  0  0  0  0  0
    9.0359   45.0096  133.5133 C   0  0  0  0  0  0  0  0  0  0  0  0
    8.0397   44.1160  133.7822 C   0  0  0  0  0  0  0  0  0  0  0  0
    7.8668   43.0177  132.9723 C   0  0  0  0  0  0  0  0  0  0  0  0
    6.8531   42.0877  133.2275 O   0  0  0  0  0  0  0  0  0  0  0  0
    8.7053   42.8271  131.8891 C   0  0  0  0  0  0  0  0  0  0  0  0
    9.7215   43.7628  131.6362 C   0  0  0  0  0  0  0  0  0  0  0  0
    6.2353   42.2084  134.0074 H   0  0  0  0  0  0  0  0  0  0  0  0
    9.7534   47.8046  131.1401 C   0  0  0  0  0  0  0  0  0  0  0  0
    8.5311   47.3725  131.5894 C   0  0  0  0  0  0  0  0  0  0  0  0
    7.4618   48.2471  131.6336 C   0  0  0  0  0  0  0  0  0  0  0  0
    7.6142   49.5472  131.2293 C   0  0  0  0  0  0  0  0  0  0  0  0
    8.8853   49.9504  130.7756 C   0  0  0  0  0  0  0  0  0  0  0  0
    9.9432   49.0742  130.7354 C   0  0  0  0  0  0  0  0  0  0  0  0
    6.5915   50.4333  131.2514 O   0  0  0  0  0  0  0  0  0  0  0  0
    5.6110   50.6884  130.3158 C   0  0  0  0  0  0  0  0  0  0  0  0
    4.9271   49.4406  129.8804 C   0  0  0  0  0  0  0  0  0  0  0  0
    5.6237   48.6889  128.8665 N   0  0  0  0  0  0  0  0  0  0  0  0
    6.8344   49.2639  128.3940 C   0  0  0  0  0  0  0  0  0  0  0  0
    7.8142   48.1385  128.1603 C   0  0  0  0  0  0  0  0  0  0  0  0
    7.0046   46.8860  128.2639 C   0  0  0  0  0  0  0  0  0  0  0  0
    5.8515   47.3159  129.1725 C   0  0  0  0  0  0  0  0  0  0  0  0
  1  2  1  0  0  0
  2  3  1  0  0  0
  3  4  1  0  0  0
  4  5  1  0  0  0
  5  6  1  0  0  0
  6  7  2  0  0  0
  7  8  1  0  0  0
  8  9  2  0  0  0
  9 10  1  0  0  0
  9 11  1  0  0  0
 11 12  1  0  0  0
 11 13  2  0  0  0
  4 23  1  0  0  0
 23 24  2  0  0  0
 24 25  1  0  0  0
 25 26  2  0  0  0
 26 29  1  0  0  0
 29 30  1  0  0  0
 30 31  1  0  0  0
 31 32  1  0  0  0
 32 33  1  0  0  0
 33 34  1  0  0  0
 34 35  1  0  0  0
 35 36  1  0  0  0
 26 27  1  0  0  0
 27 28  2  0  0  0
  3 15  1  0  0  0
 15 16  2  0  0  0
 16 17  1  0  0  0
 17 18  2  0  0  0
 18 19  1  0  0  0
 18 20  1  0  0  0
 20 21  2  0  0  0
 13  2  1  0  0  0
 28 23  1  0  0  0
 21 15  1  0  0  0
 13  6  1  0  0  0
 36 32  1  0  0  0
 10 14  1  0  0  0
 19 22  1  0  0  0
M  END
> <minimizedAffinity>
11.23560

> <CNNscore>
0.3881303668

> <CNNaffinity>
7.5325937271

> <CNN_VS>
2.9236283302

> <CNNaffinity_variance>
0.7968648672

$$$$
[H]Oc1c([H])c([H])c([C@@]2([H])[C@]([H])(C([H])([H])[H])c3c(F)c(O[H])c([H])c([H])c3O[C@@]2([H])c2c([H])c([H])c(OC([H])([H])C([H])([H])N3C([H])([H])C([H])([H])C([H])([H])C3([H])[H])c([H])c2[H])c([H])c1[H]


 36 40  0  0  0  0  0  0  0  0999 V2000
    7.8480   43.6303  131.1924 C   0  0  0  0  0  0  0  0  0  0  0  0
    8.3087   44.8570  130.4305 C   0  0  0  0  0  0  0  0  0  0  0  0
    8.6525   45.9229  131.4865 C   0  0  0  0  0  0  0  0  0  0  0  0
   10.0332   45.7133  131.9176 C   0  0  0  0  0  0  0  0  0  0  0  0
   10.9448   45.7814  130.8488 O   0  0  0  0  0  0  0  0  0  0  0  0
   10.7141   44.9720  129.7497 C   0  0  0  0  0  0  0  0  0  0  0  0
   11.7225   44.6115  128.8712 C   0  0  0  0  0  0  0  0  0  0  0  0
   11.4904   43.8082  127.7798 C   0  0  0  0  0  0  0  0  0  0  0  0
   10.1866   43.3672  127.5914 C   0  0  0  0  0  0  0  0  0  0  0  0
    9.9288   42.5626  126.5067 O   0  0  0  0  0  0  0  0  0  0  0  0
    9.1714   43.7174  128.4573 C   0  0  0  0  0  0  0  0  0  0  0  0
    7.9197   43.2574  128.2232 F   0  0  0  0  0  0  0  0  0  0  0  0
    9.4353   44.5256  129.5454 C   0  0  0  0  0  0  0  0  0  0  0  0
    8.9948   42.2295  126.3462 H   0  0  0  0  0  0  0  0  0  0  0  0
    8.2164   47.1852  130.9494 C   0  0  0  0  0  0  0  0  0  0  0  0
    9.0002   48.3202  131.2307 C   0  0  0  0  0  0  0  0  0  0  0  0
    8.6799   49.5617  130.7625 C   0  0  0  0  0  0  0  0  0  0  0  0
    7.5568   49.7334  129.9871 C   0  0  0  0  0  0  0  0  0  0  0  0
    7.2075   50.9960  129.4957 O   0  0  0  0  0  0  0  0  0  0  0  0
    6.7591   48.6442  129.6870 C   0  0  0  0  0  0  0  0  0  0  0  0
    7.1130   47.3785  130.1820 C   0  0  0  0  0  0  0  0  0  0  0  0
    7.7728   51.7974  129.7021 H   0  0  0  0  0  0  0  0  0  0  0  0
   10.4984   46.4619  133.1045 C   0  0  0  0  0  0  0  0  0  0  0  0
   10.9861   47.7261  132.8885 C   0  0  0  0  0  0  0  0  0  0  0  0
   11.4440   48.4817  133.9515 C   0  0  0  0  0  0  0  0  0  0  0  0
   11.4152   47.9748  135.2239 C   0  0  0  0  0  0  0  0  0  0  0  0
   10.9063   46.6734  135.4023 C   0  0  0  0  0  0  0  0  0  0  0  0
   10.4527   45.9293  134.3398 C   0  0  0  0  0  0  0  0  0  0  0  0
   11.8592   48.6795  136.2906 O   0  0  0  0  0  0  0  0  0  0  0  0
   12.6442   49.8118  136.3483 C   0  0  0  0  0  0  0  0  0  0  0  0
   13.5824   49.7733  137.5028 C   0  0  0  0  0  0  0  0  0  0  0  0
   14.7631   48.9719  137.2987 N   0  0  0  0  0  0  0  0  0  0  0  0
   15.3211   48.3857  138.4670 C   0  0  0  0  0  0  0  0  0  0  0  0
   15.8170   47.0084  138.0951 C   0  0  0  0  0  0  0  0  0  0  0  0
   15.7570   46.9600  136.6021 C   0  0  0  0  0  0  0  0  0  0  0  0
   14.6572   47.9752  136.2858 C   0  0  0  0  0  0  0  0  0  0  0  0
  1  2  1  0  0  0
  2  3  1  0  0  0
  3  4  1  0  0  0
  4  5  1  0  0  0
  5  6  1  0  0  0
  6  7  2  0  0  0
  7  8  1  0  0  0
  8  9  2  0  0  0
  9 10  1  0  0  0
  9 11  1  0  0  0
 11 12  1  0  0  0
 11 13  2  0  0  0
  4 23  1  0  0  0
 23 24  2  0  0  0
 24 25  1  0  0  0
 25 26  2  0  0  0
 26 29  1  0  0  0
 29 30  1  0  0  0
 30 31  1  0  0  0
 31 32  1  0  0  0
 32 33  1  0  0  0
 33 34  1  0  0  0
 34 35  1  0  0  0
 35 36  1  0  0  0
 26 27  1  0  0  0
 27 28  2  0  0  0
  3 15  1  0  0  0
 15 16  2  0  0  0
 16 17  1  0  0  0
 17 18  2  0  0  0
 18 19  1  0  0  0
 18 20  1  0  0  0
 20 21  2  0  0  0
 13  2  1  0  0  0
 28 23  1  0  0  0
 21 15  1  0  0  0
 13  6  1  0  0  0
 36 32  1  0  0  0
 10 14  1  0  0  0
 19 22  1  0  0  0
M  END
> <minimizedAffinity>
19.17540

> <CNNscore>
0.3572339714

> <CNNaffinity>
7.5905561447

> <CNN_VS>
2.7116045952

> <CNNaffinity_variance>
1.6553074121

$$$$
[H]Oc1c([H])c([H])c([C@@]2([H])[C@]([H])(C([H])([H])[H])c3c(F)c(O[H])c([H])c([H])c3O[C@@]2([H])c2c([H])c([H])c(OC([H])([H])C([H])([H])N3C([H])([H])C([H])([H])C([H])([H])C3([H])[H])c([H])c2[H])c([H])c1[H]


 36 40  0  0  0  0  0  0  0  0999 V2000
    9.4470   48.9601  129.1185 C   0  0  0  0  0  0  0  0  0  0  0  0
    8.9389   47.5388  128.9802 C   0  0  0  0  0  0  0  0  0  0  0  0
    9.9088   46.6491  129.7783 C   0  0  0  0  0  0  0  0  0  0  0  0
    9.4745   46.6331  131.1737 C   0  0  0  0  0  0  0  0  0  0  0  0
    8.1571   46.1627  131.3199 O   0  0  0  0  0  0  0  0  0  0  0  0
    7.1656   46.7741  130.5719 C   0  0  0  0  0  0  0  0  0  0  0  0
    5.8299   46.7296  130.9362 C   0  0  0  0  0  0  0  0  0  0  0  0
    4.8470   47.3369  130.1909 C   0  0  0  0  0  0  0  0  0  0  0  0
    5.2531   48.0056  129.0429 C   0  0  0  0  0  0  0  0  0  0  0  0
    4.2887   48.6210  128.2804 O   0  0  0  0  0  0  0  0  0  0  0  0
    6.5793   48.0590  128.6669 C   0  0  0  0  0  0  0  0  0  0  0  0
    6.9159   48.7257  127.5375 F   0  0  0  0  0  0  0  0  0  0  0  0
    7.5443   47.4394  129.4360 C   0  0  0  0  0  0  0  0  0  0  0  0
    4.5542   49.1116  127.4450 H   0  0  0  0  0  0  0  0  0  0  0  0
   10.0606   45.4321  129.0246 C   0  0  0  0  0  0  0  0  0  0  0  0
    9.3947   44.2849  129.4959 C   0  0  0  0  0  0  0  0  0  0  0  0
    9.4658   43.0840  128.8510 C   0  0  0  0  0  0  0  0  0  0  0  0
   10.2084   42.9673  127.6990 C   0  0  0  0  0  0  0  0  0  0  0  0
   10.2968   41.7471  127.0201 O   0  0  0  0  0  0  0  0  0  0  0  0
   10.8783   44.0704  127.2017 C   0  0  0  0  0  0  0  0  0  0  0  0
   10.7869   45.2934  127.8858 C   0  0  0  0  0  0  0  0  0  0  0  0
    9.8186   40.9365  127.3646 H   0  0  0  0  0  0  0  0  0  0  0  0
   10.3969   46.0459  132.1687 C   0  0  0  0  0  0  0  0  0  0  0  0
    9.8504   45.1908  133.0922 C   0  0  0  0  0  0  0  0  0  0  0  0
   10.6526   44.6095  134.0560 C   0  0  0  0  0  0  0  0  0  0  0  0
   11.9943   44.8831  134.0966 C   0  0  0  0  0  0  0  0  0  0  0  0
   12.5154   45.7656  133.1302 C   0  0  0  0  0  0  0  0  0  0  0  0
   11.7106   46.3388  132.1751 C   0  0  0  0  0  0  0  0  0  0  0  0
   12.8128   44.3395  135.0273 O   0  0  0  0  0  0  0  0  0  0  0  0
   14.1224   44.6326  135.3449 C   0  0  0  0  0  0  0  0  0  0  0  0
   14.4593   46.0495  135.0395 C   0  0  0  0  0  0  0  0  0  0  0  0
   14.1865   46.9813  136.1051 N   0  0  0  0  0  0  0  0  0  0  0  0
   15.2678   47.2414  136.9899 C   0  0  0  0  0  0  0  0  0  0  0  0
   15.2192   48.7067  137.3528 C   0  0  0  0  0  0  0  0  0  0  0  0
   13.8993   49.1926  136.8459 C   0  0  0  0  0  0  0  0  0  0  0  0
   13.6109   48.2205  135.7005 C   0  0  0  0  0  0  0  0  0  0  0  0
  1  2  1  0  0  0
  2  3  1  0  0  0
  3  4  1  0  0  0
  4  5  1  0  0  0
  5  6  1  0  0  0
  6  7  2  0  0  0
  7  8  1  0  0  0
  8  9  2  0  0  0
  9 10  1  0  0  0
  9 11  1  0  0  0
 11 12  1  0  0  0
 11 13  2  0  0  0
  4 23  1  0  0  0
 23 24  2  0  0  0
 24 25  1  0  0  0
 25 26  2  0  0  0
 26 29  1  0  0  0
 29 30  1  0  0  0
 30 31  1  0  0  0
 31 32  1  0  0  0
 32 33  1  0  0  0
 33 34  1  0  0  0
 34 35  1  0  0  0
 35 36  1  0  0  0
 26 27  1  0  0  0
 27 28  2  0  0  0
  3 15  1  0  0  0
 15 16  2  0  0  0
 16 17  1  0  0  0
 17 18  2  0  0  0
 18 19  1  0  0  0
 18 20  1  0  0  0
 20 21  2  0  0  0
 13  2  1  0  0  0
 28 23  1  0  0  0
 21 15  1  0  0  0
 13  6  1  0  0  0
 36 32  1  0  0  0
 10 14  1  0  0  0
 19 22  1  0  0  0
M  END
> <minimizedAffinity>
19.41025

> <CNNscore>
0.3516742885

> <CNNaffinity>
7.3422417641

> <CNN_VS>
2.5820777416

> <CNNaffinity_variance>
1.6798111200

$$$$
[H]Oc1c([H])c([H])c([C@@]2([H])[C@]([H])(C([H])([H])[H])c3c(F)c(O[H])c([H])c([H])c3O[C@@]2([H])c2c([H])c([H])c(OC([H])([H])C([H])([H])N3C([H])([H])C([H])([H])C([H])([H])C3([H])[H])c([H])c2[H])c([H])c1[H]


 36 40  0  0  0  0  0  0  0  0999 V2000
    9.7045   48.7708  129.2444 C   0  0  0  0  0  0  0  0  0  0  0  0
    9.1297   47.3978  128.9580 C   0  0  0  0  0  0  0  0  0  0  0  0
    9.9170   46.4044  129.8313 C   0  0  0  0  0  0  0  0  0  0  0  0
    9.2894   46.3552  131.1503 C   0  0  0  0  0  0  0  0  0  0  0  0
    7.9369   45.9749  131.0867 O   0  0  0  0  0  0  0  0  0  0  0  0
    7.1031   46.6904  130.2445 C   0  0  0  0  0  0  0  0  0  0  0  0
    5.7293   46.7256  130.4179 C   0  0  0  0  0  0  0  0  0  0  0  0
    4.9033   47.4362  129.5793 C   0  0  0  0  0  0  0  0  0  0  0  0
    5.5104   48.1263  128.5376 C   0  0  0  0  0  0  0  0  0  0  0  0
    4.7057   48.8443  127.6849 O   0  0  0  0  0  0  0  0  0  0  0  0
    6.8771   48.1011  128.3517 C   0  0  0  0  0  0  0  0  0  0  0  0
    7.4128   48.7932  127.3187 F   0  0  0  0  0  0  0  0  0  0  0  0
    7.6812   47.3784  129.2107 C   0  0  0  0  0  0  0  0  0  0  0  0
    5.1181   49.3526  126.9229 H   0  0  0  0  0  0  0  0  0  0  0  0
   10.0944   45.2158  129.0389 C   0  0  0  0  0  0  0  0  0  0  0  0
    9.1673   44.1708  129.2126 C   0  0  0  0  0  0  0  0  0  0  0  0
    9.2404   43.0060  128.5047 C   0  0  0  0  0  0  0  0  0  0  0  0
   10.2467   42.8249  127.5845 C   0  0  0  0  0  0  0  0  0  0  0  0
   10.3429   41.6399  126.8469 O   0  0  0  0  0  0  0  0  0  0  0  0
   11.1785   43.8270  127.3829 C   0  0  0  0  0  0  0  0  0  0  0  0
   11.0785   45.0150  128.1251 C   0  0  0  0  0  0  0  0  0  0  0  0
    9.6773   40.9023  126.9786 H   0  0  0  0  0  0  0  0  0  0  0  0
   10.0216   45.6575  132.2286 C   0  0  0  0  0  0  0  0  0  0  0  0
    9.5212   44.4462  132.6349 C   0  0  0  0  0  0  0  0  0  0  0  0
   10.1512   43.7407  133.6427 C   0  0  0  0  0  0  0  0  0  0  0  0
   11.2754   44.2447  134.2419 C   0  0  0  0  0  0  0  0  0  0  0  0
   11.7566   45.4909  133.7949 C   0  0  0  0  0  0  0  0  0  0  0  0
   11.1242   46.1855  132.7918 C   0  0  0  0  0  0  0  0  0  0  0  0
   11.9183   43.5885  135.2356 O   0  0  0  0  0  0  0  0  0  0  0  0
   11.5538   43.3796  136.5492 C   0  0  0  0  0  0  0  0  0  0  0  0
   10.5701   44.3940  137.0158 C   0  0  0  0  0  0  0  0  0  0  0  0
   10.0672   45.2698  135.9870 N   0  0  0  0  0  0  0  0  0  0  0  0
    8.7745   44.9562  135.4867 C   0  0  0  0  0  0  0  0  0  0  0  0
    8.0546   46.2593  135.2319 C   0  0  0  0  0  0  0  0  0  0  0  0
    9.1037   47.3173  135.3548 C   0  0  0  0  0  0  0  0  0  0  0  0
   10.1220   46.6613  136.2890 C   0  0  0  0  0  0  0  0  0  0  0  0
  1  2  1  0  0  0
  2  3  1  0  0  0
  3  4  1  0  0  0
  4  5  1  0  0  0
  5  6  1  0  0  0
  6  7  2  0  0  0
  7  8  1  0  0  0
  8  9  2  0  0  0
  9 10  1  0  0  0
  9 11  1  0  0  0
 11 12  1  0  0  0
 11 13  2  0  0  0
  4 23  1  0  0  0
 23 24  2  0  0  0
 24 25  1  0  0  0
 25 26  2  0  0  0
 26 29  1  0  0  0
 29 30  1  0  0  0
 30 31  1  0  0  0
 31 32  1  0  0  0
 32 33  1  0  0  0
 33 34  1  0  0  0
 34 35  1  0  0  0
 35 36  1  0  0  0
 26 27  1  0  0  0
 27 28  2  0  0  0
  3 15  1  0  0  0
 15 16  2  0  0  0
 16 17  1  0  0  0
 17 18  2  0  0  0
 18 19  1  0  0  0
 18 20  1  0  0  0
 20 21  2  0  0  0
 13  2  1  0  0  0
 28 23  1  0  0  0
 21 15  1  0  0  0
 13  6  1  0  0  0
 36 32  1  0  0  0
 10 14  1  0  0  0
 19 22  1  0  0  0
M  END
> <minimizedAffinity>
8.69619

> <CNNscore>
0.3513152897

> <CNNaffinity>
7.5596160889

> <CNN_VS>
2.6558086872

> <CNNaffinity_variance>
0.8626487851

$$$$
[H]Oc1c([H])c([H])c([C@@]2([H])[C@]([H])(C([H])([H])[H])c3c(F)c(O[H])c([H])c([H])c3O[C@@]2([H])c2c([H])c([H])c(OC([H])([H])C([H])([H])N3C([H])([H])C([H])([H])C([H])([H])C3([H])[H])c([H])c2[H])c([H])c1[H]


 36 40  0  0  0  0  0  0  0  0999 V2000
   11.9060   46.2087  127.7920 C   0  0  0  0  0  0  0  0  0  0  0  0
   11.2127   45.3388  128.8216 C   0  0  0  0  0  0  0  0  0  0  0  0
   10.1189   46.2107  129.4642 C   0  0  0  0  0  0  0  0  0  0  0  0
    8.9187   46.1271  128.6343 C   0  0  0  0  0  0  0  0  0  0  0  0
    8.4588   44.8061  128.4884 O   0  0  0  0  0  0  0  0  0  0  0  0
    9.3571   43.8551  128.0354 C   0  0  0  0  0  0  0  0  0  0  0  0
    8.9469   42.6762  127.4349 C   0  0  0  0  0  0  0  0  0  0  0  0
    9.8412   41.7328  126.9869 C   0  0  0  0  0  0  0  0  0  0  0  0
   11.1903   42.0137  127.1633 C   0  0  0  0  0  0  0  0  0  0  0  0
   12.1045   41.0857  126.7237 O   0  0  0  0  0  0  0  0  0  0  0  0
   11.6146   43.1832  127.7594 C   0  0  0  0  0  0  0  0  0  0  0  0
   12.9427   43.4028  127.9045 F   0  0  0  0  0  0  0  0  0  0  0  0
   10.6925   44.1122  128.1992 C   0  0  0  0  0  0  0  0  0  0  0  0
   13.0866   41.2629  126.8388 H   0  0  0  0  0  0  0  0  0  0  0  0
   10.0915   45.8672  130.8618 C   0  0  0  0  0  0  0  0  0  0  0  0
   10.1316   44.5011  131.1993 C   0  0  0  0  0  0  0  0  0  0  0  0
   10.1192   44.0693  132.4941 C   0  0  0  0  0  0  0  0  0  0  0  0
   10.0655   44.9829  133.5211 C   0  0  0  0  0  0  0  0  0  0  0  0
   10.0515   44.5649  134.8562 O   0  0  0  0  0  0  0  0  0  0  0  0
   10.0249   46.3350  133.2330 C   0  0  0  0  0  0  0  0  0  0  0  0
   10.0393   46.7506  131.8916 C   0  0  0  0  0  0  0  0  0  0  0  0
   10.0804   43.5897  135.0852 H   0  0  0  0  0  0  0  0  0  0  0  0
    7.8233   47.0775  128.9213 C   0  0  0  0  0  0  0  0  0  0  0  0
    6.8916   46.6879  129.8502 C   0  0  0  0  0  0  0  0  0  0  0  0
    5.8364   47.5237  130.1639 C   0  0  0  0  0  0  0  0  0  0  0  0
    5.7132   48.7425  129.5508 C   0  0  0  0  0  0  0  0  0  0  0  0
    6.6912   49.1045  128.6038 C   0  0  0  0  0  0  0  0  0  0  0  0
    7.7374   48.2675  128.2982 C   0  0  0  0  0  0  0  0  0  0  0  0
    4.6922   49.5874  129.8253 O   0  0  0  0  0  0  0  0  0  0  0  0
    4.6775   50.7682  130.5375 C   0  0  0  0  0  0  0  0  0  0  0  0
    6.0436   51.3396  130.6848 C   0  0  0  0  0  0  0  0  0  0  0  0
    7.1012   50.3652  130.7861 N   0  0  0  0  0  0  0  0  0  0  0  0
    8.3540   50.7545  130.2394 C   0  0  0  0  0  0  0  0  0  0  0  0
    9.4356   50.2106  131.1425 C   0  0  0  0  0  0  0  0  0  0  0  0
    8.7361   49.2678  132.0682 C   0  0  0  0  0  0  0  0  0  0  0  0
    7.3117   49.8253  132.0880 C   0  0  0  0  0  0  0  0  0  0  0  0
  1  2  1  0  0  0
  2  3  1  0  0  0
  3  4  1  0  0  0
  4  5  1  0  0  0
  5  6  1  0  0  0
  6  7  2  0  0  0
  7  8  1  0  0  0
  8  9  2  0  0  0
  9 10  1  0  0  0
  9 11  1  0  0  0
 11 12  1  0  0  0
 11 13  2  0  0  0
  4 23  1  0  0  0
 23 24  2  0  0  0
 24 25  1  0  0  0
 25 26  2  0  0  0
 26 29  1  0  0  0
 29 30  1  0  0  0
 30 31  1  0  0  0
 31 32  1  0  0  0
 32 33  1  0  0  0
 33 34  1  0  0  0
 34 35  1  0  0  0
 35 36  1  0  0  0
 26 27  1  0  0  0
 27 28  2  0  0  0
  3 15  1  0  0  0
 15 16  2  0  0  0
 16 17  1  0  0  0
 17 18  2  0  0  0
 18 19  1  0  0  0
 18 20  1  0  0  0
 20 21  2  0  0  0
 13  2  1  0  0  0
 28 23  1  0  0  0
 21 15  1  0  0  0
 13  6  1  0  0  0
 36 32  1  0  0  0
 10 14  1  0  0  0
 19 22  1  0  0  0
M  END
> <minimizedAffinity>
20.83099

> <CNNscore>
0.3443055451

> <CNNaffinity>
7.3503799438

> <CNN_VS>
2.5307765007

> <CNNaffinity_variance>
0.5663479567

$$$$
