[H]Oc1c([H])c([H])c([C@@]2([H])Sc3c([H])c(O[H])c([H])c([H])c3O[C@@]2([H])c2c([H])c([H])c(OC([H])([H])C([H])([H])N3C([H])([H])C([H])([H])C([H])([H])C([H])([H])C3([H])[H])c([H])c2[H])c([H])c1[H]


 35 39  0  0  0  0  0  0  0  0999 V2000
   10.1750   48.9967  131.6919 C   0  0  0  0  0  0  0  0  0  0  0  0
    9.9729   49.1739  133.4878 S   0  0  0  0  0  0  0  0  0  0  0  0
   11.4909   48.5959  134.1855 C   0  0  0  0  0  0  0  0  0  0  0  0
   11.8717   48.9710  135.4284 C   0  0  0  0  0  0  0  0  0  0  0  0
   13.0737   48.5162  135.9871 C   0  0  0  0  0  0  0  0  0  0  0  0
   13.4991   48.8736  137.2471 O   0  0  0  0  0  0  0  0  0  0  0  0
   13.8700   47.6721  135.2436 C   0  0  0  0  0  0  0  0  0  0  0  0
   13.4772   47.2933  133.9785 C   0  0  0  0  0  0  0  0  0  0  0  0
   12.2706   47.7629  133.4442 C   0  0  0  0  0  0  0  0  0  0  0  0
   11.9344   47.3554  132.1893 O   0  0  0  0  0  0  0  0  0  0  0  0
   10.8957   47.7294  131.3699 C   0  0  0  0  0  0  0  0  0  0  0  0
   14.0757   49.6848  137.4411 H   0  0  0  0  0  0  0  0  0  0  0  0
    5.4447   49.5424  128.6054 O   0  0  0  0  0  0  0  0  0  0  0  0
    6.6073   49.4148  129.3866 C   0  0  0  0  0  0  0  0  0  0  0  0
    7.6773   48.6962  128.9272 C   0  0  0  0  0  0  0  0  0  0  0  0
    8.8021   48.5850  129.7065 C   0  0  0  0  0  0  0  0  0  0  0  0
    8.9279   49.1637  130.9522 C   0  0  0  0  0  0  0  0  0  0  0  0
    7.8502   49.8846  131.4088 C   0  0  0  0  0  0  0  0  0  0  0  0
    6.7001   50.0068  130.6290 C   0  0  0  0  0  0  0  0  0  0  0  0
    5.3414   50.3222  127.9396 H   0  0  0  0  0  0  0  0  0  0  0  0
   10.0011   46.5495  131.1638 C   0  0  0  0  0  0  0  0  0  0  0  0
   10.2383   45.6477  130.1463 C   0  0  0  0  0  0  0  0  0  0  0  0
    9.4361   44.5550  129.9495 C   0  0  0  0  0  0  0  0  0  0  0  0
    8.3227   44.2847  130.7714 C   0  0  0  0  0  0  0  0  0  0  0  0
    8.0981   45.1924  131.7813 C   0  0  0  0  0  0  0  0  0  0  0  0
    8.9178   46.2968  131.9720 C   0  0  0  0  0  0  0  0  0  0  0  0
    7.5888   43.1916  130.5068 O   0  0  0  0  0  0  0  0  0  0  0  0
    7.5337   41.8998  130.9172 C   0  0  0  0  0  0  0  0  0  0  0  0
    8.1772   41.6767  132.2521 C   0  0  0  0  0  0  0  0  0  0  0  0
    9.3633   42.4996  132.4696 N   0  0  0  0  0  0  0  0  0  0  0  0
    9.6190   42.7163  133.8708 C   0  0  0  0  0  0  0  0  0  0  0  0
   10.8737   43.5507  134.0553 C   0  0  0  0  0  0  0  0  0  0  0  0
   11.4847   43.8006  132.6943 C   0  0  0  0  0  0  0  0  0  0  0  0
   11.7905   42.4370  132.0997 C   0  0  0  0  0  0  0  0  0  0  0  0
   10.4717   41.7373  131.9215 C   0  0  0  0  0  0  0  0  0  0  0  0
 13 14  1  0  0  0
 14 15  2  0  0  0
 15 16  1  0  0  0
 16 17  2  0  0  0
 17 18  1  0  0  0
 18 19  2  0  0  0
 17  1  1  0  0  0
  1  2  1  0  0  0
  2  3  1  0  0  0
  3  4  2  0  0  0
  4  5  1  0  0  0
  5  6  1  0  0  0
  5  7  2  0  0  0
  7  8  1  0  0  0
  8  9  2  0  0  0
  9 10  1  0  0  0
 10 11  1  0  0  0
 11 21  1  0  0  0
 21 22  2  0  0  0
 22 23  1  0  0  0
 23 24  2  0  0  0
 24 27  1  0  0  0
 27 28  1  0  0  0
 28 29  1  0  0  0
 29 30  1  0  0  0
 30 31  1  0  0  0
 31 32  1  0  0  0
 32 33  1  0  0  0
 33 34  1  0  0  0
 34 35  1  0  0  0
 24 25  1  0  0  0
 25 26  2  0  0  0
 19 14  1  0  0  0
 11  1  1  0  0  0
 26 21  1  0  0  0
  9  3  1  0  0  0
 35 30  1  0  0  0
 13 20  1  0  0  0
  6 12  1  0  0  0
M  END
> <minimizedAffinity>
14.18110

> <CNNscore>
0.4456148744

> <CNNaffinity>
7.5966377258

> <CNN_VS>
3.3851747513

> <CNNaffinity_variance>
0.4873682857

$$$$
[H]Oc1c([H])c([H])c([C@@]2([H])Sc3c([H])c(O[H])c([H])c([H])c3O[C@@]2([H])c2c([H])c([H])c(OC([H])([H])C([H])([H])N3C([H])([H])C([H])([H])C([H])([H])C([H])([H])C3([H])[H])c([H])c2[H])c([H])c1[H]


 35 39  0  0  0  0  0  0  0  0999 V2000
    8.8702   45.8434  129.2304 C   0  0  0  0  0  0  0  0  0  0  0  0
   10.4986   46.5482  128.8442 S   0  0  0  0  0  0  0  0  0  0  0  0
   11.6626   45.2849  129.2614 C   0  0  0  0  0  0  0  0  0  0  0  0
   12.9023   45.2760  128.7198 C   0  0  0  0  0  0  0  0  0  0  0  0
   13.8296   44.2775  129.0465 C   0  0  0  0  0  0  0  0  0  0  0  0
   15.1004   44.2304  128.5183 O   0  0  0  0  0  0  0  0  0  0  0  0
   13.4557   43.2947  129.9375 C   0  0  0  0  0  0  0  0  0  0  0  0
   12.1919   43.3088  130.4860 C   0  0  0  0  0  0  0  0  0  0  0  0
   11.2845   44.3188  130.1419 C   0  0  0  0  0  0  0  0  0  0  0  0
   10.0501   44.2813  130.7151 O   0  0  0  0  0  0  0  0  0  0  0  0
    8.9312   45.0485  130.4928 C   0  0  0  0  0  0  0  0  0  0  0  0
   15.3405   43.7405  127.6635 H   0  0  0  0  0  0  0  0  0  0  0  0
    4.8748   49.8726  129.1766 O   0  0  0  0  0  0  0  0  0  0  0  0
    5.8506   48.8597  129.1884 C   0  0  0  0  0  0  0  0  0  0  0  0
    7.1752   49.1695  129.0403 C   0  0  0  0  0  0  0  0  0  0  0  0
    8.1105   48.1647  129.0551 C   0  0  0  0  0  0  0  0  0  0  0  0
    7.7957   46.8310  129.2132 C   0  0  0  0  0  0  0  0  0  0  0  0
    6.4637   46.5254  129.3618 C   0  0  0  0  0  0  0  0  0  0  0  0
    5.5013   47.5350  129.3487 C   0  0  0  0  0  0  0  0  0  0  0  0
    4.5883   50.3370  130.0508 H   0  0  0  0  0  0  0  0  0  0  0  0
    8.6387   45.8362  131.7293 C   0  0  0  0  0  0  0  0  0  0  0  0
    7.9759   45.2635  132.7958 C   0  0  0  0  0  0  0  0  0  0  0  0
    7.7094   45.9664  133.9409 C   0  0  0  0  0  0  0  0  0  0  0  0
    8.0946   47.3135  134.1003 C   0  0  0  0  0  0  0  0  0  0  0  0
    8.7539   47.8715  133.0288 C   0  0  0  0  0  0  0  0  0  0  0  0
    9.0191   47.1497  131.8727 C   0  0  0  0  0  0  0  0  0  0  0  0
    7.7919   47.9278  135.2555 O   0  0  0  0  0  0  0  0  0  0  0  0
    8.2450   47.9342  136.5342 C   0  0  0  0  0  0  0  0  0  0  0  0
    9.6680   47.4810  136.6583 C   0  0  0  0  0  0  0  0  0  0  0  0
   10.0449   46.4744  135.6703 N   0  0  0  0  0  0  0  0  0  0  0  0
   11.2280   46.8528  134.9404 C   0  0  0  0  0  0  0  0  0  0  0  0
   11.6027   45.7697  133.9448 C   0  0  0  0  0  0  0  0  0  0  0  0
   10.6475   44.6099  134.1199 C   0  0  0  0  0  0  0  0  0  0  0  0
   10.7963   44.1389  135.5560 C   0  0  0  0  0  0  0  0  0  0  0  0
   10.3494   45.2758  136.4325 C   0  0  0  0  0  0  0  0  0  0  0  0
 13 14  1  0  0  0
 14 15  2  0  0  0
 15 16  1  0  0  0
 16 17  2  0  0  0
 17 18  1  0  0  0
 18 19  2  0  0  0
 17  1  1  0  0  0
  1  2  1  0  0  0
  2  3  1  0  0  0
  3  4  2  0  0  0
  4  5  1  0  0  0
  5  6  1  0  0  0
  5  7  2  0  0  0
  7  8  1  0  0  0
  8  9  2  0  0  0
  9 10  1  0  0  0
 10 11  1  0  0  0
 11 21  1  0  0  0
 21 22  2  0  0  0
 22 23  1  0  0  0
 23 24  2  0  0  0
 24 27  1  0  0  0
 27 28  1  0  0  0
 28 29  1  0  0  0
 29 30  1  0  0  0
 30 31  1  0  0  0
 31 32  1  0  0  0
 32 33  1  0  0  0
 33 34  1  0  0  0
 34 35  1  0  0  0
 24 25  1  0  0  0
 25 26  2  0  0  0
 19 14  1  0  0  0
 11  1  1  0  0  0
 26 21  1  0  0  0
  9  3  1  0  0  0
 35 30  1  0  0  0
 13 20  1  0  0  0
  6 12  1  0  0  0
M  END
> <minimizedAffinity>
8.29790

> <CNNscore>
0.4160178006

> <CNNaffinity>
7.6613516808

> <CNN_VS>
3.1872587204

> <CNNaffinity_variance>
1.0321993828

$$$$
[H]Oc1c([H])c([H])c([C@@]2([H])Sc3c([H])c(O[H])c([H])c([H])c3O[C@@]2([H])c2c([H])c([H])c(OC([H])([H])C([H])([H])N3C([H])([H])C([H])([H])C([H])([H])C([H])([H])C3([H])[H])c([H])c2[H])c([H])c1[H]


 35 39  0  0  0  0  0  0  0  0999 V2000
    8.0539   46.8430  128.9387 C   0  0  0  0  0  0  0  0  0  0  0  0
    9.7624   46.7109  128.3379 S   0  0  0  0  0  0  0  0  0  0  0  0
   10.0629   44.9770  128.1690 C   0  0  0  0  0  0  0  0  0  0  0  0
   11.0417   44.5174  127.3560 C   0  0  0  0  0  0  0  0  0  0  0  0
   11.2850   43.1442  127.2178 C   0  0  0  0  0  0  0  0  0  0  0  0
   12.2696   42.6341  126.4015 O   0  0  0  0  0  0  0  0  0  0  0  0
   10.5039   42.2601  127.9304 C   0  0  0  0  0  0  0  0  0  0  0  0
    9.5085   42.7338  128.7568 C   0  0  0  0  0  0  0  0  0  0  0  0
    9.2868   44.1116  128.8763 C   0  0  0  0  0  0  0  0  0  0  0  0
    8.2892   44.5213  129.7074 O   0  0  0  0  0  0  0  0  0  0  0  0
    7.7677   45.7721  129.9389 C   0  0  0  0  0  0  0  0  0  0  0  0
   12.1281   42.3920  125.4270 H   0  0  0  0  0  0  0  0  0  0  0  0
    6.4631   52.0123  130.6557 O   0  0  0  0  0  0  0  0  0  0  0  0
    6.8761   50.7345  130.2373 C   0  0  0  0  0  0  0  0  0  0  0  0
    5.9569   49.8059  129.8309 C   0  0  0  0  0  0  0  0  0  0  0  0
    6.3826   48.5650  129.4265 C   0  0  0  0  0  0  0  0  0  0  0  0
    7.7078   48.1830  129.4023 C   0  0  0  0  0  0  0  0  0  0  0  0
    8.6270   49.1197  129.8114 C   0  0  0  0  0  0  0  0  0  0  0  0
    8.2103   50.3849  130.2254 C   0  0  0  0  0  0  0  0  0  0  0  0
    6.3784   52.7852  129.9793 H   0  0  0  0  0  0  0  0  0  0  0  0
    8.0615   46.1580  131.3530 C   0  0  0  0  0  0  0  0  0  0  0  0
    7.5921   45.4016  132.4076 C   0  0  0  0  0  0  0  0  0  0  0  0
    7.8608   45.7335  133.7091 C   0  0  0  0  0  0  0  0  0  0  0  0
    8.6312   46.8641  134.0506 C   0  0  0  0  0  0  0  0  0  0  0  0
    9.0921   47.6091  132.9890 C   0  0  0  0  0  0  0  0  0  0  0  0
    8.8138   47.2634  131.6733 C   0  0  0  0  0  0  0  0  0  0  0  0
    8.8451   47.1169  135.3520 O   0  0  0  0  0  0  0  0  0  0  0  0
    9.7254   46.7405  136.3131 C   0  0  0  0  0  0  0  0  0  0  0  0
   10.3411   45.3986  136.0565 C   0  0  0  0  0  0  0  0  0  0  0  0
   10.6842   45.1756  134.6551 N   0  0  0  0  0  0  0  0  0  0  0  0
   11.9826   45.7070  134.3273 C   0  0  0  0  0  0  0  0  0  0  0  0
   12.3137   45.4307  132.8718 C   0  0  0  0  0  0  0  0  0  0  0  0
   11.1941   44.6062  132.2762 C   0  0  0  0  0  0  0  0  0  0  0  0
   11.1142   43.3290  133.0940 C   0  0  0  0  0  0  0  0  0  0  0  0
   10.7327   43.7331  134.4910 C   0  0  0  0  0  0  0  0  0  0  0  0
 13 14  1  0  0  0
 14 15  2  0  0  0
 15 16  1  0  0  0
 16 17  2  0  0  0
 17 18  1  0  0  0
 18 19  2  0  0  0
 17  1  1  0  0  0
  1  2  1  0  0  0
  2  3  1  0  0  0
  3  4  2  0  0  0
  4  5  1  0  0  0
  5  6  1  0  0  0
  5  7  2  0  0  0
  7  8  1  0  0  0
  8  9  2  0  0  0
  9 10  1  0  0  0
 10 11  1  0  0  0
 11 21  1  0  0  0
 21 22  2  0  0  0
 22 23  1  0  0  0
 23 24  2  0  0  0
 24 27  1  0  0  0
 27 28  1  0  0  0
 28 29  1  0  0  0
 29 30  1  0  0  0
 30 31  1  0  0  0
 31 32  1  0  0  0
 32 33  1  0  0  0
 33 34  1  0  0  0
 34 35  1  0  0  0
 24 25  1  0  0  0
 25 26  2  0  0  0
 19 14  1  0  0  0
 11  1  1  0  0  0
 26 21  1  0  0  0
  9  3  1  0  0  0
 35 30  1  0  0  0
 13 20  1  0  0  0
  6 12  1  0  0  0
M  END
> <minimizedAffinity>
4.90983

> <CNNscore>
0.3632900715

> <CNNaffinity>
7.5107955933

> <CNN_VS>
2.7285974026

> <CNNaffinity_variance>
0.3762894273

$$$$
[H]Oc1c([H])c([H])c([C@@]2([H])Sc3c([H])c(O[H])c([H])c([H])c3O[C@@]2([H])c2c([H])c([H])c(OC([H])([H])C([H])([H])N3C([H])([H])C([H])([H])C([H])([H])C([H])([H])C3([H])[H])c([H])c2[H])c([H])c1[H]


 35 39  0  0  0  0  0  0  0  0999 V2000
   10.3888   44.7348  130.9690 C   0  0  0  0  0  0  0  0  0  0  0  0
    9.8258   43.7545  129.5478 S   0  0  0  0  0  0  0  0  0  0  0  0
   11.1681   43.7896  128.3980 C   0  0  0  0  0  0  0  0  0  0  0  0
   11.2889   42.8403  127.4417 C   0  0  0  0  0  0  0  0  0  0  0  0
   12.3505   42.8625  126.5273 C   0  0  0  0  0  0  0  0  0  0  0  0
   12.5115   41.9164  125.5398 O   0  0  0  0  0  0  0  0  0  0  0  0
   13.2790   43.8770  126.6177 C   0  0  0  0  0  0  0  0  0  0  0  0
   13.1510   44.8412  127.5936 C   0  0  0  0  0  0  0  0  0  0  0  0
   12.0799   44.7949  128.4950 C   0  0  0  0  0  0  0  0  0  0  0  0
   12.0051   45.7741  129.4379 O   0  0  0  0  0  0  0  0  0  0  0  0
   11.1562   45.9297  130.5081 C   0  0  0  0  0  0  0  0  0  0  0  0
   13.0389   41.0585  125.6582 H   0  0  0  0  0  0  0  0  0  0  0  0
    6.0930   46.0800  134.4239 O   0  0  0  0  0  0  0  0  0  0  0  0
    7.1677   45.7383  133.5833 C   0  0  0  0  0  0  0  0  0  0  0  0
    7.0404   45.8240  132.2236 C   0  0  0  0  0  0  0  0  0  0  0  0
    8.1025   45.4855  131.4222 C   0  0  0  0  0  0  0  0  0  0  0  0
    9.3190   45.0543  131.9090 C   0  0  0  0  0  0  0  0  0  0  0  0
    9.4415   44.9703  133.2756 C   0  0  0  0  0  0  0  0  0  0  0  0
    8.3715   45.3104  134.1033 C   0  0  0  0  0  0  0  0  0  0  0  0
    5.9779   47.0460  134.7639 H   0  0  0  0  0  0  0  0  0  0  0  0
   10.3188   47.1471  130.2806 C   0  0  0  0  0  0  0  0  0  0  0  0
    9.6333   47.3262  129.0963 C   0  0  0  0  0  0  0  0  0  0  0  0
    8.8525   48.4296  128.8746 C   0  0  0  0  0  0  0  0  0  0  0  0
    8.7011   49.4468  129.8394 C   0  0  0  0  0  0  0  0  0  0  0  0
    9.3907   49.2551  131.0150 C   0  0  0  0  0  0  0  0  0  0  0  0
   10.1794   48.1325  131.2293 C   0  0  0  0  0  0  0  0  0  0  0  0
    7.9174   50.4951  129.5390 O   0  0  0  0  0  0  0  0  0  0  0  0
    6.6926   50.7056  128.9952 C   0  0  0  0  0  0  0  0  0  0  0  0
    6.2632   52.1404  129.0456 C   0  0  0  0  0  0  0  0  0  0  0  0
    6.9134   52.9767  128.0410 N   0  0  0  0  0  0  0  0  0  0  0  0
    7.5732   52.1899  127.0304 C   0  0  0  0  0  0  0  0  0  0  0  0
    8.2116   53.0938  125.9911 C   0  0  0  0  0  0  0  0  0  0  0  0
    7.8604   54.5267  126.3252 C   0  0  0  0  0  0  0  0  0  0  0  0
    6.3446   54.6176  126.3043 C   0  0  0  0  0  0  0  0  0  0  0  0
    5.8426   53.7232  127.4036 C   0  0  0  0  0  0  0  0  0  0  0  0
 13 14  1  0  0  0
 14 15  2  0  0  0
 15 16  1  0  0  0
 16 17  2  0  0  0
 17 18  1  0  0  0
 18 19  2  0  0  0
 17  1  1  0  0  0
  1  2  1  0  0  0
  2  3  1  0  0  0
  3  4  2  0  0  0
  4  5  1  0  0  0
  5  6  1  0  0  0
  5  7  2  0  0  0
  7  8  1  0  0  0
  8  9  2  0  0  0
  9 10  1  0  0  0
 10 11  1  0  0  0
 11 21  1  0  0  0
 21 22  2  0  0  0
 22 23  1  0  0  0
 23 24  2  0  0  0
 24 27  1  0  0  0
 27 28  1  0  0  0
 28 29  1  0  0  0
 29 30  1  0  0  0
 30 31  1  0  0  0
 31 32  1  0  0  0
 32 33  1  0  0  0
 33 34  1  0  0  0
 34 35  1  0  0  0
 24 25  1  0  0  0
 25 26  2  0  0  0
 19 14  1  0  0  0
 11  1  1  0  0  0
 26 21  1  0  0  0
  9  3  1  0  0  0
 35 30  1  0  0  0
 13 20  1  0  0  0
  6 12  1  0  0  0
M  END
> <minimizedAffinity>
30.15524

> <CNNscore>
0.3480794728

> <CNNaffinity>
6.7655181885

> <CNN_VS>
2.3549380302

> <CNNaffinity_variance>
1.1945298910

$$$$
[H]Oc1c([H])c([H])c([C@@]2([H])Sc3c([H])c(O[H])c([H])c([H])c3O[C@@]2([H])c2c([H])c([H])c(OC([H])([H])C([H])([H])N3C([H])([H])C([H])([H])C([H])([H])C([H])([H])C3([H])[H])c([H])c2[H])c([H])c1[H]


 35 39  0  0  0  0  0  0  0  0999 V2000
   10.7503   48.5982  132.2228 C   0  0  0  0  0  0  0  0  0  0  0  0
   10.5123   49.1242  133.9445 S   0  0  0  0  0  0  0  0  0  0  0  0
   11.9730   48.6066  134.7948 C   0  0  0  0  0  0  0  0  0  0  0  0
   12.3432   49.1893  135.9583 C   0  0  0  0  0  0  0  0  0  0  0  0
   13.4999   48.7835  136.6373 C   0  0  0  0  0  0  0  0  0  0  0  0
   13.9131   49.3497  137.8226 O   0  0  0  0  0  0  0  0  0  0  0  0
   14.2624   47.7709  136.0962 C   0  0  0  0  0  0  0  0  0  0  0  0
   13.8807   47.1809  134.9111 C   0  0  0  0  0  0  0  0  0  0  0  0
   12.7196   47.6062  134.2532 C   0  0  0  0  0  0  0  0  0  0  0  0
   12.3923   46.9869  133.0857 O   0  0  0  0  0  0  0  0  0  0  0  0
   11.4003   47.2550  132.1722 C   0  0  0  0  0  0  0  0  0  0  0  0
   14.5329   50.1500  137.8820 H   0  0  0  0  0  0  0  0  0  0  0  0
    6.1768   48.9344  128.8808 O   0  0  0  0  0  0  0  0  0  0  0  0
    7.2983   48.8523  129.7255 C   0  0  0  0  0  0  0  0  0  0  0  0
    8.5225   48.5044  129.2228 C   0  0  0  0  0  0  0  0  0  0  0  0
    9.6036   48.4306  130.0657 C   0  0  0  0  0  0  0  0  0  0  0  0
    9.5358   48.6901  131.4187 C   0  0  0  0  0  0  0  0  0  0  0  0
    8.3037   49.0393  131.9185 C   0  0  0  0  0  0  0  0  0  0  0  0
    7.1955   49.1185  131.0750 C   0  0  0  0  0  0  0  0  0  0  0  0
    5.9367   49.8192  128.4100 H   0  0  0  0  0  0  0  0  0  0  0  0
   10.4410   46.1086  132.1584 C   0  0  0  0  0  0  0  0  0  0  0  0
    9.3724   46.0874  131.2853 C   0  0  0  0  0  0  0  0  0  0  0  0
    8.4899   45.0403  131.2507 C   0  0  0  0  0  0  0  0  0  0  0  0
    8.6185   43.9233  132.1017 C   0  0  0  0  0  0  0  0  0  0  0  0
    9.6881   43.9584  132.9671 C   0  0  0  0  0  0  0  0  0  0  0  0
   10.5767   45.0249  132.9937 C   0  0  0  0  0  0  0  0  0  0  0  0
    7.7076   42.9415  132.0023 O   0  0  0  0  0  0  0  0  0  0  0  0
    7.4201   41.9256  131.1504 C   0  0  0  0  0  0  0  0  0  0  0  0
    8.5794   41.5354  130.2847 C   0  0  0  0  0  0  0  0  0  0  0  0
    9.3781   42.6724  129.8368 N   0  0  0  0  0  0  0  0  0  0  0  0
   10.7598   42.5465  130.2253 C   0  0  0  0  0  0  0  0  0  0  0  0
   11.5608   43.7319  129.7176 C   0  0  0  0  0  0  0  0  0  0  0  0
   10.6445   44.6085  128.8928 C   0  0  0  0  0  0  0  0  0  0  0  0
   10.1249   43.7445  127.7571 C   0  0  0  0  0  0  0  0  0  0  0  0
    9.3135   42.6459  128.3858 C   0  0  0  0  0  0  0  0  0  0  0  0
 13 14  1  0  0  0
 14 15  2  0  0  0
 15 16  1  0  0  0
 16 17  2  0  0  0
 17 18  1  0  0  0
 18 19  2  0  0  0
 17  1  1  0  0  0
  1  2  1  0  0  0
  2  3  1  0  0  0
  3  4  2  0  0  0
  4  5  1  0  0  0
  5  6  1  0  0  0
  5  7  2  0  0  0
  7  8  1  0  0  0
  8  9  2  0  0  0
  9 10  1  0  0  0
 10 11  1  0  0  0
 11 21  1  0  0  0
 21 22  2  0  0  0
 22 23  1  0  0  0
 23 24  2  0  0  0
 24 27  1  0  0  0
 27 28  1  0  0  0
 28 29  1  0  0  0
 29 30  1  0  0  0
 30 31  1  0  0  0
 31 32  1  0  0  0
 32 33  1  0  0  0
 33 34  1  0  0  0
 34 35  1  0  0  0
 24 25  1  0  0  0
 25 26  2  0  0  0
 19 14  1  0  0  0
 11  1  1  0  0  0
 26 21  1  0  0  0
  9  3  1  0  0  0
 35 30  1  0  0  0
 13 20  1  0  0  0
  6 12  1  0  0  0
M  END
> <minimizedAffinity>
13.36876

> <CNNscore>
0.3224845529

> <CNNaffinity>
7.2915077209

> <CNN_VS>
2.3513987064

> <CNNaffinity_variance>
0.4336237013

$$$$
[H]Oc1c([H])c([H])c([C@@]2([H])Sc3c([H])c(O[H])c([H])c([H])c3O[C@@]2([H])c2c([H])c([H])c(OC([H])([H])C([H])([H])N3C([H])([H])C([H])([H])C([H])([H])C([H])([H])C3([H])[H])c([H])c2[H])c([H])c1[H]


 35 39  0  0  0  0  0  0  0  0999 V2000
   10.5441   45.0110  132.0121 C   0  0  0  0  0  0  0  0  0  0  0  0
    9.3700   43.8110  131.3198 S   0  0  0  0  0  0  0  0  0  0  0  0
    9.9690   43.4595  129.6942 C   0  0  0  0  0  0  0  0  0  0  0  0
    9.6185   42.3193  129.0560 C   0  0  0  0  0  0  0  0  0  0  0  0
   10.0898   42.0348  127.7672 C   0  0  0  0  0  0  0  0  0  0  0  0
    9.7588   40.8869  127.0826 O   0  0  0  0  0  0  0  0  0  0  0  0
   10.9241   42.9440  127.1535 C   0  0  0  0  0  0  0  0  0  0  0  0
   11.2778   44.1037  127.8081 C   0  0  0  0  0  0  0  0  0  0  0  0
   10.7922   44.3629  129.0961 C   0  0  0  0  0  0  0  0  0  0  0  0
   11.1756   45.5245  129.6938 O   0  0  0  0  0  0  0  0  0  0  0  0
   10.9630   45.9933  130.9687 C   0  0  0  0  0  0  0  0  0  0  0  0
   10.2907   40.0251  127.1316 H   0  0  0  0  0  0  0  0  0  0  0  0
    8.4757   47.4662  136.6911 O   0  0  0  0  0  0  0  0  0  0  0  0
    9.0061   46.8549  135.5409 C   0  0  0  0  0  0  0  0  0  0  0  0
    8.1875   46.4957  134.5049 C   0  0  0  0  0  0  0  0  0  0  0  0
    8.7269   45.9003  133.3917 C   0  0  0  0  0  0  0  0  0  0  0  0
   10.0723   45.6337  133.2449 C   0  0  0  0  0  0  0  0  0  0  0  0
   10.8902   45.9967  134.2884 C   0  0  0  0  0  0  0  0  0  0  0  0
   10.3573   46.6023  135.4264 C   0  0  0  0  0  0  0  0  0  0  0  0
    8.3949   48.4918  136.7517 H   0  0  0  0  0  0  0  0  0  0  0  0
   10.1015   47.2127  130.8918 C   0  0  0  0  0  0  0  0  0  0  0  0
    8.7441   47.1098  130.6646 C   0  0  0  0  0  0  0  0  0  0  0  0
    7.9375   48.2151  130.6022 C   0  0  0  0  0  0  0  0  0  0  0  0
    8.4422   49.5216  130.7662 C   0  0  0  0  0  0  0  0  0  0  0  0
    9.7972   49.6089  130.9916 C   0  0  0  0  0  0  0  0  0  0  0  0
   10.6056   48.4817  131.0530 C   0  0  0  0  0  0  0  0  0  0  0  0
    7.5810   50.5491  130.6886 O   0  0  0  0  0  0  0  0  0  0  0  0
    6.3899   50.9001  131.2349 C   0  0  0  0  0  0  0  0  0  0  0  0
    5.2224   50.6088  130.3417 C   0  0  0  0  0  0  0  0  0  0  0  0
    5.5583   49.7530  129.2076 N   0  0  0  0  0  0  0  0  0  0  0  0
    6.9701   49.7684  128.9209 C   0  0  0  0  0  0  0  0  0  0  0  0
    7.2820   48.8464  127.7558 C   0  0  0  0  0  0  0  0  0  0  0  0
    6.0040   48.1504  127.3431 C   0  0  0  0  0  0  0  0  0  0  0  0
    5.5154   47.3843  128.5600 C   0  0  0  0  0  0  0  0  0  0  0  0
    5.1955   48.4067  129.6149 C   0  0  0  0  0  0  0  0  0  0  0  0
 13 14  1  0  0  0
 14 15  2  0  0  0
 15 16  1  0  0  0
 16 17  2  0  0  0
 17 18  1  0  0  0
 18 19  2  0  0  0
 17  1  1  0  0  0
  1  2  1  0  0  0
  2  3  1  0  0  0
  3  4  2  0  0  0
  4  5  1  0  0  0
  5  6  1  0  0  0
  5  7  2  0  0  0
  7  8  1  0  0  0
  8  9  2  0  0  0
  9 10  1  0  0  0
 10 11  1  0  0  0
 11 21  1  0  0  0
 21 22  2  0  0  0
 22 23  1  0  0  0
 23 24  2  0  0  0
 24 27  1  0  0  0
 27 28  1  0  0  0
 28 29  1  0  0  0
 29 30  1  0  0  0
 30 31  1  0  0  0
 31 32  1  0  0  0
 32 33  1  0  0  0
 33 34  1  0  0  0
 34 35  1  0  0  0
 24 25  1  0  0  0
 25 26  2  0  0  0
 19 14  1  0  0  0
 11  1  1  0  0  0
 26 21  1  0  0  0
  9  3  1  0  0  0
 35 30  1  0  0  0
 13 20  1  0  0  0
  6 12  1  0  0  0
M  END
> <minimizedAffinity>
9.22799

> <CNNscore>
0.3201250732

> <CNNaffinity>
7.4505033493

> <CNN_VS>
2.3850929737

> <CNNaffinity_variance>
0.6795341372

$$$$
[H]Oc1c([H])c([H])c([C@@]2([H])Sc3c([H])c(O[H])c([H])c([H])c3O[C@@]2([H])c2c([H])c([H])c(OC([H])([H])C([H])([H])N3C([H])([H])C([H])([H])C([H])([H])C([H])([H])C3([H])[H])c([H])c2[H])c([H])c1[H]


 35 39  0  0  0  0  0  0  0  0999 V2000
   10.0918   47.2997  129.9417 C   0  0  0  0  0  0  0  0  0  0  0  0
    8.7850   48.5605  129.9287 S   0  0  0  0  0  0  0  0  0  0  0  0
    9.2022   49.6758  131.2353 C   0  0  0  0  0  0  0  0  0  0  0  0
    8.7224   50.9407  131.2489 C   0  0  0  0  0  0  0  0  0  0  0  0
    9.0493   51.8296  132.2818 C   0  0  0  0  0  0  0  0  0  0  0  0
    8.5839   53.1245  132.3340 O   0  0  0  0  0  0  0  0  0  0  0  0
    9.8753   51.3908  133.2941 C   0  0  0  0  0  0  0  0  0  0  0  0
   10.3610   50.1016  133.2751 C   0  0  0  0  0  0  0  0  0  0  0  0
   10.0183   49.2339  132.2303 C   0  0  0  0  0  0  0  0  0  0  0  0
   10.5282   47.9719  132.2643 O   0  0  0  0  0  0  0  0  0  0  0  0
   10.4684   46.9522  131.3441 C   0  0  0  0  0  0  0  0  0  0  0  0
    9.0640   53.9158  131.9199 H   0  0  0  0  0  0  0  0  0  0  0  0
    9.1353   42.7616  126.6721 O   0  0  0  0  0  0  0  0  0  0  0  0
    9.3525   43.8872  127.4870 C   0  0  0  0  0  0  0  0  0  0  0  0
   10.6232   44.2618  127.8297 C   0  0  0  0  0  0  0  0  0  0  0  0
   10.8118   45.3640  128.6260 C   0  0  0  0  0  0  0  0  0  0  0  0
    9.7800   46.1377  129.1155 C   0  0  0  0  0  0  0  0  0  0  0  0
    8.5056   45.7571  128.7681 C   0  0  0  0  0  0  0  0  0  0  0  0
    8.2975   44.6394  127.9599 C   0  0  0  0  0  0  0  0  0  0  0  0
    9.0973   42.8543  125.6464 H   0  0  0  0  0  0  0  0  0  0  0  0
    9.6803   45.8253  131.9304 C   0  0  0  0  0  0  0  0  0  0  0  0
    9.4484   44.6709  131.2103 C   0  0  0  0  0  0  0  0  0  0  0  0
    8.7382   43.6238  131.7353 C   0  0  0  0  0  0  0  0  0  0  0  0
    8.2025   43.6604  133.0392 C   0  0  0  0  0  0  0  0  0  0  0  0
    8.4411   44.8175  133.7451 C   0  0  0  0  0  0  0  0  0  0  0  0
    9.1625   45.8729  133.2032 C   0  0  0  0  0  0  0  0  0  0  0  0
    7.5179   42.5901  133.4743 O   0  0  0  0  0  0  0  0  0  0  0  0
    7.7897   41.3210  133.8692 C   0  0  0  0  0  0  0  0  0  0  0  0
    9.2129   41.1282  134.2971 C   0  0  0  0  0  0  0  0  0  0  0  0
   10.1228   42.1344  133.7576 N   0  0  0  0  0  0  0  0  0  0  0  0
   10.9020   42.7659  134.7920 C   0  0  0  0  0  0  0  0  0  0  0  0
   11.8537   43.7833  134.1889 C   0  0  0  0  0  0  0  0  0  0  0  0
   11.7214   43.7259  132.6831 C   0  0  0  0  0  0  0  0  0  0  0  0
   12.0703   42.3064  132.2712 C   0  0  0  0  0  0  0  0  0  0  0  0
   11.0321   41.4100  132.8867 C   0  0  0  0  0  0  0  0  0  0  0  0
 13 14  1  0  0  0
 14 15  2  0  0  0
 15 16  1  0  0  0
 16 17  2  0  0  0
 17 18  1  0  0  0
 18 19  2  0  0  0
 17  1  1  0  0  0
  1  2  1  0  0  0
  2  3  1  0  0  0
  3  4  2  0  0  0
  4  5  1  0  0  0
  5  6  1  0  0  0
  5  7  2  0  0  0
  7  8  1  0  0  0
  8  9  2  0  0  0
  9 10  1  0  0  0
 10 11  1  0  0  0
 11 21  1  0  0  0
 21 22  2  0  0  0
 22 23  1  0  0  0
 23 24  2  0  0  0
 24 27  1  0  0  0
 27 28  1  0  0  0
 28 29  1  0  0  0
 29 30  1  0  0  0
 30 31  1  0  0  0
 31 32  1  0  0  0
 32 33  1  0  0  0
 33 34  1  0  0  0
 34 35  1  0  0  0
 24 25  1  0  0  0
 25 26  2  0  0  0
 19 14  1  0  0  0
 11  1  1  0  0  0
 26 21  1  0  0  0
  9  3  1  0  0  0
 35 30  1  0  0  0
 13 20  1  0  0  0
  6 12  1  0  0  0
M  END
> <minimizedAffinity>
17.02648

> <CNNscore>
0.3189156353

> <CNNaffinity>
7.3927102089

> <CNN_VS>
2.3576507568

> <CNNaffinity_variance>
0.9107763171

$$$$
[H]Oc1c([H])c([H])c([C@@]2([H])Sc3c([H])c(O[H])c([H])c([H])c3O[C@@]2([H])c2c([H])c([H])c(OC([H])([H])C([H])([H])N3C([H])([H])C([H])([H])C([H])([H])C([H])([H])C3([H])[H])c([H])c2[H])c([H])c1[H]


 35 39  0  0  0  0  0  0  0  0999 V2000
   10.9870   45.8932  131.4310 C   0  0  0  0  0  0  0  0  0  0  0  0
   10.7706   44.6733  132.7587 S   0  0  0  0  0  0  0  0  0  0  0  0
   10.8828   43.0978  131.9650 C   0  0  0  0  0  0  0  0  0  0  0  0
   11.1988   41.9862  132.6686 C   0  0  0  0  0  0  0  0  0  0  0  0
   11.2892   40.7343  132.0454 C   0  0  0  0  0  0  0  0  0  0  0  0
   11.6084   39.5790  132.7232 O   0  0  0  0  0  0  0  0  0  0  0  0
   11.0486   40.6519  130.6908 C   0  0  0  0  0  0  0  0  0  0  0  0
   10.7272   41.7871  129.9793 C   0  0  0  0  0  0  0  0  0  0  0  0
   10.6436   43.0260  130.6274 C   0  0  0  0  0  0  0  0  0  0  0  0
   10.3225   44.1131  129.8733 O   0  0  0  0  0  0  0  0  0  0  0  0
   10.2793   45.4495  130.1936 C   0  0  0  0  0  0  0  0  0  0  0  0
   12.5556   39.2394  132.8486 H   0  0  0  0  0  0  0  0  0  0  0  0
    9.6267   51.0919  133.2538 O   0  0  0  0  0  0  0  0  0  0  0  0
    9.9690   49.8112  132.7839 C   0  0  0  0  0  0  0  0  0  0  0  0
   10.0703   48.7574  133.6509 C   0  0  0  0  0  0  0  0  0  0  0  0
   10.4057   47.5159  133.1702 C   0  0  0  0  0  0  0  0  0  0  0  0
   10.6534   47.2543  131.8387 C   0  0  0  0  0  0  0  0  0  0  0  0
   10.5501   48.3163  130.9721 C   0  0  0  0  0  0  0  0  0  0  0  0
   10.2104   49.5839  131.4450 C   0  0  0  0  0  0  0  0  0  0  0  0
    8.6405   51.3866  133.3061 H   0  0  0  0  0  0  0  0  0  0  0  0
    8.8635   45.9190  130.0940 C   0  0  0  0  0  0  0  0  0  0  0  0
    8.4369   46.6643  129.0135 C   0  0  0  0  0  0  0  0  0  0  0  0
    7.1411   47.0934  128.8999 C   0  0  0  0  0  0  0  0  0  0  0  0
    6.1663   46.8010  129.8760 C   0  0  0  0  0  0  0  0  0  0  0  0
    6.6060   46.0578  130.9477 C   0  0  0  0  0  0  0  0  0  0  0  0
    7.9220   45.6277  131.0528 C   0  0  0  0  0  0  0  0  0  0  0  0
    4.9195   47.2624  129.6861 O   0  0  0  0  0  0  0  0  0  0  0  0
    4.3025   48.1890  128.9108 C   0  0  0  0  0  0  0  0  0  0  0  0
    4.1542   49.5188  129.5857 C   0  0  0  0  0  0  0  0  0  0  0  0
    5.3872   50.3004  129.6059 N   0  0  0  0  0  0  0  0  0  0  0  0
    6.1506   50.0710  130.8060 C   0  0  0  0  0  0  0  0  0  0  0  0
    7.4359   50.8782  130.7762 C   0  0  0  0  0  0  0  0  0  0  0  0
    7.5214   51.5895  129.4439 C   0  0  0  0  0  0  0  0  0  0  0  0
    7.5019   50.5110  128.3748 C   0  0  0  0  0  0  0  0  0  0  0  0
    6.1679   49.8250  128.4770 C   0  0  0  0  0  0  0  0  0  0  0  0
 13 14  1  0  0  0
 14 15  2  0  0  0
 15 16  1  0  0  0
 16 17  2  0  0  0
 17 18  1  0  0  0
 18 19  2  0  0  0
 17  1  1  0  0  0
  1  2  1  0  0  0
  2  3  1  0  0  0
  3  4  2  0  0  0
  4  5  1  0  0  0
  5  6  1  0  0  0
  5  7  2  0  0  0
  7  8  1  0  0  0
  8  9  2  0  0  0
  9 10  1  0  0  0
 10 11  1  0  0  0
 11 21  1  0  0  0
 21 22  2  0  0  0
 22 23  1  0  0  0
 23 24  2  0  0  0
 24 27  1  0  0  0
 27 28  1  0  0  0
 28 29  1  0  0  0
 29 30  1  0  0  0
 30 31  1  0  0  0
 31 32  1  0  0  0
 32 33  1  0  0  0
 33 34  1  0  0  0
 34 35  1  0  0  0
 24 25  1  0  0  0
 25 26  2  0  0  0
 19 14  1  0  0  0
 11  1  1  0  0  0
 26 21  1  0  0  0
  9  3  1  0  0  0
 35 30  1  0  0  0
 13 20  1  0  0  0
  6 12  1  0  0  0
M  END
> <minimizedAffinity>
11.37709

> <CNNscore>
0.2480670512

> <CNNaffinity>
7.2046232224

> <CNN_VS>
1.7872296572

> <CNNaffinity_variance>
0.3966491520

$$$$
[H]Oc1c([H])c([H])c([C@@]2([H])Sc3c([H])c(O[H])c([H])c([H])c3O[C@@]2([H])c2c([H])c([H])c(OC([H])([H])C([H])([H])N3C([H])([H])C([H])([H])C([H])([H])C([H])([H])C3([H])[H])c([H])c2[H])c([H])c1[H]


 35 39  0  0  0  0  0  0  0  0999 V2000
    8.2273   46.2878  128.5189 C   0  0  0  0  0  0  0  0  0  0  0  0
   10.0163   46.3439  128.2124 S   0  0  0  0  0  0  0  0  0  0  0  0
   10.4751   44.6796  127.8321 C   0  0  0  0  0  0  0  0  0  0  0  0
   11.6070   44.4114  127.1413 C   0  0  0  0  0  0  0  0  0  0  0  0
   11.9763   43.0944  126.8367 C   0  0  0  0  0  0  0  0  0  0  0  0
   13.1183   42.7773  126.1359 O   0  0  0  0  0  0  0  0  0  0  0  0
   11.1605   42.0658  127.2564 C   0  0  0  0  0  0  0  0  0  0  0  0
   10.0090   42.3448  127.9596 C   0  0  0  0  0  0  0  0  0  0  0  0
    9.6636   43.6707  128.2504 C   0  0  0  0  0  0  0  0  0  0  0  0
    8.5142   43.8856  128.9479 O   0  0  0  0  0  0  0  0  0  0  0  0
    7.8655   45.0527  129.2756 C   0  0  0  0  0  0  0  0  0  0  0  0
   13.1580   42.6934  125.1261 H   0  0  0  0  0  0  0  0  0  0  0  0
    5.9702   51.0025  130.7272 O   0  0  0  0  0  0  0  0  0  0  0  0
    6.5471   49.8380  130.1895 C   0  0  0  0  0  0  0  0  0  0  0  0
    5.7686   48.9015  129.5655 C   0  0  0  0  0  0  0  0  0  0  0  0
    6.3531   47.7723  129.0477 C   0  0  0  0  0  0  0  0  0  0  0  0
    7.7061   47.5130  129.1167 C   0  0  0  0  0  0  0  0  0  0  0  0
    8.4836   48.4570  129.7444 C   0  0  0  0  0  0  0  0  0  0  0  0
    7.9047   49.6096  130.2758 C   0  0  0  0  0  0  0  0  0  0  0  0
    5.8736   51.8541  130.1548 H   0  0  0  0  0  0  0  0  0  0  0  0
    7.8923   45.2130  130.7617 C   0  0  0  0  0  0  0  0  0  0  0  0
    8.7601   44.4742  131.5401 C   0  0  0  0  0  0  0  0  0  0  0  0
    8.8065   44.6159  132.9017 C   0  0  0  0  0  0  0  0  0  0  0  0
    7.9736   45.5222  133.5898 C   0  0  0  0  0  0  0  0  0  0  0  0
    7.1133   46.2515  132.8011 C   0  0  0  0  0  0  0  0  0  0  0  0
    7.0747   46.1001  131.4214 C   0  0  0  0  0  0  0  0  0  0  0  0
    8.0837   45.5962  134.9262 O   0  0  0  0  0  0  0  0  0  0  0  0
    8.8614   46.2402  135.8322 C   0  0  0  0  0  0  0  0  0  0  0  0
   10.2731   46.4323  135.3673 C   0  0  0  0  0  0  0  0  0  0  0  0
   10.4162   47.4841  134.3650 N   0  0  0  0  0  0  0  0  0  0  0  0
   10.7338   46.9498  133.0652 C   0  0  0  0  0  0  0  0  0  0  0  0
   10.8462   48.0703  132.0472 C   0  0  0  0  0  0  0  0  0  0  0  0
   10.4970   49.3733  132.7317 C   0  0  0  0  0  0  0  0  0  0  0  0
    9.0799   49.2211  133.2561 C   0  0  0  0  0  0  0  0  0  0  0  0
    9.1146   48.1241  134.2837 C   0  0  0  0  0  0  0  0  0  0  0  0
 13 14  1  0  0  0
 14 15  2  0  0  0
 15 16  1  0  0  0
 16 17  2  0  0  0
 17 18  1  0  0  0
 18 19  2  0  0  0
 17  1  1  0  0  0
  1  2  1  0  0  0
  2  3  1  0  0  0
  3  4  2  0  0  0
  4  5  1  0  0  0
  5  6  1  0  0  0
  5  7  2  0  0  0
  7  8  1  0  0  0
  8  9  2  0  0  0
  9 10  1  0  0  0
 10 11  1  0  0  0
 11 21  1  0  0  0
 21 22  2  0  0  0
 22 23  1  0  0  0
 23 24  2  0  0  0
 24 27  1  0  0  0
 27 28  1  0  0  0
 28 29  1  0  0  0
 29 30  1  0  0  0
 30 31  1  0  0  0
 31 32  1  0  0  0
 32 33  1  0  0  0
 33 34  1  0  0  0
 34 35  1  0  0  0
 24 25  1  0  0  0
 25 26  2  0  0  0
 19 14  1  0  0  0
 11  1  1  0  0  0
 26 21  1  0  0  0
  9  3  1  0  0  0
 35 30  1  0  0  0
 13 20  1  0  0  0
  6 12  1  0  0  0
M  END
> <minimizedAffinity>
11.47447

> <CNNscore>
0.2282505184

> <CNNaffinity>
7.1845941544

> <CNN_VS>
1.6398873329

> <CNNaffinity_variance>
0.3443320692

$$$$
[H]Oc1c([H])c([H])c([C@@]2([H])Sc3c([H])c(O[H])c([H])c([H])c3O[C@@]2([H])c2c([H])c([H])c(OC([H])([H])C([H])([H])N3C([H])([H])C([H])([H])C([H])([H])C3([H])[H])c([H])c2[H])c([H])c1[H]


 34 38  0  0  0  0  0  0  0  0999 V2000
    8.7960   47.2430  131.0688 C   0  0  0  0  0  0  0  0  0  0  0  0
    8.3658   45.8097  132.1606 S   0  0  0  0  0  0  0  0  0  0  0  0
    9.9624   45.3233  132.7338 C   0  0  0  0  0  0  0  0  0  0  0  0
   10.0851   44.4624  133.7783 C   0  0  0  0  0  0  0  0  0  0  0  0
   11.3141   44.0512  134.2666 C   0  0  0  0  0  0  0  0  0  0  0  0
   11.4441   43.1735  135.3313 O   0  0  0  0  0  0  0  0  0  0  0  0
   12.4504   44.5381  133.6651 C   0  0  0  0  0  0  0  0  0  0  0  0
   12.3536   45.4142  132.6020 C   0  0  0  0  0  0  0  0  0  0  0  0
   11.0909   45.8055  132.1382 C   0  0  0  0  0  0  0  0  0  0  0  0
   11.0798   46.6861  131.0682 O   0  0  0  0  0  0  0  0  0  0  0  0
    9.8991   46.7897  130.2326 C   0  0  0  0  0  0  0  0  0  0  0  0
   11.4947   43.5841  136.2767 H   0  0  0  0  0  0  0  0  0  0  0  0
    4.4661   50.1252  128.9160 O   0  0  0  0  0  0  0  0  0  0  0  0
    5.5472   49.4222  129.4633 C   0  0  0  0  0  0  0  0  0  0  0  0
    6.5564   50.0493  130.1471 C   0  0  0  0  0  0  0  0  0  0  0  0
    7.6059   49.3232  130.6723 C   0  0  0  0  0  0  0  0  0  0  0  0
    7.6767   47.9420  130.5283 C   0  0  0  0  0  0  0  0  0  0  0  0
    6.6567   47.3485  129.8421 C   0  0  0  0  0  0  0  0  0  0  0  0
    5.5972   48.0624  129.3093 C   0  0  0  0  0  0  0  0  0  0  0  0
    4.4194   51.1419  129.0263 H   0  0  0  0  0  0  0  0  0  0  0  0
    9.8336   45.5389  129.5138 C   0  0  0  0  0  0  0  0  0  0  0  0
   10.9370   45.2661  128.6846 C   0  0  0  0  0  0  0  0  0  0  0  0
   11.0225   44.1172  127.9390 C   0  0  0  0  0  0  0  0  0  0  0  0
   10.0182   43.1763  127.9744 C   0  0  0  0  0  0  0  0  0  0  0  0
    8.9301   43.4273  128.7809 C   0  0  0  0  0  0  0  0  0  0  0  0
    8.8438   44.5980  129.5407 C   0  0  0  0  0  0  0  0  0  0  0  0
   10.0982   42.0101  127.2220 O   0  0  0  0  0  0  0  0  0  0  0  0
   10.0689   40.7812  127.8705 C   0  0  0  0  0  0  0  0  0  0  0  0
   10.2814   39.5877  127.0097 C   0  0  0  0  0  0  0  0  0  0  0  0
   11.5589   39.3880  126.4611 N   0  0  0  0  0  0  0  0  0  0  0  0
   11.7401   39.6579  125.0747 C   0  0  0  0  0  0  0  0  0  0  0  0
   13.2605   39.4746  124.9466 C   0  0  0  0  0  0  0  0  0  0  0  0
   13.4680   38.2413  125.8200 C   0  0  0  0  0  0  0  0  0  0  0  0
   12.3015   38.2403  126.8179 C   0  0  0  0  0  0  0  0  0  0  0  0
 13 14  1  0  0  0
 14 15  2  0  0  0
 15 16  1  0  0  0
 16 17  2  0  0  0
 17 18  1  0  0  0
 18 19  2  0  0  0
 17  1  1  0  0  0
  1  2  1  0  0  0
  2  3  1  0  0  0
  3  4  2  0  0  0
  4  5  1  0  0  0
  5  6  1  0  0  0
  5  7  2  0  0  0
  7  8  1  0  0  0
  8  9  2  0  0  0
  9 10  1  0  0  0
 10 11  1  0  0  0
 11 21  1  0  0  0
 21 22  2  0  0  0
 22 23  1  0  0  0
 23 24  2  0  0  0
 24 27  1  0  0  0
 27 28  1  0  0  0
 28 29  1  0  0  0
 29 30  1  0  0  0
 30 31  1  0  0  0
 31 32  1  0  0  0
 32 33  1  0  0  0
 33 34  1  0  0  0
 24 25  1  0  0  0
 25 26  2  0  0  0
 19 14  1  0  0  0
 11  1  1  0  0  0
 26 21  1  0  0  0
  9  3  1  0  0  0
 34 30  1  0  0  0
 13 20  1  0  0  0
  6 12  1  0  0  0
M  END
> <minimizedAffinity>
5.78109

> <CNNscore>
0.4904621840

> <CNNaffinity>
7.6416001320

> <CNN_VS>
3.7479159832

> <CNNaffinity_variance>
0.5366522670

$$$$
[H]Oc1c([H])c([H])c([C@@]2([H])Sc3c([H])c(O[H])c([H])c([H])c3O[C@@]2([H])c2c([H])c([H])c(OC([H])([H])C([H])([H])N3C([H])([H])C([H])([H])C([H])([H])C3([H])[H])c([H])c2[H])c([H])c1[H]


 34 38  0  0  0  0  0  0  0  0999 V2000
   10.2968   43.9701  131.2813 C   0  0  0  0  0  0  0  0  0  0  0  0
    9.1124   42.7089  130.6194 S   0  0  0  0  0  0  0  0  0  0  0  0
    9.6452   42.5848  128.9416 C   0  0  0  0  0  0  0  0  0  0  0  0
    9.2108   41.5644  128.1559 C   0  0  0  0  0  0  0  0  0  0  0  0
    9.6002   41.4214  126.8346 C   0  0  0  0  0  0  0  0  0  0  0  0
    9.1597   40.3827  126.0297 O   0  0  0  0  0  0  0  0  0  0  0  0
   10.4609   42.3531  126.3044 C   0  0  0  0  0  0  0  0  0  0  0  0
   10.9174   43.3997  127.0812 C   0  0  0  0  0  0  0  0  0  0  0  0
   10.4993   43.5083  128.4138 C   0  0  0  0  0  0  0  0  0  0  0  0
   11.0020   44.5862  129.1251 O   0  0  0  0  0  0  0  0  0  0  0  0
   10.3080   45.0547  130.3091 C   0  0  0  0  0  0  0  0  0  0  0  0
    9.7264   39.5203  126.0214 H   0  0  0  0  0  0  0  0  0  0  0  0
    9.8363   44.7864  136.8321 O   0  0  0  0  0  0  0  0  0  0  0  0
    9.9336   44.5761  135.4505 C   0  0  0  0  0  0  0  0  0  0  0  0
    9.1297   43.6850  134.7880 C   0  0  0  0  0  0  0  0  0  0  0  0
    9.2548   43.5043  133.4256 C   0  0  0  0  0  0  0  0  0  0  0  0
   10.1922   44.2134  132.6826 C   0  0  0  0  0  0  0  0  0  0  0  0
   10.9770   45.0920  133.3721 C   0  0  0  0  0  0  0  0  0  0  0  0
   10.8640   45.2847  134.7382 C   0  0  0  0  0  0  0  0  0  0  0  0
    9.1435   44.2619  137.3733 H   0  0  0  0  0  0  0  0  0  0  0  0
    9.0815   45.6408  129.8216 C   0  0  0  0  0  0  0  0  0  0  0  0
    8.4931   46.5938  130.6731 C   0  0  0  0  0  0  0  0  0  0  0  0
    7.3266   47.2399  130.3490 C   0  0  0  0  0  0  0  0  0  0  0  0
    6.6796   46.9760  129.1629 C   0  0  0  0  0  0  0  0  0  0  0  0
    7.2417   46.0453  128.3170 C   0  0  0  0  0  0  0  0  0  0  0  0
    8.4304   45.3876  128.6478 C   0  0  0  0  0  0  0  0  0  0  0  0
    5.4978   47.6269  128.8277 O   0  0  0  0  0  0  0  0  0  0  0  0
    5.1189   48.7563  129.5436 C   0  0  0  0  0  0  0  0  0  0  0  0
    5.8352   50.0130  129.2001 C   0  0  0  0  0  0  0  0  0  0  0  0
    7.0911   50.2391  129.7872 N   0  0  0  0  0  0  0  0  0  0  0  0
    8.2237   49.5982  129.2088 C   0  0  0  0  0  0  0  0  0  0  0  0
    9.3579   50.2327  130.0291 C   0  0  0  0  0  0  0  0  0  0  0  0
    8.7343   50.2248  131.4212 C   0  0  0  0  0  0  0  0  0  0  0  0
    7.2161   50.2354  131.1943 C   0  0  0  0  0  0  0  0  0  0  0  0
 13 14  1  0  0  0
 14 15  2  0  0  0
 15 16  1  0  0  0
 16 17  2  0  0  0
 17 18  1  0  0  0
 18 19  2  0  0  0
 17  1  1  0  0  0
  1  2  1  0  0  0
  2  3  1  0  0  0
  3  4  2  0  0  0
  4  5  1  0  0  0
  5  6  1  0  0  0
  5  7  2  0  0  0
  7  8  1  0  0  0
  8  9  2  0  0  0
  9 10  1  0  0  0
 10 11  1  0  0  0
 11 21  1  0  0  0
 21 22  2  0  0  0
 22 23  1  0  0  0
 23 24  2  0  0  0
 24 27  1  0  0  0
 27 28  1  0  0  0
 28 29  1  0  0  0
 29 30  1  0  0  0
 30 31  1  0  0  0
 31 32  1  0  0  0
 32 33  1  0  0  0
 33 34  1  0  0  0
 24 25  1  0  0  0
 25 26  2  0  0  0
 19 14  1  0  0  0
 11  1  1  0  0  0
 26 21  1  0  0  0
  9  3  1  0  0  0
 34 30  1  0  0  0
 13 20  1  0  0  0
  6 12  1  0  0  0
M  END
> <minimizedAffinity>
20.17850

> <CNNscore>
0.3203230798

> <CNNaffinity>
7.4045777321

> <CNN_VS>
2.3718571663

> <CNNaffinity_variance>
1.2120850086

$$$$
[H]Oc1c([H])c([H])c([C@@]2([H])Sc3c([H])c(O[H])c([H])c([H])c3O[C@@]2([H])c2c([H])c([H])c(OC([H])([H])C([H])([H])N3C([H])([H])C([H])([H])C([H])([H])C3([H])[H])c([H])c2[H])c([H])c1[H]


 34 38  0  0  0  0  0  0  0  0999 V2000
   10.3192   43.6381  131.2093 C   0  0  0  0  0  0  0  0  0  0  0  0
   11.9853   44.4397  131.3246 S   0  0  0  0  0  0  0  0  0  0  0  0
   11.9023   45.1749  132.9268 C   0  0  0  0  0  0  0  0  0  0  0  0
   13.0273   45.6464  133.5261 C   0  0  0  0  0  0  0  0  0  0  0  0
   13.0159   46.2301  134.7819 C   0  0  0  0  0  0  0  0  0  0  0  0
   14.1606   46.7123  135.3968 O   0  0  0  0  0  0  0  0  0  0  0  0
   11.8144   46.3326  135.4420 C   0  0  0  0  0  0  0  0  0  0  0  0
   10.6563   45.8613  134.8555 C   0  0  0  0  0  0  0  0  0  0  0  0
   10.7109   45.2774  133.5833 C   0  0  0  0  0  0  0  0  0  0  0  0
    9.5060   44.8303  133.0649 O   0  0  0  0  0  0  0  0  0  0  0  0
    9.3605   44.6493  131.6334 C   0  0  0  0  0  0  0  0  0  0  0  0
   14.6895   46.0542  135.9902 H   0  0  0  0  0  0  0  0  0  0  0  0
    9.5711   40.6265  126.5123 O   0  0  0  0  0  0  0  0  0  0  0  0
    9.7491   41.3906  127.6729 C   0  0  0  0  0  0  0  0  0  0  0  0
    9.7190   42.7611  127.6581 C   0  0  0  0  0  0  0  0  0  0  0  0
    9.8987   43.4804  128.8220 C   0  0  0  0  0  0  0  0  0  0  0  0
   10.1145   42.8466  130.0408 C   0  0  0  0  0  0  0  0  0  0  0  0
   10.1392   41.4819  130.0212 C   0  0  0  0  0  0  0  0  0  0  0  0
    9.9607   40.7460  128.8625 C   0  0  0  0  0  0  0  0  0  0  0  0
    9.4117   41.0991  125.6184 H   0  0  0  0  0  0  0  0  0  0  0  0
    9.3790   45.9829  131.0797 C   0  0  0  0  0  0  0  0  0  0  0  0
    8.8297   46.9816  131.9045 C   0  0  0  0  0  0  0  0  0  0  0  0
    8.7766   48.2977  131.5195 C   0  0  0  0  0  0  0  0  0  0  0  0
    9.2648   48.6953  130.2953 C   0  0  0  0  0  0  0  0  0  0  0  0
    9.8061   47.7304  129.4747 C   0  0  0  0  0  0  0  0  0  0  0  0
    9.8602   46.3896  129.8678 C   0  0  0  0  0  0  0  0  0  0  0  0
    9.2146   50.0268  129.8988 O   0  0  0  0  0  0  0  0  0  0  0  0
    8.2607   50.8666  130.4613 C   0  0  0  0  0  0  0  0  0  0  0  0
    7.1187   51.2324  129.5825 C   0  0  0  0  0  0  0  0  0  0  0  0
    6.1838   50.2335  129.2642 N   0  0  0  0  0  0  0  0  0  0  0  0
    5.3083   49.7856  130.2942 C   0  0  0  0  0  0  0  0  0  0  0  0
    4.3836   48.8541  129.4948 C   0  0  0  0  0  0  0  0  0  0  0  0
    5.3987   48.1590  128.5930 C   0  0  0  0  0  0  0  0  0  0  0  0
    6.5788   49.1332  128.4711 C   0  0  0  0  0  0  0  0  0  0  0  0
 13 14  1  0  0  0
 14 15  2  0  0  0
 15 16  1  0  0  0
 16 17  2  0  0  0
 17 18  1  0  0  0
 18 19  2  0  0  0
 17  1  1  0  0  0
  1  2  1  0  0  0
  2  3  1  0  0  0
  3  4  2  0  0  0
  4  5  1  0  0  0
  5  6  1  0  0  0
  5  7  2  0  0  0
  7  8  1  0  0  0
  8  9  2  0  0  0
  9 10  1  0  0  0
 10 11  1  0  0  0
 11 21  1  0  0  0
 21 22  2  0  0  0
 22 23  1  0  0  0
 23 24  2  0  0  0
 24 27  1  0  0  0
 27 28  1  0  0  0
 28 29  1  0  0  0
 29 30  1  0  0  0
 30 31  1  0  0  0
 31 32  1  0  0  0
 32 33  1  0  0  0
 33 34  1  0  0  0
 24 25  1  0  0  0
 25 26  2  0  0  0
 19 14  1  0  0  0
 11  1  1  0  0  0
 26 21  1  0  0  0
  9  3  1  0  0  0
 34 30  1  0  0  0
 13 20  1  0  0  0
  6 12  1  0  0  0
M  END
> <minimizedAffinity>
14.71547

> <CNNscore>
0.3168385029

> <CNNaffinity>
7.3911561966

> <CNN_VS>
2.3418028355

> <CNNaffinity_variance>
1.5657713413

$$$$
[H]Oc1c([H])c([H])c([C@@]2([H])Sc3c([H])c(O[H])c([H])c([H])c3O[C@@]2([H])c2c([H])c([H])c(OC([H])([H])C([H])([H])N3C([H])([H])C([H])([H])C([H])([H])C3([H])[H])c([H])c2[H])c([H])c1[H]


 34 38  0  0  0  0  0  0  0  0999 V2000
    7.4325   45.1410  130.8467 C   0  0  0  0  0  0  0  0  0  0  0  0
    9.1810   44.7764  130.3550 S   0  0  0  0  0  0  0  0  0  0  0  0
    9.5740   43.4459  131.4456 C   0  0  0  0  0  0  0  0  0  0  0  0
   10.6868   42.6934  131.2391 C   0  0  0  0  0  0  0  0  0  0  0  0
   11.0385   41.6383  132.0643 C   0  0  0  0  0  0  0  0  0  0  0  0
   12.1723   40.8684  131.8577 O   0  0  0  0  0  0  0  0  0  0  0  0
   10.2238   41.3469  133.1327 C   0  0  0  0  0  0  0  0  0  0  0  0
    9.0870   42.0959  133.3650 C   0  0  0  0  0  0  0  0  0  0  0  0
    8.7667   43.1553  132.5061 C   0  0  0  0  0  0  0  0  0  0  0  0
    7.6106   43.8573  132.8080 O   0  0  0  0  0  0  0  0  0  0  0  0
    7.4331   45.2047  132.3019 C   0  0  0  0  0  0  0  0  0  0  0  0
   12.0715   40.0321  131.2615 H   0  0  0  0  0  0  0  0  0  0  0  0
    4.9530   49.0016  127.5852 O   0  0  0  0  0  0  0  0  0  0  0  0
    5.5865   48.0492  128.3939 C   0  0  0  0  0  0  0  0  0  0  0  0
    6.9340   47.8078  128.3209 C   0  0  0  0  0  0  0  0  0  0  0  0
    7.5232   46.8610  129.1339 C   0  0  0  0  0  0  0  0  0  0  0  0
    6.7780   46.1248  130.0483 C   0  0  0  0  0  0  0  0  0  0  0  0
    5.4396   46.3888  130.0958 C   0  0  0  0  0  0  0  0  0  0  0  0
    4.8336   47.3349  129.2873 C   0  0  0  0  0  0  0  0  0  0  0  0
    5.5074   49.5410  126.9147 H   0  0  0  0  0  0  0  0  0  0  0  0
    8.3950   46.0080  133.0195 C   0  0  0  0  0  0  0  0  0  0  0  0
    9.5496   46.3516  132.2926 C   0  0  0  0  0  0  0  0  0  0  0  0
   10.5542   47.1122  132.8362 C   0  0  0  0  0  0  0  0  0  0  0  0
   10.4690   47.5731  134.1305 C   0  0  0  0  0  0  0  0  0  0  0  0
    9.3453   47.2460  134.8571 C   0  0  0  0  0  0  0  0  0  0  0  0
    8.3219   46.4712  134.3024 C   0  0  0  0  0  0  0  0  0  0  0  0
   11.4826   48.3444  134.6878 O   0  0  0  0  0  0  0  0  0  0  0  0
   11.6485   49.6569  134.2618 C   0  0  0  0  0  0  0  0  0  0  0  0
   10.4062   50.3748  133.8722 C   0  0  0  0  0  0  0  0  0  0  0  0
    9.9530   50.2407  132.5495 N   0  0  0  0  0  0  0  0  0  0  0  0
    8.5979   49.8541  132.3437 C   0  0  0  0  0  0  0  0  0  0  0  0
    8.4933   49.9897  130.8165 C   0  0  0  0  0  0  0  0  0  0  0  0
    9.8364   49.4047  130.3912 C   0  0  0  0  0  0  0  0  0  0  0  0
   10.7738   49.6072  131.5899 C   0  0  0  0  0  0  0  0  0  0  0  0
 13 14  1  0  0  0
 14 15  2  0  0  0
 15 16  1  0  0  0
 16 17  2  0  0  0
 17 18  1  0  0  0
 18 19  2  0  0  0
 17  1  1  0  0  0
  1  2  1  0  0  0
  2  3  1  0  0  0
  3  4  2  0  0  0
  4  5  1  0  0  0
  5  6  1  0  0  0
  5  7  2  0  0  0
  7  8  1  0  0  0
  8  9  2  0  0  0
  9 10  1  0  0  0
 10 11  1  0  0  0
 11 21  1  0  0  0
 21 22  2  0  0  0
 22 23  1  0  0  0
 23 24  2  0  0  0
 24 27  1  0  0  0
 27 28  1  0  0  0
 28 29  1  0  0  0
 29 30  1  0  0  0
 30 31  1  0  0  0
 31 32  1  0  0  0
 32 33  1  0  0  0
 33 34  1  0  0  0
 24 25  1  0  0  0
 25 26  2  0  0  0
 19 14  1  0  0  0
 11  1  1  0  0  0
 26 21  1  0  0  0
  9  3  1  0  0  0
 34 30  1  0  0  0
 13 20  1  0  0  0
  6 12  1  0  0  0
M  END
> <minimizedAffinity>
10.15133

> <CNNscore>
0.3027958274

> <CNNaffinity>
7.2627191544

> <CNN_VS>
2.1991209984

> <CNNaffinity_variance>
0.3890832067

$$$$
[H]Oc1c([H])c([H])c([C@@]2([H])Sc3c([H])c(O[H])c([H])c([H])c3O[C@@]2([H])c2c([H])c([H])c(OC([H])([H])C([H])([H])N3C([H])([H])C([H])([H])C([H])([H])C3([H])[H])c([H])c2[H])c([H])c1[H]


 34 38  0  0  0  0  0  0  0  0999 V2000
    8.0195   46.4983  129.6433 C   0  0  0  0  0  0  0  0  0  0  0  0
    9.4783   46.0045  128.6140 S   0  0  0  0  0  0  0  0  0  0  0  0
    9.3813   44.2447  128.7030 C   0  0  0  0  0  0  0  0  0  0  0  0
   10.1169   43.4721  127.8609 C   0  0  0  0  0  0  0  0  0  0  0  0
   10.0754   42.0881  127.8893 C   0  0  0  0  0  0  0  0  0  0  0  0
   10.8238   41.2962  127.0327 O   0  0  0  0  0  0  0  0  0  0  0  0
    9.2546   41.4794  128.8089 C   0  0  0  0  0  0  0  0  0  0  0  0
    8.4965   42.2413  129.6761 C   0  0  0  0  0  0  0  0  0  0  0  0
    8.5673   43.6390  129.6148 C   0  0  0  0  0  0  0  0  0  0  0  0
    7.7764   44.3303  130.5187 O   0  0  0  0  0  0  0  0  0  0  0  0
    8.1024   45.7015  130.8598 C   0  0  0  0  0  0  0  0  0  0  0  0
   10.3900   41.0343  126.1337 H   0  0  0  0  0  0  0  0  0  0  0  0
    6.8569   52.0063  129.6746 O   0  0  0  0  0  0  0  0  0  0  0  0
    7.1454   50.6357  129.6482 C   0  0  0  0  0  0  0  0  0  0  0  0
    6.8574   49.8485  128.5634 C   0  0  0  0  0  0  0  0  0  0  0  0
    7.1562   48.5013  128.5739 C   0  0  0  0  0  0  0  0  0  0  0  0
    7.7550   47.8993  129.6751 C   0  0  0  0  0  0  0  0  0  0  0  0
    8.0281   48.7104  130.7385 C   0  0  0  0  0  0  0  0  0  0  0  0
    7.7347   50.0632  130.7437 C   0  0  0  0  0  0  0  0  0  0  0  0
    6.4170   52.4436  128.8603 H   0  0  0  0  0  0  0  0  0  0  0  0
    9.3248   45.6207  131.6244 C   0  0  0  0  0  0  0  0  0  0  0  0
    9.2973   44.7197  132.7046 C   0  0  0  0  0  0  0  0  0  0  0  0
   10.3818   44.5297  133.5238 C   0  0  0  0  0  0  0  0  0  0  0  0
   11.5527   45.2233  133.3168 C   0  0  0  0  0  0  0  0  0  0  0  0
   11.5973   46.1100  132.2636 C   0  0  0  0  0  0  0  0  0  0  0  0
   10.4920   46.3029  131.4292 C   0  0  0  0  0  0  0  0  0  0  0  0
   12.6554   45.0358  134.1424 O   0  0  0  0  0  0  0  0  0  0  0  0
   13.2603   46.1417  134.7278 C   0  0  0  0  0  0  0  0  0  0  0  0
   12.3913   47.3333  134.9158 C   0  0  0  0  0  0  0  0  0  0  0  0
   11.0032   47.1666  134.7801 N   0  0  0  0  0  0  0  0  0  0  0  0
   10.2617   48.2149  134.1643 C   0  0  0  0  0  0  0  0  0  0  0  0
    8.8722   47.5645  134.0751 C   0  0  0  0  0  0  0  0  0  0  0  0
    8.7991   46.8737  135.4331 C   0  0  0  0  0  0  0  0  0  0  0  0
   10.2557   46.6278  135.8508 C   0  0  0  0  0  0  0  0  0  0  0  0
 13 14  1  0  0  0
 14 15  2  0  0  0
 15 16  1  0  0  0
 16 17  2  0  0  0
 17 18  1  0  0  0
 18 19  2  0  0  0
 17  1  1  0  0  0
  1  2  1  0  0  0
  2  3  1  0  0  0
  3  4  2  0  0  0
  4  5  1  0  0  0
  5  6  1  0  0  0
  5  7  2  0  0  0
  7  8  1  0  0  0
  8  9  2  0  0  0
  9 10  1  0  0  0
 10 11  1  0  0  0
 11 21  1  0  0  0
 21 22  2  0  0  0
 22 23  1  0  0  0
 23 24  2  0  0  0
 24 27  1  0  0  0
 27 28  1  0  0  0
 28 29  1  0  0  0
 29 30  1  0  0  0
 30 31  1  0  0  0
 31 32  1  0  0  0
 32 33  1  0  0  0
 33 34  1  0  0  0
 24 25  1  0  0  0
 25 26  2  0  0  0
 19 14  1  0  0  0
 11  1  1  0  0  0
 26 21  1  0  0  0
  9  3  1  0  0  0
 34 30  1  0  0  0
 13 20  1  0  0  0
  6 12  1  0  0  0
M  END
> <minimizedAffinity>
6.40699

> <CNNscore>
0.2991285026

> <CNNaffinity>
7.5352678299

> <CNN_VS>
2.2540132999

> <CNNaffinity_variance>
0.8226515055

$$$$
[H]Oc1c([H])c([H])c([C@@]2([H])Sc3c([H])c(O[H])c([H])c([H])c3O[C@@]2([H])c2c([H])c([H])c(OC([H])([H])C([H])([H])N3C([H])([H])C([H])([H])C([H])([H])C3([H])[H])c([H])c2[H])c([H])c1[H]


 34 38  0  0  0  0  0  0  0  0999 V2000
    8.6598   47.0552  128.7825 C   0  0  0  0  0  0  0  0  0  0  0  0
    7.0647   47.1125  129.7227 S   0  0  0  0  0  0  0  0  0  0  0  0
    6.7757   48.8515  129.8030 C   0  0  0  0  0  0  0  0  0  0  0  0
    5.5620   49.3300  130.1837 C   0  0  0  0  0  0  0  0  0  0  0  0
    5.2841   50.6845  130.2613 C   0  0  0  0  0  0  0  0  0  0  0  0
    4.0480   51.1769  130.6492 O   0  0  0  0  0  0  0  0  0  0  0  0
    6.2814   51.5739  129.9384 C   0  0  0  0  0  0  0  0  0  0  0  0
    7.5238   51.1141  129.5483 C   0  0  0  0  0  0  0  0  0  0  0  0
    7.7641   49.7355  129.4828 C   0  0  0  0  0  0  0  0  0  0  0  0
    9.0357   49.3562  129.0832 O   0  0  0  0  0  0  0  0  0  0  0  0
    9.5314   48.0348  129.4168 C   0  0  0  0  0  0  0  0  0  0  0  0
    3.3509   51.3386  129.9056 H   0  0  0  0  0  0  0  0  0  0  0  0
   10.3077   41.8283  127.4966 O   0  0  0  0  0  0  0  0  0  0  0  0
    9.8898   43.1226  127.8323 C   0  0  0  0  0  0  0  0  0  0  0  0
    8.8752   43.3552  128.7242 C   0  0  0  0  0  0  0  0  0  0  0  0
    8.4906   44.6447  129.0302 C   0  0  0  0  0  0  0  0  0  0  0  0
    9.1130   45.7446  128.4502 C   0  0  0  0  0  0  0  0  0  0  0  0
   10.1188   45.4788  127.5663 C   0  0  0  0  0  0  0  0  0  0  0  0
   10.5163   44.1915  127.2488 C   0  0  0  0  0  0  0  0  0  0  0  0
    9.8461   41.0229  127.9278 H   0  0  0  0  0  0  0  0  0  0  0  0
    9.7259   48.0539  130.8476 C   0  0  0  0  0  0  0  0  0  0  0  0
    8.5523   47.9294  131.6135 C   0  0  0  0  0  0  0  0  0  0  0  0
    8.5734   47.9285  132.9856 C   0  0  0  0  0  0  0  0  0  0  0  0
    9.7596   48.0516  133.6733 C   0  0  0  0  0  0  0  0  0  0  0  0
   10.9187   48.1747  132.9393 C   0  0  0  0  0  0  0  0  0  0  0  0
   10.8964   48.1752  131.5412 C   0  0  0  0  0  0  0  0  0  0  0  0
    9.7887   48.0512  135.0632 O   0  0  0  0  0  0  0  0  0  0  0  0
    8.8543   47.2952  135.7610 C   0  0  0  0  0  0  0  0  0  0  0  0
    8.7265   45.8741  135.3431 C   0  0  0  0  0  0  0  0  0  0  0  0
    9.9040   45.1529  135.0854 N   0  0  0  0  0  0  0  0  0  0  0  0
   10.5754   44.5541  136.1893 C   0  0  0  0  0  0  0  0  0  0  0  0
   11.6696   43.7600  135.4586 C   0  0  0  0  0  0  0  0  0  0  0  0
   12.0812   44.7687  134.3909 C   0  0  0  0  0  0  0  0  0  0  0  0
   10.8568   45.6702  134.1797 C   0  0  0  0  0  0  0  0  0  0  0  0
 13 14  1  0  0  0
 14 15  2  0  0  0
 15 16  1  0  0  0
 16 17  2  0  0  0
 17 18  1  0  0  0
 18 19  2  0  0  0
 17  1  1  0  0  0
  1  2  1  0  0  0
  2  3  1  0  0  0
  3  4  2  0  0  0
  4  5  1  0  0  0
  5  6  1  0  0  0
  5  7  2  0  0  0
  7  8  1  0  0  0
  8  9  2  0  0  0
  9 10  1  0  0  0
 10 11  1  0  0  0
 11 21  1  0  0  0
 21 22  2  0  0  0
 22 23  1  0  0  0
 23 24  2  0  0  0
 24 27  1  0  0  0
 27 28  1  0  0  0
 28 29  1  0  0  0
 29 30  1  0  0  0
 30 31  1  0  0  0
 31 32  1  0  0  0
 32 33  1  0  0  0
 33 34  1  0  0  0
 24 25  1  0  0  0
 25 26  2  0  0  0
 19 14  1  0  0  0
 11  1  1  0  0  0
 26 21  1  0  0  0
  9  3  1  0  0  0
 34 30  1  0  0  0
 13 20  1  0  0  0
  6 12  1  0  0  0
M  END
> <minimizedAffinity>
7.66383

> <CNNscore>
0.2828567028

> <CNNaffinity>
7.1075334549

> <CNN_VS>
2.0104134083

> <CNNaffinity_variance>
0.5371759534

$$$$
[H]Oc1c([H])c([H])c([C@@]2([H])Sc3c([H])c(O[H])c([H])c([H])c3O[C@@]2([H])c2c([H])c([H])c(OC([H])([H])C([H])([H])N3C([H])([H])C([H])([H])C([H])([H])C3([H])[H])c([H])c2[H])c([H])c1[H]


 34 38  0  0  0  0  0  0  0  0999 V2000
    9.1078   48.8298  131.5682 C   0  0  0  0  0  0  0  0  0  0  0  0
    8.0711   48.0601  132.8965 S   0  0  0  0  0  0  0  0  0  0  0  0
    9.3011   47.2395  133.8598 C   0  0  0  0  0  0  0  0  0  0  0  0
    9.0006   46.7619  135.0963 C   0  0  0  0  0  0  0  0  0  0  0  0
    9.9295   46.1125  135.8920 C   0  0  0  0  0  0  0  0  0  0  0  0
    9.6276   45.6237  137.1534 O   0  0  0  0  0  0  0  0  0  0  0  0
   11.2044   45.9487  135.4043 C   0  0  0  0  0  0  0  0  0  0  0  0
   11.5360   46.4247  134.1510 C   0  0  0  0  0  0  0  0  0  0  0  0
   10.5666   47.0762  133.3775 C   0  0  0  0  0  0  0  0  0  0  0  0
   10.9789   47.5234  132.1324 O   0  0  0  0  0  0  0  0  0  0  0  0
    9.9965   47.7766  131.0962 C   0  0  0  0  0  0  0  0  0  0  0  0
    9.7710   46.2611  137.9522 H   0  0  0  0  0  0  0  0  0  0  0  0
    6.3403   52.2955  128.1013 O   0  0  0  0  0  0  0  0  0  0  0  0
    7.0203   51.4409  128.9786 C   0  0  0  0  0  0  0  0  0  0  0  0
    7.1624   51.7243  130.3124 C   0  0  0  0  0  0  0  0  0  0  0  0
    7.8395   50.8581  131.1464 C   0  0  0  0  0  0  0  0  0  0  0  0
    8.3967   49.6772  130.6683 C   0  0  0  0  0  0  0  0  0  0  0  0
    8.2380   49.4249  129.3362 C   0  0  0  0  0  0  0  0  0  0  0  0
    7.5618   50.2834  128.4866 C   0  0  0  0  0  0  0  0  0  0  0  0
    5.9315   53.1629  128.4597 H   0  0  0  0  0  0  0  0  0  0  0  0
    9.4913   46.4749  130.7277 C   0  0  0  0  0  0  0  0  0  0  0  0
    9.2186   45.6114  131.8044 C   0  0  0  0  0  0  0  0  0  0  0  0
    8.7322   44.3421  131.6162 C   0  0  0  0  0  0  0  0  0  0  0  0
    8.4903   43.8595  130.3499 C   0  0  0  0  0  0  0  0  0  0  0  0
    8.7519   44.6915  129.2837 C   0  0  0  0  0  0  0  0  0  0  0  0
    9.2472   45.9849  129.4762 C   0  0  0  0  0  0  0  0  0  0  0  0
    7.9973   42.5748  130.1516 O   0  0  0  0  0  0  0  0  0  0  0  0
    8.7726   41.4849  130.5295 C   0  0  0  0  0  0  0  0  0  0  0  0
   10.2352   41.6173  130.2980 C   0  0  0  0  0  0  0  0  0  0  0  0
   10.9382   42.5763  131.0458 N   0  0  0  0  0  0  0  0  0  0  0  0
   11.9484   43.3304  130.3835 C   0  0  0  0  0  0  0  0  0  0  0  0
   12.3229   44.3327  131.4866 C   0  0  0  0  0  0  0  0  0  0  0  0
   12.3147   43.4196  132.7085 C   0  0  0  0  0  0  0  0  0  0  0  0
   11.3662   42.2653  132.3558 C   0  0  0  0  0  0  0  0  0  0  0  0
 13 14  1  0  0  0
 14 15  2  0  0  0
 15 16  1  0  0  0
 16 17  2  0  0  0
 17 18  1  0  0  0
 18 19  2  0  0  0
 17  1  1  0  0  0
  1  2  1  0  0  0
  2  3  1  0  0  0
  3  4  2  0  0  0
  4  5  1  0  0  0
  5  6  1  0  0  0
  5  7  2  0  0  0
  7  8  1  0  0  0
  8  9  2  0  0  0
  9 10  1  0  0  0
 10 11  1  0  0  0
 11 21  1  0  0  0
 21 22  2  0  0  0
 22 23  1  0  0  0
 23 24  2  0  0  0
 24 27  1  0  0  0
 27 28  1  0  0  0
 28 29  1  0  0  0
 29 30  1  0  0  0
 30 31  1  0  0  0
 31 32  1  0  0  0
 32 33  1  0  0  0
 33 34  1  0  0  0
 24 25  1  0  0  0
 25 26  2  0  0  0
 19 14  1  0  0  0
 11  1  1  0  0  0
 26 21  1  0  0  0
  9  3  1  0  0  0
 34 30  1  0  0  0
 13 20  1  0  0  0
  6 12  1  0  0  0
M  END
> <minimizedAffinity>
2.91125

> <CNNscore>
0.2754236758

> <CNNaffinity>
7.3732399940

> <CNN_VS>
2.0307648182

> <CNNaffinity_variance>
0.3981215358

$$$$
[H]Oc1c([H])c([H])c([C@@]2([H])Sc3c([H])c(O[H])c([H])c([H])c3O[C@@]2([H])c2c([H])c([H])c(OC([H])([H])C([H])([H])N3C([H])([H])C([H])([H])C([H])([H])C3([H])[H])c([H])c2[H])c([H])c1[H]


 34 38  0  0  0  0  0  0  0  0999 V2000
    9.5101   44.2863  131.0429 C   0  0  0  0  0  0  0  0  0  0  0  0
   10.8542   45.5169  131.3755 S   0  0  0  0  0  0  0  0  0  0  0  0
   10.3042   46.2235  132.8962 C   0  0  0  0  0  0  0  0  0  0  0  0
   11.1415   46.9947  133.6386 C   0  0  0  0  0  0  0  0  0  0  0  0
   10.7592   47.5704  134.8387 C   0  0  0  0  0  0  0  0  0  0  0  0
   11.6096   48.3576  135.5991 O   0  0  0  0  0  0  0  0  0  0  0  0
    9.4798   47.3478  135.2900 C   0  0  0  0  0  0  0  0  0  0  0  0
    8.6089   46.5679  134.5548 C   0  0  0  0  0  0  0  0  0  0  0  0
    9.0351   46.0035  133.3455 C   0  0  0  0  0  0  0  0  0  0  0  0
    8.1017   45.2350  132.6685 O   0  0  0  0  0  0  0  0  0  0  0  0
    8.2570   45.0007  131.2458 C   0  0  0  0  0  0  0  0  0  0  0  0
   12.1864   47.8788  136.3083 H   0  0  0  0  0  0  0  0  0  0  0  0
   10.2667   40.8980  126.6115 O   0  0  0  0  0  0  0  0  0  0  0  0
   10.0803   41.7265  127.7257 C   0  0  0  0  0  0  0  0  0  0  0  0
    9.6961   41.2350  128.9464 C   0  0  0  0  0  0  0  0  0  0  0  0
    9.5220   42.0823  130.0217 C   0  0  0  0  0  0  0  0  0  0  0  0
    9.7284   43.4526  129.9067 C   0  0  0  0  0  0  0  0  0  0  0  0
   10.1096   43.9097  128.6783 C   0  0  0  0  0  0  0  0  0  0  0  0
   10.2885   43.0732  127.5901 C   0  0  0  0  0  0  0  0  0  0  0  0
   10.1141   39.8900  126.7030 H   0  0  0  0  0  0  0  0  0  0  0  0
    8.0108   46.2799  130.6227 C   0  0  0  0  0  0  0  0  0  0  0  0
    9.0357   46.7411  129.7762 C   0  0  0  0  0  0  0  0  0  0  0  0
    8.9488   47.9381  129.1108 C   0  0  0  0  0  0  0  0  0  0  0  0
    7.8410   48.7436  129.2489 C   0  0  0  0  0  0  0  0  0  0  0  0
    6.8278   48.3077  130.0740 C   0  0  0  0  0  0  0  0  0  0  0  0
    6.9169   47.0877  130.7515 C   0  0  0  0  0  0  0  0  0  0  0  0
    7.7459   49.9573  128.5777 O   0  0  0  0  0  0  0  0  0  0  0  0
    7.3873   51.0979  129.2863 C   0  0  0  0  0  0  0  0  0  0  0  0
    6.6118   52.1155  128.5289 C   0  0  0  0  0  0  0  0  0  0  0  0
    7.2711   52.8271  127.5131 N   0  0  0  0  0  0  0  0  0  0  0  0
    7.1015   54.2403  127.4695 C   0  0  0  0  0  0  0  0  0  0  0  0
    8.0916   54.6103  126.3539 C   0  0  0  0  0  0  0  0  0  0  0  0
    7.8285   53.4823  125.3613 C   0  0  0  0  0  0  0  0  0  0  0  0
    7.2862   52.3143  126.1968 C   0  0  0  0  0  0  0  0  0  0  0  0
 13 14  1  0  0  0
 14 15  2  0  0  0
 15 16  1  0  0  0
 16 17  2  0  0  0
 17 18  1  0  0  0
 18 19  2  0  0  0
 17  1  1  0  0  0
  1  2  1  0  0  0
  2  3  1  0  0  0
  3  4  2  0  0  0
  4  5  1  0  0  0
  5  6  1  0  0  0
  5  7  2  0  0  0
  7  8  1  0  0  0
  8  9  2  0  0  0
  9 10  1  0  0  0
 10 11  1  0  0  0
 11 21  1  0  0  0
 21 22  2  0  0  0
 22 23  1  0  0  0
 23 24  2  0  0  0
 24 27  1  0  0  0
 27 28  1  0  0  0
 28 29  1  0  0  0
 29 30  1  0  0  0
 30 31  1  0  0  0
 31 32  1  0  0  0
 32 33  1  0  0  0
 33 34  1  0  0  0
 24 25  1  0  0  0
 25 26  2  0  0  0
 19 14  1  0  0  0
 11  1  1  0  0  0
 26 21  1  0  0  0
  9  3  1  0  0  0
 34 30  1  0  0  0
 13 20  1  0  0  0
  6 12  1  0  0  0
M  END
> <minimizedAffinity>
10.53451

> <CNNscore>
0.2577239871

> <CNNaffinity>
6.8727064133

> <CNN_VS>
1.7712613344

> <CNNaffinity_variance>
0.9941021800

$$$$
[H]Oc1c([H])c([H])c([C@@]2([H])Sc3c([H])c(O[H])c([H])c([H])c3O[C@@]2([H])c2c([H])c([H])c(OC([H])([H])C([H])([H])N3C([H])([H])C([H])([H])C([H])([H])C3([H])[H])c([H])c2[H])c([H])c1[H]


 34 38  0  0  0  0  0  0  0  0999 V2000
   10.0412   45.0412  131.7934 C   0  0  0  0  0  0  0  0  0  0  0  0
   11.5049   46.1491  132.0418 S   0  0  0  0  0  0  0  0  0  0  0  0
   11.1812   46.7893  133.6541 C   0  0  0  0  0  0  0  0  0  0  0  0
   12.1521   47.4483  134.3400 C   0  0  0  0  0  0  0  0  0  0  0  0
   11.9493   47.9679  135.6075 C   0  0  0  0  0  0  0  0  0  0  0  0
   12.9363   48.6407  136.3105 O   0  0  0  0  0  0  0  0  0  0  0  0
   10.7137   47.8062  136.1882 C   0  0  0  0  0  0  0  0  0  0  0  0
    9.7097   47.1405  135.5129 C   0  0  0  0  0  0  0  0  0  0  0  0
    9.9558   46.6297  134.2318 C   0  0  0  0  0  0  0  0  0  0  0  0
    8.8971   45.9758  133.6219 O   0  0  0  0  0  0  0  0  0  0  0  0
    8.8770   45.8268  132.1796 C   0  0  0  0  0  0  0  0  0  0  0  0
   13.5485   48.0760  136.9200 H   0  0  0  0  0  0  0  0  0  0  0  0
   10.0060   41.9586  127.0832 O   0  0  0  0  0  0  0  0  0  0  0  0
   10.0086   42.7109  128.2649 C   0  0  0  0  0  0  0  0  0  0  0  0
    9.2726   42.3495  129.3635 C   0  0  0  0  0  0  0  0  0  0  0  0
    9.3001   43.1161  130.5107 C   0  0  0  0  0  0  0  0  0  0  0  0
   10.0685   44.2721  130.5928 C   0  0  0  0  0  0  0  0  0  0  0  0
   10.7889   44.6042  129.4819 C   0  0  0  0  0  0  0  0  0  0  0  0
   10.7721   43.8462  128.3239 C   0  0  0  0  0  0  0  0  0  0  0  0
    9.4390   41.1080  127.0294 H   0  0  0  0  0  0  0  0  0  0  0  0
    8.6639   47.1590  131.6647 C   0  0  0  0  0  0  0  0  0  0  0  0
    8.9564   47.3273  130.2988 C   0  0  0  0  0  0  0  0  0  0  0  0
    8.8030   48.5338  129.6632 C   0  0  0  0  0  0  0  0  0  0  0  0
    8.3518   49.6397  130.3477 C   0  0  0  0  0  0  0  0  0  0  0  0
    8.0608   49.4932  131.6861 C   0  0  0  0  0  0  0  0  0  0  0  0
    8.2170   48.2634  132.3329 C   0  0  0  0  0  0  0  0  0  0  0  0
    8.1938   50.8652  129.7104 O   0  0  0  0  0  0  0  0  0  0  0  0
    7.1345   51.0390  128.8276 C   0  0  0  0  0  0  0  0  0  0  0  0
    5.8130   50.5422  129.2936 C   0  0  0  0  0  0  0  0  0  0  0  0
    5.5007   49.1904  129.0744 N   0  0  0  0  0  0  0  0  0  0  0  0
    5.1966   48.3830  130.2073 C   0  0  0  0  0  0  0  0  0  0  0  0
    4.7692   47.0774  129.5184 C   0  0  0  0  0  0  0  0  0  0  0  0
    5.8121   46.9926  128.4084 C   0  0  0  0  0  0  0  0  0  0  0  0
    6.2604   48.4381  128.1510 C   0  0  0  0  0  0  0  0  0  0  0  0
 13 14  1  0  0  0
 14 15  2  0  0  0
 15 16  1  0  0  0
 16 17  2  0  0  0
 17 18  1  0  0  0
 18 19  2  0  0  0
 17  1  1  0  0  0
  1  2  1  0  0  0
  2  3  1  0  0  0
  3  4  2  0  0  0
  4  5  1  0  0  0
  5  6  1  0  0  0
  5  7  2  0  0  0
  7  8  1  0  0  0
  8  9  2  0  0  0
  9 10  1  0  0  0
 10 11  1  0  0  0
 11 21  1  0  0  0
 21 22  2  0  0  0
 22 23  1  0  0  0
 23 24  2  0  0  0
 24 27  1  0  0  0
 27 28  1  0  0  0
 28 29  1  0  0  0
 29 30  1  0  0  0
 30 31  1  0  0  0
 31 32  1  0  0  0
 32 33  1  0  0  0
 33 34  1  0  0  0
 24 25  1  0  0  0
 25 26  2  0  0  0
 19 14  1  0  0  0
 11  1  1  0  0  0
 26 21  1  0  0  0
  9  3  1  0  0  0
 34 30  1  0  0  0
 13 20  1  0  0  0
  6 12  1  0  0  0
M  END
> <minimizedAffinity>
9.35576

> <CNNscore>
0.2523432672

> <CNNaffinity>
7.3812856674

> <CNN_VS>
1.8626177311

> <CNNaffinity_variance>
0.8439220190

$$$$
[H]O[C@@]1([H])C([H])([H])C([H])([H])C2([H])C3([H])C([H])([H])C([H])([H])C4=C([H])C(=O)C([H])([H])C([H])([H])[C@]4(C([H])=C([H])[H])C3([H])C([H])([H])C([H])([H])[C@@]21C([H])([H])[H]


 23 26  0  0  0  0  0  0  0  0999 V2000
   10.1262   43.4664  132.1035 C   0  0  0  0  0  0  0  0  0  0  0  0
   10.1457   44.5614  133.0825 C   0  0  0  0  0  0  0  0  0  0  0  0
    8.8099   45.1501  133.4216 C   0  0  0  0  0  0  0  0  0  0  0  0
    8.2077   45.8326  132.2392 C   0  0  0  0  0  0  0  0  0  0  0  0
    9.1337   46.2158  131.1535 C   0  0  0  0  0  0  0  0  0  0  0  0
   10.5374   46.5403  131.5888 C   0  0  0  0  0  0  0  0  0  0  0  0
   10.7622   48.0076  131.8798 C   0  0  0  0  0  0  0  0  0  0  0  0
    9.5157   48.7993  132.0864 C   0  0  0  0  0  0  0  0  0  0  0  0
    8.4771   48.5707  131.0530 C   0  0  0  0  0  0  0  0  0  0  0  0
    7.5415   49.4851  130.8249 C   0  0  0  0  0  0  0  0  0  0  0  0
    6.5300   49.2373  129.8031 C   0  0  0  0  0  0  0  0  0  0  0  0
    5.7217   50.1319  129.4323 O   0  0  0  0  0  0  0  0  0  0  0  0
    6.3903   47.9023  129.1315 C   0  0  0  0  0  0  0  0  0  0  0  0
    7.1221   46.8354  129.9229 C   0  0  0  0  0  0  0  0  0  0  0  0
    8.5183   47.3139  130.3038 C   0  0  0  0  0  0  0  0  0  0  0  0
   11.0275   45.7349  132.7187 C   0  0  0  0  0  0  0  0  0  0  0  0
   12.3466   45.0790  132.5987 C   0  0  0  0  0  0  0  0  0  0  0  0
   12.3408   44.1255  133.7903 C   0  0  0  0  0  0  0  0  0  0  0  0
   10.9097   44.0874  134.3016 C   0  0  0  0  0  0  0  0  0  0  0  0
   10.6171   42.7313  134.5564 O   0  0  0  0  0  0  0  0  0  0  0  0
   11.2089   42.4747  135.3134 H   0  0  0  0  0  0  0  0  0  0  0  0
    9.2691   47.3912  129.0216 C   0  0  0  0  0  0  0  0  0  0  0  0
    9.9454   46.3807  128.5122 C   0  0  0  0  0  0  0  0  0  0  0  0
  2  1  1  0  0  0
  2  3  1  0  0  0
  3  4  1  0  0  0
  4  5  1  0  0  0
  5  6  1  0  0  0
  6  7  1  0  0  0
  7  8  1  0  0  0
  8  9  1  0  0  0
  9 10  2  0  0  0
 10 11  1  0  0  0
 11 12  2  0  0  0
 11 13  1  0  0  0
 13 14  1  0  0  0
 14 15  1  0  0  0
 15 22  1  0  0  0
 22 23  2  0  0  0
  6 16  1  0  0  0
 16 17  1  0  0  0
 17 18  1  0  0  0
 18 19  1  0  0  0
 19 20  1  0  0  0
 16  2  1  0  0  0
 19  2  1  0  0  0
 15  5  1  0  0  0
 15  9  1  0  0  0
 20 21  1  0  0  0
M  END
> <minimizedAffinity>
-9.24823

> <CNNscore>
0.5592141151

> <CNNaffinity>
7.4670166969

> <CNN_VS>
4.1756610870

> <CNNaffinity_variance>
0.3316774666

$$$$
[H]O[C@@]1([H])C([H])([H])C([H])([H])C2([H])C3([H])C([H])([H])C([H])([H])C4=C([H])C(=O)C([H])([H])C([H])([H])[C@]4(C([H])=C([H])[H])C3([H])C([H])([H])C([H])([H])[C@@]21C([H])([H])[H]


 23 26  0  0  0  0  0  0  0  0999 V2000
    6.5373   47.2440  129.7413 C   0  0  0  0  0  0  0  0  0  0  0  0
    7.8422   47.8983  129.5768 C   0  0  0  0  0  0  0  0  0  0  0  0
    8.9889   46.9855  129.2641 C   0  0  0  0  0  0  0  0  0  0  0  0
    9.2704   46.0661  130.4051 C   0  0  0  0  0  0  0  0  0  0  0  0
    8.7531   46.4745  131.7274 C   0  0  0  0  0  0  0  0  0  0  0  0
    8.6564   47.9598  131.9504 C   0  0  0  0  0  0  0  0  0  0  0  0
    9.8878   48.5624  132.5897 C   0  0  0  0  0  0  0  0  0  0  0  0
   11.1078   47.7081  132.5177 C   0  0  0  0  0  0  0  0  0  0  0  0
   10.8825   46.2988  132.9198 C   0  0  0  0  0  0  0  0  0  0  0  0
   11.8938   45.5496  133.3438 C   0  0  0  0  0  0  0  0  0  0  0  0
   11.6473   44.1656  133.7337 C   0  0  0  0  0  0  0  0  0  0  0  0
   12.5312   43.4618  134.2945 O   0  0  0  0  0  0  0  0  0  0  0  0
   10.3264   43.4955  133.4908 C   0  0  0  0  0  0  0  0  0  0  0  0
    9.5131   44.2842  132.4825 C   0  0  0  0  0  0  0  0  0  0  0  0
    9.5211   45.7681  132.8309 C   0  0  0  0  0  0  0  0  0  0  0  0
    8.2961   48.7345  130.7523 C   0  0  0  0  0  0  0  0  0  0  0  0
    7.1955   49.7162  130.8507 C   0  0  0  0  0  0  0  0  0  0  0  0
    6.9349   50.0547  129.3855 C   0  0  0  0  0  0  0  0  0  0  0  0
    7.6830   49.0154  128.5662 C   0  0  0  0  0  0  0  0  0  0  0  0
    6.8035   48.6141  127.5391 O   0  0  0  0  0  0  0  0  0  0  0  0
    6.6895   49.4180  126.9647 H   0  0  0  0  0  0  0  0  0  0  0  0
    8.7389   45.8786  134.0916 C   0  0  0  0  0  0  0  0  0  0  0  0
    9.2113   46.4216  135.1961 C   0  0  0  0  0  0  0  0  0  0  0  0
  2  1  1  0  0  0
  2  3  1  0  0  0
  3  4  1  0  0  0
  4  5  1  0  0  0
  5  6  1  0  0  0
  6  7  1  0  0  0
  7  8  1  0  0  0
  8  9  1  0  0  0
  9 10  2  0  0  0
 10 11  1  0  0  0
 11 12  2  0  0  0
 11 13  1  0  0  0
 13 14  1  0  0  0
 14 15  1  0  0  0
 15 22  1  0  0  0
 22 23  2  0  0  0
  6 16  1  0  0  0
 16 17  1  0  0  0
 17 18  1  0  0  0
 18 19  1  0  0  0
 19 20  1  0  0  0
 16  2  1  0  0  0
 19  2  1  0  0  0
 15  5  1  0  0  0
 15  9  1  0  0  0
 20 21  1  0  0  0
M  END
> <minimizedAffinity>
-9.20068

> <CNNscore>
0.5296658278

> <CNNaffinity>
7.3269858360

> <CNN_VS>
3.8808541298

> <CNNaffinity_variance>
0.2995223403

$$$$
[H]O[C@@]1([H])C([H])([H])C([H])([H])C2([H])C3([H])C([H])([H])C([H])([H])C4=C([H])C(=O)C([H])([H])C([H])([H])[C@]4(C([H])=C([H])[H])C3([H])C([H])([H])C([H])([H])[C@@]21C([H])([H])[H]


 23 26  0  0  0  0  0  0  0  0999 V2000
    7.9490   48.4809  128.0820 C   0  0  0  0  0  0  0  0  0  0  0  0
    7.7023   48.5711  129.5273 C   0  0  0  0  0  0  0  0  0  0  0  0
    8.9253   48.6706  130.3876 C   0  0  0  0  0  0  0  0  0  0  0  0
    9.7382   47.4215  130.3124 C   0  0  0  0  0  0  0  0  0  0  0  0
    9.0435   46.2073  129.8370 C   0  0  0  0  0  0  0  0  0  0  0  0
    7.5726   46.1428  130.1495 C   0  0  0  0  0  0  0  0  0  0  0  0
    7.2556   45.4403  131.4511 C   0  0  0  0  0  0  0  0  0  0  0  0
    8.4131   45.2996  132.3804 C   0  0  0  0  0  0  0  0  0  0  0  0
    9.6460   44.7867  131.7358 C   0  0  0  0  0  0  0  0  0  0  0  0
   10.5848   44.1874  132.4592 C   0  0  0  0  0  0  0  0  0  0  0  0
   11.7893   43.6914  131.8023 C   0  0  0  0  0  0  0  0  0  0  0  0
   12.6331   42.9745  132.4068 O   0  0  0  0  0  0  0  0  0  0  0  0
   12.0972   44.0045  130.3671 C   0  0  0  0  0  0  0  0  0  0  0  0
   11.2472   45.1651  129.8870 C   0  0  0  0  0  0  0  0  0  0  0  0
    9.7908   44.9653  130.2902 C   0  0  0  0  0  0  0  0  0  0  0  0
    6.8834   47.4424  130.1125 C   0  0  0  0  0  0  0  0  0  0  0  0
    5.6337   47.5569  129.3315 C   0  0  0  0  0  0  0  0  0  0  0  0
    5.4208   49.0675  129.2855 C   0  0  0  0  0  0  0  0  0  0  0  0
    6.7182   49.6977  129.7658 C   0  0  0  0  0  0  0  0  0  0  0  0
    6.9874   50.7669  128.8863 O   0  0  0  0  0  0  0  0  0  0  0  0
    6.2605   51.4264  129.0473 H   0  0  0  0  0  0  0  0  0  0  0  0
    9.3154   43.8106  129.4813 C   0  0  0  0  0  0  0  0  0  0  0  0
    9.5439   43.6840  128.1892 C   0  0  0  0  0  0  0  0  0  0  0  0
  2  1  1  0  0  0
  2  3  1  0  0  0
  3  4  1  0  0  0
  4  5  1  0  0  0
  5  6  1  0  0  0
  6  7  1  0  0  0
  7  8  1  0  0  0
  8  9  1  0  0  0
  9 10  2  0  0  0
 10 11  1  0  0  0
 11 12  2  0  0  0
 11 13  1  0  0  0
 13 14  1  0  0  0
 14 15  1  0  0  0
 15 22  1  0  0  0
 22 23  2  0  0  0
  6 16  1  0  0  0
 16 17  1  0  0  0
 17 18  1  0  0  0
 18 19  1  0  0  0
 19 20  1  0  0  0
 16  2  1  0  0  0
 19  2  1  0  0  0
 15  5  1  0  0  0
 15  9  1  0  0  0
 20 21  1  0  0  0
M  END
> <minimizedAffinity>
-9.58359

> <CNNscore>
0.4737480283

> <CNNaffinity>
7.1189603806

> <CNN_VS>
3.3725934029

> <CNNaffinity_variance>
0.1072836295

$$$$
[H]O[C@@]1([H])C([H])([H])C([H])([H])C2([H])C3([H])C([H])([H])C([H])([H])C4=C([H])C(=O)C([H])([H])C([H])([H])[C@]4(C([H])=C([H])[H])C3([H])C([H])([H])C([H])([H])[C@@]21C([H])([H])[H]


 23 26  0  0  0  0  0  0  0  0999 V2000
    8.9552   44.1685  128.8305 C   0  0  0  0  0  0  0  0  0  0  0  0
   10.2654   44.8017  129.0313 C   0  0  0  0  0  0  0  0  0  0  0  0
   11.3076   43.9412  129.6787 C   0  0  0  0  0  0  0  0  0  0  0  0
   10.9318   43.6072  131.0836 C   0  0  0  0  0  0  0  0  0  0  0  0
    9.9321   44.4839  131.7277 C   0  0  0  0  0  0  0  0  0  0  0  0
    9.9306   45.9135  131.2568 C   0  0  0  0  0  0  0  0  0  0  0  0
   10.8093   46.8282  132.0810 C   0  0  0  0  0  0  0  0  0  0  0  0
   11.8158   46.1270  132.9286 C   0  0  0  0  0  0  0  0  0  0  0  0
   11.2615   44.9995  133.7160 C   0  0  0  0  0  0  0  0  0  0  0  0
   11.8742   44.5824  134.8180 C   0  0  0  0  0  0  0  0  0  0  0  0
   11.3096   43.4708  135.5758 C   0  0  0  0  0  0  0  0  0  0  0  0
   11.7539   43.1410  136.7094 O   0  0  0  0  0  0  0  0  0  0  0  0
   10.1659   42.6523  135.0517 C   0  0  0  0  0  0  0  0  0  0  0  0
    9.9952   42.8787  133.5618 C   0  0  0  0  0  0  0  0  0  0  0  0
   10.0302   44.3679  133.2388 C   0  0  0  0  0  0  0  0  0  0  0  0
   10.2444   46.0861  129.8295 C   0  0  0  0  0  0  0  0  0  0  0  0
    9.3475   46.9237  129.0056 C   0  0  0  0  0  0  0  0  0  0  0  0
    9.8150   46.5986  127.5897 C   0  0  0  0  0  0  0  0  0  0  0  0
   10.7156   45.3793  127.7053 C   0  0  0  0  0  0  0  0  0  0  0  0
   10.3473   44.5148  126.6534 O   0  0  0  0  0  0  0  0  0  0  0  0
   10.6032   44.9941  125.8203 H   0  0  0  0  0  0  0  0  0  0  0  0
    8.7865   44.9271  133.8338 C   0  0  0  0  0  0  0  0  0  0  0  0
    8.7630   46.0071  134.5893 C   0  0  0  0  0  0  0  0  0  0  0  0
  2  1  1  0  0  0
  2  3  1  0  0  0
  3  4  1  0  0  0
  4  5  1  0  0  0
  5  6  1  0  0  0
  6  7  1  0  0  0
  7  8  1  0  0  0
  8  9  1  0  0  0
  9 10  2  0  0  0
 10 11  1  0  0  0
 11 12  2  0  0  0
 11 13  1  0  0  0
 13 14  1  0  0  0
 14 15  1  0  0  0
 15 22  1  0  0  0
 22 23  2  0  0  0
  6 16  1  0  0  0
 16 17  1  0  0  0
 17 18  1  0  0  0
 18 19  1  0  0  0
 19 20  1  0  0  0
 16  2  1  0  0  0
 19  2  1  0  0  0
 15  5  1  0  0  0
 15  9  1  0  0  0
 20 21  1  0  0  0
M  END
> <minimizedAffinity>
0.93765

> <CNNscore>
0.4220214188

> <CNNaffinity>
7.0514626503

> <CNN_VS>
2.9758682251

> <CNNaffinity_variance>
0.6974084973

$$$$
[H]O[C@@]1([H])C([H])([H])C([H])([H])C2([H])C3([H])C([H])([H])C([H])([H])C4=C([H])C(=O)C([H])([H])C([H])([H])[C@]4(C([H])=C([H])[H])C3([H])C([H])([H])C([H])([H])[C@@]21C([H])([H])[H]


 23 26  0  0  0  0  0  0  0  0999 V2000
    9.5372   42.8020  134.1242 C   0  0  0  0  0  0  0  0  0  0  0  0
    8.8198   43.1300  132.8850 C   0  0  0  0  0  0  0  0  0  0  0  0
    9.2906   42.4136  131.6557 C   0  0  0  0  0  0  0  0  0  0  0  0
   10.6817   42.8180  131.2979 C   0  0  0  0  0  0  0  0  0  0  0  0
   11.1652   44.0956  131.8607 C   0  0  0  0  0  0  0  0  0  0  0  0
   10.1049   45.1372  132.0975 C   0  0  0  0  0  0  0  0  0  0  0  0
    9.9061   46.0814  130.9325 C   0  0  0  0  0  0  0  0  0  0  0  0
   10.4658   45.5986  129.6376 C   0  0  0  0  0  0  0  0  0  0  0  0
   11.8546   45.0879  129.7330 C   0  0  0  0  0  0  0  0  0  0  0  0
   12.6354   45.0553  128.6593 C   0  0  0  0  0  0  0  0  0  0  0  0
   13.9981   44.5481  128.7783 C   0  0  0  0  0  0  0  0  0  0  0  0
   14.8317   44.6451  127.8365 O   0  0  0  0  0  0  0  0  0  0  0  0
   14.4904   43.8800  130.0289 C   0  0  0  0  0  0  0  0  0  0  0  0
   13.3206   43.4747  130.9049 C   0  0  0  0  0  0  0  0  0  0  0  0
   12.3276   44.6234  131.0382 C   0  0  0  0  0  0  0  0  0  0  0  0
    8.8027   44.5975  132.5199 C   0  0  0  0  0  0  0  0  0  0  0  0
    8.1472   45.1833  133.7081 C   0  0  0  0  0  0  0  0  0  0  0  0
    7.0331   44.1787  133.9884 C   0  0  0  0  0  0  0  0  0  0  0  0
    7.3371   42.9541  133.1405 C   0  0  0  0  0  0  0  0  0  0  0  0
    7.1208   41.8348  133.9711 O   0  0  0  0  0  0  0  0  0  0  0  0
    6.1435   41.8321  134.1556 H   0  0  0  0  0  0  0  0  0  0  0  0
   13.0342   45.6612  131.8366 C   0  0  0  0  0  0  0  0  0  0  0  0
   12.9403   45.7596  133.1478 C   0  0  0  0  0  0  0  0  0  0  0  0
  2  1  1  0  0  0
  2  3  1  0  0  0
  3  4  1  0  0  0
  4  5  1  0  0  0
  5  6  1  0  0  0
  6  7  1  0  0  0
  7  8  1  0  0  0
  8  9  1  0  0  0
  9 10  2  0  0  0
 10 11  1  0  0  0
 11 12  2  0  0  0
 11 13  1  0  0  0
 13 14  1  0  0  0
 14 15  1  0  0  0
 15 22  1  0  0  0
 22 23  2  0  0  0
  6 16  1  0  0  0
 16 17  1  0  0  0
 17 18  1  0  0  0
 18 19  1  0  0  0
 19 20  1  0  0  0
 16  2  1  0  0  0
 19  2  1  0  0  0
 15  5  1  0  0  0
 15  9  1  0  0  0
 20 21  1  0  0  0
M  END
> <minimizedAffinity>
10.49492

> <CNNscore>
0.4220035374

> <CNNaffinity>
6.8275423050

> <CNN_VS>
2.8812470436

> <CNNaffinity_variance>
1.2184873819

$$$$
[H]O[C@@]1([H])C([H])([H])C([H])([H])C2([H])C3([H])C([H])([H])C([H])([H])C4=C([H])C(=O)C([H])([H])C([H])([H])[C@]4(C([H])=C([H])[H])C3([H])C([H])([H])C([H])([H])[C@@]21C([H])([H])[H]


 23 26  0  0  0  0  0  0  0  0999 V2000
   12.3920   45.3808  131.9993 C   0  0  0  0  0  0  0  0  0  0  0  0
   11.4241   44.6860  131.1400 C   0  0  0  0  0  0  0  0  0  0  0  0
   11.1282   45.3505  129.8298 C   0  0  0  0  0  0  0  0  0  0  0  0
   10.4425   46.6599  130.0342 C   0  0  0  0  0  0  0  0  0  0  0  0
    9.7823   46.8647  131.3400 C   0  0  0  0  0  0  0  0  0  0  0  0
    9.2572   45.6174  131.9987 C   0  0  0  0  0  0  0  0  0  0  0  0
    7.8137   45.3124  131.6647 C   0  0  0  0  0  0  0  0  0  0  0  0
    7.2888   46.0243  130.4644 C   0  0  0  0  0  0  0  0  0  0  0  0
    7.5890   47.4763  130.4442 C   0  0  0  0  0  0  0  0  0  0  0  0
    6.8407   48.3088  129.7298 C   0  0  0  0  0  0  0  0  0  0  0  0
    7.1561   49.7333  129.7255 C   0  0  0  0  0  0  0  0  0  0  0  0
    6.3885   50.5860  129.2014 O   0  0  0  0  0  0  0  0  0  0  0  0
    8.4136   50.2699  130.3448 C   0  0  0  0  0  0  0  0  0  0  0  0
    9.4091   49.1484  130.5718 C   0  0  0  0  0  0  0  0  0  0  0  0
    8.7290   47.9531  131.2291 C   0  0  0  0  0  0  0  0  0  0  0  0
   10.0775   44.4168  131.7735 C   0  0  0  0  0  0  0  0  0  0  0  0
   10.4660   43.5977  132.9410 C   0  0  0  0  0  0  0  0  0  0  0  0
   11.5279   42.6760  132.3478 C   0  0  0  0  0  0  0  0  0  0  0  0
   11.8805   43.2499  130.9850 C   0  0  0  0  0  0  0  0  0  0  0  0
   13.2866   43.1992  130.8867 O   0  0  0  0  0  0  0  0  0  0  0  0
   13.5119   42.2307  130.8673 H   0  0  0  0  0  0  0  0  0  0  0  0
    8.3782   48.4080  132.6016 C   0  0  0  0  0  0  0  0  0  0  0  0
    9.2586   48.5291  133.5753 C   0  0  0  0  0  0  0  0  0  0  0  0
  2  1  1  0  0  0
  2  3  1  0  0  0
  3  4  1  0  0  0
  4  5  1  0  0  0
  5  6  1  0  0  0
  6  7  1  0  0  0
  7  8  1  0  0  0
  8  9  1  0  0  0
  9 10  2  0  0  0
 10 11  1  0  0  0
 11 12  2  0  0  0
 11 13  1  0  0  0
 13 14  1  0  0  0
 14 15  1  0  0  0
 15 22  1  0  0  0
 22 23  2  0  0  0
  6 16  1  0  0  0
 16 17  1  0  0  0
 17 18  1  0  0  0
 18 19  1  0  0  0
 19 20  1  0  0  0
 16  2  1  0  0  0
 19  2  1  0  0  0
 15  5  1  0  0  0
 15  9  1  0  0  0
 20 21  1  0  0  0
M  END
> <minimizedAffinity>
-8.02087

> <CNNscore>
0.4088652134

> <CNNaffinity>
7.3506927490

> <CNN_VS>
3.0054426193

> <CNNaffinity_variance>
0.5932412148

$$$$
[H]O[C@@]1([H])C([H])([H])C([H])([H])C2([H])C3([H])C([H])([H])C([H])([H])C4=C([H])C(=O)C([H])([H])C([H])([H])[C@]4(C([H])=C([H])[H])C3([H])C([H])([H])C([H])([H])[C@@]21C([H])([H])[H]


 23 26  0  0  0  0  0  0  0  0999 V2000
   12.4970   45.2936  131.9594 C   0  0  0  0  0  0  0  0  0  0  0  0
   11.3582   44.3910  132.1747 C   0  0  0  0  0  0  0  0  0  0  0  0
   10.6120   43.9848  130.9402 C   0  0  0  0  0  0  0  0  0  0  0  0
    9.9349   45.1565  130.3117 C   0  0  0  0  0  0  0  0  0  0  0  0
    9.7134   46.3347  131.1753 C   0  0  0  0  0  0  0  0  0  0  0  0
    9.5178   46.0340  132.6371 C   0  0  0  0  0  0  0  0  0  0  0  0
    8.0693   45.8559  133.0348 C   0  0  0  0  0  0  0  0  0  0  0  0
    7.1384   45.6016  131.8981 C   0  0  0  0  0  0  0  0  0  0  0  0
    7.3108   46.5323  130.7568 C   0  0  0  0  0  0  0  0  0  0  0  0
    6.3153   46.7430  129.9034 C   0  0  0  0  0  0  0  0  0  0  0  0
    6.5091   47.6631  128.7879 C   0  0  0  0  0  0  0  0  0  0  0  0
    5.5548   48.0246  128.0465 O   0  0  0  0  0  0  0  0  0  0  0  0
    7.8563   48.2352  128.4554 C   0  0  0  0  0  0  0  0  0  0  0  0
    8.9504   47.4382  129.1394 C   0  0  0  0  0  0  0  0  0  0  0  0
    8.6041   47.2009  130.6048 C   0  0  0  0  0  0  0  0  0  0  0  0
   10.3077   44.8978  133.1374 C   0  0  0  0  0  0  0  0  0  0  0  0
   11.1068   45.0804  134.3673 C   0  0  0  0  0  0  0  0  0  0  0  0
   11.9873   43.8339  134.3664 C   0  0  0  0  0  0  0  0  0  0  0  0
   11.8437   43.2089  132.9881 C   0  0  0  0  0  0  0  0  0  0  0  0
   13.1445   42.8458  132.5813 O   0  0  0  0  0  0  0  0  0  0  0  0
   13.4211   42.1235  133.2066 H   0  0  0  0  0  0  0  0  0  0  0  0
    8.6783   48.5411  131.2467 C   0  0  0  0  0  0  0  0  0  0  0  0
    9.7084   49.3535  131.1182 C   0  0  0  0  0  0  0  0  0  0  0  0
  2  1  1  0  0  0
  2  3  1  0  0  0
  3  4  1  0  0  0
  4  5  1  0  0  0
  5  6  1  0  0  0
  6  7  1  0  0  0
  7  8  1  0  0  0
  8  9  1  0  0  0
  9 10  2  0  0  0
 10 11  1  0  0  0
 11 12  2  0  0  0
 11 13  1  0  0  0
 13 14  1  0  0  0
 14 15  1  0  0  0
 15 22  1  0  0  0
 22 23  2  0  0  0
  6 16  1  0  0  0
 16 17  1  0  0  0
 17 18  1  0  0  0
 18 19  1  0  0  0
 19 20  1  0  0  0
 16  2  1  0  0  0
 19  2  1  0  0  0
 15  5  1  0  0  0
 15  9  1  0  0  0
 20 21  1  0  0  0
M  END
> <minimizedAffinity>
-9.28484

> <CNNscore>
0.3550955057

> <CNNaffinity>
7.1584372520

> <CNN_VS>
2.5419290066

> <CNNaffinity_variance>
0.2443698198

$$$$
[H]O[C@@]1([H])C([H])([H])C([H])([H])C2([H])C3([H])C([H])([H])C([H])([H])C4=C([H])C(=O)C([H])([H])C([H])([H])[C@]4(C([H])=C([H])[H])C3([H])C([H])([H])C([H])([H])[C@@]21C([H])([H])[H]


 23 26  0  0  0  0  0  0  0  0999 V2000
   10.0571   46.2302  134.4488 C   0  0  0  0  0  0  0  0  0  0  0  0
    9.0473   46.8385  133.5723 C   0  0  0  0  0  0  0  0  0  0  0  0
    8.0737   45.8855  132.9480 C   0  0  0  0  0  0  0  0  0  0  0  0
    8.7598   44.9619  131.9980 C   0  0  0  0  0  0  0  0  0  0  0  0
   10.0790   45.3935  131.4914 C   0  0  0  0  0  0  0  0  0  0  0  0
   10.2707   46.8822  131.3809 C   0  0  0  0  0  0  0  0  0  0  0  0
    9.9100   47.4448  130.0238 C   0  0  0  0  0  0  0  0  0  0  0  0
    9.0653   46.5488  129.1831 C   0  0  0  0  0  0  0  0  0  0  0  0
    9.5518   45.1498  129.1145 C   0  0  0  0  0  0  0  0  0  0  0  0
    9.2129   44.3681  128.0958 C   0  0  0  0  0  0  0  0  0  0  0  0
    9.7038   42.9950  128.0506 C   0  0  0  0  0  0  0  0  0  0  0  0
    9.5505   42.2637  127.0344 O   0  0  0  0  0  0  0  0  0  0  0  0
   10.4211   42.3697  129.2113 C   0  0  0  0  0  0  0  0  0  0  0  0
   10.1918   43.1816  130.4716 C   0  0  0  0  0  0  0  0  0  0  0  0
   10.4072   44.6659  130.1994 C   0  0  0  0  0  0  0  0  0  0  0  0
    9.5984   47.6637  132.4309 C   0  0  0  0  0  0  0  0  0  0  0  0
   10.3799   48.6831  133.1622 C   0  0  0  0  0  0  0  0  0  0  0  0
    9.4535   49.0240  134.3262 C   0  0  0  0  0  0  0  0  0  0  0  0
    8.3717   47.9561  134.3397 C   0  0  0  0  0  0  0  0  0  0  0  0
    8.2036   47.5809  135.6890 O   0  0  0  0  0  0  0  0  0  0  0  0
    7.8308   48.3858  136.1389 H   0  0  0  0  0  0  0  0  0  0  0  0
   11.8649   44.8086  129.9380 C   0  0  0  0  0  0  0  0  0  0  0  0
   12.7967   44.4644  130.8046 C   0  0  0  0  0  0  0  0  0  0  0  0
  2  1  1  0  0  0
  2  3  1  0  0  0
  3  4  1  0  0  0
  4  5  1  0  0  0
  5  6  1  0  0  0
  6  7  1  0  0  0
  7  8  1  0  0  0
  8  9  1  0  0  0
  9 10  2  0  0  0
 10 11  1  0  0  0
 11 12  2  0  0  0
 11 13  1  0  0  0
 13 14  1  0  0  0
 14 15  1  0  0  0
 15 22  1  0  0  0
 22 23  2  0  0  0
  6 16  1  0  0  0
 16 17  1  0  0  0
 17 18  1  0  0  0
 18 19  1  0  0  0
 19 20  1  0  0  0
 16  2  1  0  0  0
 19  2  1  0  0  0
 15  5  1  0  0  0
 15  9  1  0  0  0
 20 21  1  0  0  0
M  END
> <minimizedAffinity>
-1.89222

> <CNNscore>
0.3406475186

> <CNNaffinity>
6.9026632309

> <CNN_VS>
2.3513751030

> <CNNaffinity_variance>
0.6728577614

$$$$
[H]O[C@@]1([H])C([H])([H])C([H])([H])C2([H])C3([H])C([H])([H])C([H])([H])C4=C([H])C(=O)C([H])([H])C([H])([H])[C@]4(C([H])=C([H])[H])C3([H])C([H])([H])C([H])([H])[C@@]21C([H])([H])[H]


 23 26  0  0  0  0  0  0  0  0999 V2000
   11.1007   44.3957  128.8270 C   0  0  0  0  0  0  0  0  0  0  0  0
    9.7273   44.1357  129.2786 C   0  0  0  0  0  0  0  0  0  0  0  0
    8.8173   45.3261  129.3014 C   0  0  0  0  0  0  0  0  0  0  0  0
    9.2673   46.3272  130.3123 C   0  0  0  0  0  0  0  0  0  0  0  0
   10.1659   45.8350  131.3768 C   0  0  0  0  0  0  0  0  0  0  0  0
    9.9770   44.3926  131.7630 C   0  0  0  0  0  0  0  0  0  0  0  0
    9.0123   44.1894  132.9103 C   0  0  0  0  0  0  0  0  0  0  0  0
    8.1229   45.3531  133.1892 C   0  0  0  0  0  0  0  0  0  0  0  0
    8.8333   46.6529  133.2589 C   0  0  0  0  0  0  0  0  0  0  0  0
    8.3056   47.6738  133.9243 C   0  0  0  0  0  0  0  0  0  0  0  0
    9.0233   48.9429  133.9783 C   0  0  0  0  0  0  0  0  0  0  0  0
    8.6526   49.8889  134.7258 O   0  0  0  0  0  0  0  0  0  0  0  0
   10.2466   49.1992  133.1473 C   0  0  0  0  0  0  0  0  0  0  0  0
   10.3499   48.1762  132.0324 C   0  0  0  0  0  0  0  0  0  0  0  0
   10.1213   46.7695  132.5731 C   0  0  0  0  0  0  0  0  0  0  0  0
    9.6082   43.5057  130.6483 C   0  0  0  0  0  0  0  0  0  0  0  0
   10.3724   42.2548  130.4585 C   0  0  0  0  0  0  0  0  0  0  0  0
    9.9134   41.8047  129.0743 C   0  0  0  0  0  0  0  0  0  0  0  0
    9.1752   42.9847  128.4631 C   0  0  0  0  0  0  0  0  0  0  0  0
    9.6217   43.0820  127.1287 O   0  0  0  0  0  0  0  0  0  0  0  0
    9.2869   42.2592  126.6812 H   0  0  0  0  0  0  0  0  0  0  0  0
   11.3002   46.4848  133.4349 C   0  0  0  0  0  0  0  0  0  0  0  0
   12.3181   45.7395  133.0525 C   0  0  0  0  0  0  0  0  0  0  0  0
  2  1  1  0  0  0
  2  3  1  0  0  0
  3  4  1  0  0  0
  4  5  1  0  0  0
  5  6  1  0  0  0
  6  7  1  0  0  0
  7  8  1  0  0  0
  8  9  1  0  0  0
  9 10  2  0  0  0
 10 11  1  0  0  0
 11 12  2  0  0  0
 11 13  1  0  0  0
 13 14  1  0  0  0
 14 15  1  0  0  0
 15 22  1  0  0  0
 22 23  2  0  0  0
  6 16  1  0  0  0
 16 17  1  0  0  0
 17 18  1  0  0  0
 18 19  1  0  0  0
 19 20  1  0  0  0
 16  2  1  0  0  0
 19  2  1  0  0  0
 15  5  1  0  0  0
 15  9  1  0  0  0
 20 21  1  0  0  0
M  END
> <minimizedAffinity>
0.14569

> <CNNscore>
0.3393974602

> <CNNaffinity>
7.0507292747

> <CNN_VS>
2.3929996490

> <CNNaffinity_variance>
0.9042477608

$$$$
[H]Oc1c([H])c([H])c([C@]2([H])Sc3c([H])c(O[H])c([H])c([H])c3O[C@@]2([H])c2c([H])c([H])c(OC([H])([H])C([H])([H])N3C([H])([H])C([H])([H])C([H])([H])C([H])([H])C3([H])[H])c([H])c2[H])c([H])c1[H]


 35 39  0  0  0  0  0  0  0  0999 V2000
    8.7626   46.0397  130.0627 C   0  0  0  0  0  0  0  0  0  0  0  0
    8.4030   44.3992  129.3597 S   0  0  0  0  0  0  0  0  0  0  0  0
    9.3509   43.2365  130.2773 C   0  0  0  0  0  0  0  0  0  0  0  0
    9.4764   41.9565  129.8502 C   0  0  0  0  0  0  0  0  0  0  0  0
   10.2278   41.0155  130.5639 C   0  0  0  0  0  0  0  0  0  0  0  0
   10.3766   39.7045  130.1569 O   0  0  0  0  0  0  0  0  0  0  0  0
   10.8498   41.4093  131.7261 C   0  0  0  0  0  0  0  0  0  0  0  0
   10.7360   42.6996  132.1762 C   0  0  0  0  0  0  0  0  0  0  0  0
    9.9779   43.6057  131.4350 C   0  0  0  0  0  0  0  0  0  0  0  0
    9.8746   44.8756  131.8926 O   0  0  0  0  0  0  0  0  0  0  0  0
    8.9470   45.8629  131.5311 C   0  0  0  0  0  0  0  0  0  0  0  0
   11.1799   39.5198  129.5413 H   0  0  0  0  0  0  0  0  0  0  0  0
    4.6446   49.8082  128.9827 O   0  0  0  0  0  0  0  0  0  0  0  0
    5.6569   48.8672  129.2520 C   0  0  0  0  0  0  0  0  0  0  0  0
    5.3688   47.5520  129.5377 C   0  0  0  0  0  0  0  0  0  0  0  0
    6.3589   46.6291  129.8017 C   0  0  0  0  0  0  0  0  0  0  0  0
    7.6860   46.9979  129.7880 C   0  0  0  0  0  0  0  0  0  0  0  0
    7.9877   48.3241  129.5007 C   0  0  0  0  0  0  0  0  0  0  0  0
    6.9875   49.2286  129.2403 C   0  0  0  0  0  0  0  0  0  0  0  0
    4.3160   49.9577  128.0175 H   0  0  0  0  0  0  0  0  0  0  0  0
    9.4790   47.1449  132.1104 C   0  0  0  0  0  0  0  0  0  0  0  0
   10.8163   47.3226  132.3735 C   0  0  0  0  0  0  0  0  0  0  0  0
   11.3053   48.4930  132.8963 C   0  0  0  0  0  0  0  0  0  0  0  0
   10.4621   49.5865  133.1953 C   0  0  0  0  0  0  0  0  0  0  0  0
    9.1298   49.3948  132.9290 C   0  0  0  0  0  0  0  0  0  0  0  0
    8.6500   48.1992  132.3974 C   0  0  0  0  0  0  0  0  0  0  0  0
   11.0208   50.7260  133.7181 O   0  0  0  0  0  0  0  0  0  0  0  0
   11.4034   50.9924  134.9991 C   0  0  0  0  0  0  0  0  0  0  0  0
   12.8897   51.1320  135.2540 C   0  0  0  0  0  0  0  0  0  0  0  0
   13.3220   52.3817  134.7297 N   0  0  0  0  0  0  0  0  0  0  0  0
   13.0540   53.5453  135.4888 C   0  0  0  0  0  0  0  0  0  0  0  0
   12.6898   54.6585  134.5058 C   0  0  0  0  0  0  0  0  0  0  0  0
   13.7004   54.6613  133.3843 C   0  0  0  0  0  0  0  0  0  0  0  0
   14.9260   53.8233  133.7024 C   0  0  0  0  0  0  0  0  0  0  0  0
   14.5060   52.3906  133.9522 C   0  0  0  0  0  0  0  0  0  0  0  0
 13 14  1  0  0  0
 14 15  2  0  0  0
 15 16  1  0  0  0
 16 17  2  0  0  0
 17 18  1  0  0  0
 18 19  2  0  0  0
 17  1  1  0  0  0
  1  2  1  0  0  0
  2  3  1  0  0  0
  3  4  2  0  0  0
  4  5  1  0  0  0
  5  6  1  0  0  0
  5  7  2  0  0  0
  7  8  1  0  0  0
  8  9  2  0  0  0
  9 10  1  0  0  0
 10 11  1  0  0  0
 11 21  1  0  0  0
 21 22  2  0  0  0
 22 23  1  0  0  0
 23 24  2  0  0  0
 24 27  1  0  0  0
 27 28  1  0  0  0
 28 29  1  0  0  0
 29 30  1  0  0  0
 30 31  1  0  0  0
 31 32  1  0  0  0
 32 33  1  0  0  0
 33 34  1  0  0  0
 34 35  1  0  0  0
 24 25  1  0  0  0
 25 26  2  0  0  0
 19 14  1  0  0  0
 11  1  1  0  0  0
 26 21  1  0  0  0
  9  3  1  0  0  0
 35 30  1  0  0  0
 13 20  1  0  0  0
  6 12  1  0  0  0
M  END
> <minimizedAffinity>
25.14411

> <CNNscore>
0.4644277394

> <CNNaffinity>
7.6662015915

> <CNN_VS>
3.5603966713

> <CNNaffinity_variance>
1.8322579861

$$$$
[H]Oc1c([H])c([H])c([C@]2([H])Sc3c([H])c(O[H])c([H])c([H])c3O[C@@]2([H])c2c([H])c([H])c(OC([H])([H])C([H])([H])N3C([H])([H])C([H])([H])C([H])([H])C([H])([H])C3([H])[H])c([H])c2[H])c([H])c1[H]


 35 39  0  0  0  0  0  0  0  0999 V2000
    9.1151   44.8354  130.2083 C   0  0  0  0  0  0  0  0  0  0  0  0
    9.0091   43.1648  129.4924 S   0  0  0  0  0  0  0  0  0  0  0  0
    9.9268   42.1015  130.5505 C   0  0  0  0  0  0  0  0  0  0  0  0
   10.2280   40.8370  130.1671 C   0  0  0  0  0  0  0  0  0  0  0  0
   10.9591   39.9748  130.9926 C   0  0  0  0  0  0  0  0  0  0  0  0
   11.2834   38.6818  130.6328 O   0  0  0  0  0  0  0  0  0  0  0  0
   11.3772   40.4314  132.2211 C   0  0  0  0  0  0  0  0  0  0  0  0
   11.0835   41.7074  132.6287 C   0  0  0  0  0  0  0  0  0  0  0  0
   10.3527   42.5340  131.7757 C   0  0  0  0  0  0  0  0  0  0  0  0
   10.0702   43.7907  132.1925 O   0  0  0  0  0  0  0  0  0  0  0  0
    9.1129   44.6840  131.6912 C   0  0  0  0  0  0  0  0  0  0  0  0
   12.1770   38.5709  130.1352 H   0  0  0  0  0  0  0  0  0  0  0  0
    4.8392   48.1477  128.4559 O   0  0  0  0  0  0  0  0  0  0  0  0
    5.8926   47.3250  128.8990 C   0  0  0  0  0  0  0  0  0  0  0  0
    5.8134   46.6134  130.0745 C   0  0  0  0  0  0  0  0  0  0  0  0
    6.8440   45.8072  130.5099 C   0  0  0  0  0  0  0  0  0  0  0  0
    8.0017   45.6861  129.7734 C   0  0  0  0  0  0  0  0  0  0  0  0
    8.0918   46.4009  128.5846 C   0  0  0  0  0  0  0  0  0  0  0  0
    7.0545   47.1987  128.1675 C   0  0  0  0  0  0  0  0  0  0  0  0
    4.0974   47.7640  127.8524 H   0  0  0  0  0  0  0  0  0  0  0  0
    9.4392   46.0135  132.3143 C   0  0  0  0  0  0  0  0  0  0  0  0
   10.6269   46.6592  132.0663 C   0  0  0  0  0  0  0  0  0  0  0  0
   10.9249   47.8747  132.6286 C   0  0  0  0  0  0  0  0  0  0  0  0
   10.0273   48.5355  133.4968 C   0  0  0  0  0  0  0  0  0  0  0  0
    8.8464   47.8789  133.7365 C   0  0  0  0  0  0  0  0  0  0  0  0
    8.5597   46.6446  133.1566 C   0  0  0  0  0  0  0  0  0  0  0  0
   10.3928   49.7488  134.0240 O   0  0  0  0  0  0  0  0  0  0  0  0
    9.7964   50.9668  133.8860 C   0  0  0  0  0  0  0  0  0  0  0  0
    9.8833   51.6205  132.5227 C   0  0  0  0  0  0  0  0  0  0  0  0
    9.2181   50.7883  131.5800 N   0  0  0  0  0  0  0  0  0  0  0  0
    8.0578   51.2985  130.9511 C   0  0  0  0  0  0  0  0  0  0  0  0
    7.0657   50.1428  130.8158 C   0  0  0  0  0  0  0  0  0  0  0  0
    7.7974   48.9403  130.2700 C   0  0  0  0  0  0  0  0  0  0  0  0
    9.1671   49.2931  129.7178 C   0  0  0  0  0  0  0  0  0  0  0  0
   10.0133   49.8982  130.8175 C   0  0  0  0  0  0  0  0  0  0  0  0
 13 14  1  0  0  0
 14 15  2  0  0  0
 15 16  1  0  0  0
 16 17  2  0  0  0
 17 18  1  0  0  0
 18 19  2  0  0  0
 17  1  1  0  0  0
  1  2  1  0  0  0
  2  3  1  0  0  0
  3  4  2  0  0  0
  4  5  1  0  0  0
  5  6  1  0  0  0
  5  7  2  0  0  0
  7  8  1  0  0  0
  8  9  2  0  0  0
  9 10  1  0  0  0
 10 11  1  0  0  0
 11 21  1  0  0  0
 21 22  2  0  0  0
 22 23  1  0  0  0
 23 24  2  0  0  0
 24 27  1  0  0  0
 27 28  1  0  0  0
 28 29  1  0  0  0
 29 30  1  0  0  0
 30 31  1  0  0  0
 31 32  1  0  0  0
 32 33  1  0  0  0
 33 34  1  0  0  0
 34 35  1  0  0  0
 24 25  1  0  0  0
 25 26  2  0  0  0
 19 14  1  0  0  0
 11  1  1  0  0  0
 26 21  1  0  0  0
  9  3  1  0  0  0
 35 30  1  0  0  0
 13 20  1  0  0  0
  6 12  1  0  0  0
M  END
> <minimizedAffinity>
14.29145

> <CNNscore>
0.4450064898

> <CNNaffinity>
7.3851737976

> <CNN_VS>
3.2864503860

> <CNNaffinity_variance>
1.0556910038

$$$$
[H]Oc1c([H])c([H])c([C@]2([H])Sc3c([H])c(O[H])c([H])c([H])c3O[C@@]2([H])c2c([H])c([H])c(OC([H])([H])C([H])([H])N3C([H])([H])C([H])([H])C([H])([H])C([H])([H])C3([H])[H])c([H])c2[H])c([H])c1[H]


 35 39  0  0  0  0  0  0  0  0999 V2000
   10.0700   46.8974  130.9749 C   0  0  0  0  0  0  0  0  0  0  0  0
    9.5947   48.5157  131.6603 S   0  0  0  0  0  0  0  0  0  0  0  0
    8.4008   49.1986  130.5646 C   0  0  0  0  0  0  0  0  0  0  0  0
    8.0211   50.4947  130.6770 C   0  0  0  0  0  0  0  0  0  0  0  0
    7.0742   51.0591  129.8143 C   0  0  0  0  0  0  0  0  0  0  0  0
    6.6657   52.3752  129.9007 O   0  0  0  0  0  0  0  0  0  0  0  0
    6.5214   50.2706  128.8318 C   0  0  0  0  0  0  0  0  0  0  0  0
    6.8915   48.9567  128.7003 C   0  0  0  0  0  0  0  0  0  0  0  0
    7.8382   48.4338  129.5808 C   0  0  0  0  0  0  0  0  0  0  0  0
    8.1929   47.1350  129.4385 O   0  0  0  0  0  0  0  0  0  0  0  0
    8.8520   46.3029  130.3545 C   0  0  0  0  0  0  0  0  0  0  0  0
    7.2138   53.0469  129.3468 H   0  0  0  0  0  0  0  0  0  0  0  0
   12.0997   43.4400  135.0063 O   0  0  0  0  0  0  0  0  0  0  0  0
   11.6069   44.2967  134.0033 C   0  0  0  0  0  0  0  0  0  0  0  0
   12.4047   44.7467  132.9759 C   0  0  0  0  0  0  0  0  0  0  0  0
   11.9238   45.5858  131.9929 C   0  0  0  0  0  0  0  0  0  0  0  0
   10.6123   46.0067  132.0070 C   0  0  0  0  0  0  0  0  0  0  0  0
    9.7982   45.5580  133.0405 C   0  0  0  0  0  0  0  0  0  0  0  0
   10.2955   44.7225  134.0106 C   0  0  0  0  0  0  0  0  0  0  0  0
   12.0507   42.4175  134.8879 H   0  0  0  0  0  0  0  0  0  0  0  0
    9.2535   45.0829  129.5718 C   0  0  0  0  0  0  0  0  0  0  0  0
    8.5854   43.8882  129.6966 C   0  0  0  0  0  0  0  0  0  0  0  0
    8.9455   42.7754  128.9796 C   0  0  0  0  0  0  0  0  0  0  0  0
   10.0258   42.7915  128.0692 C   0  0  0  0  0  0  0  0  0  0  0  0
   10.6845   43.9899  127.9557 C   0  0  0  0  0  0  0  0  0  0  0  0
   10.3050   45.1109  128.6916 C   0  0  0  0  0  0  0  0  0  0  0  0
   10.3305   41.6400  127.3873 O   0  0  0  0  0  0  0  0  0  0  0  0
   10.1597   40.3410  127.7638 C   0  0  0  0  0  0  0  0  0  0  0  0
   11.0258   39.3089  127.0724 C   0  0  0  0  0  0  0  0  0  0  0  0
   10.4696   39.0382  125.7914 N   0  0  0  0  0  0  0  0  0  0  0  0
   11.2137   38.2221  124.9068 C   0  0  0  0  0  0  0  0  0  0  0  0
   11.0338   38.7915  123.4991 C   0  0  0  0  0  0  0  0  0  0  0  0
    9.5667   39.0686  123.2747 C   0  0  0  0  0  0  0  0  0  0  0  0
    8.6842   38.4233  124.3284 C   0  0  0  0  0  0  0  0  0  0  0  0
    9.0589   38.9561  125.6948 C   0  0  0  0  0  0  0  0  0  0  0  0
 13 14  1  0  0  0
 14 15  2  0  0  0
 15 16  1  0  0  0
 16 17  2  0  0  0
 17 18  1  0  0  0
 18 19  2  0  0  0
 17  1  1  0  0  0
  1  2  1  0  0  0
  2  3  1  0  0  0
  3  4  2  0  0  0
  4  5  1  0  0  0
  5  6  1  0  0  0
  5  7  2  0  0  0
  7  8  1  0  0  0
  8  9  2  0  0  0
  9 10  1  0  0  0
 10 11  1  0  0  0
 11 21  1  0  0  0
 21 22  2  0  0  0
 22 23  1  0  0  0
 23 24  2  0  0  0
 24 27  1  0  0  0
 27 28  1  0  0  0
 28 29  1  0  0  0
 29 30  1  0  0  0
 30 31  1  0  0  0
 31 32  1  0  0  0
 32 33  1  0  0  0
 33 34  1  0  0  0
 34 35  1  0  0  0
 24 25  1  0  0  0
 25 26  2  0  0  0
 19 14  1  0  0  0
 11  1  1  0  0  0
 26 21  1  0  0  0
  9  3  1  0  0  0
 35 30  1  0  0  0
 13 20  1  0  0  0
  6 12  1  0  0  0
M  END
> <minimizedAffinity>
12.46074

> <CNNscore>
0.4250083566

> <CNNaffinity>
7.5707750320

> <CNN_VS>
3.2176425457

> <CNNaffinity_variance>
0.7615318298

$$$$
[H]Oc1c([H])c([H])c([C@]2([H])Sc3c([H])c(O[H])c([H])c([H])c3O[C@@]2([H])c2c([H])c([H])c(OC([H])([H])C([H])([H])N3C([H])([H])C([H])([H])C([H])([H])C([H])([H])C3([H])[H])c([H])c2[H])c([H])c1[H]


 35 39  0  0  0  0  0  0  0  0999 V2000
   10.3843   44.3432  130.6900 C   0  0  0  0  0  0  0  0  0  0  0  0
   10.5724   42.5574  130.9906 S   0  0  0  0  0  0  0  0  0  0  0  0
    9.8185   42.2234  132.5437 C   0  0  0  0  0  0  0  0  0  0  0  0
    9.9929   41.0256  133.1532 C   0  0  0  0  0  0  0  0  0  0  0  0
    9.4039   40.7395  134.3904 C   0  0  0  0  0  0  0  0  0  0  0  0
    9.5615   39.5306  135.0387 O   0  0  0  0  0  0  0  0  0  0  0  0
    8.6308   41.7042  134.9940 C   0  0  0  0  0  0  0  0  0  0  0  0
    8.4414   42.9230  134.3948 C   0  0  0  0  0  0  0  0  0  0  0  0
    9.0462   43.1672  133.1620 C   0  0  0  0  0  0  0  0  0  0  0  0
    8.8493   44.3749  132.5830 O   0  0  0  0  0  0  0  0  0  0  0  0
    9.0643   44.7510  131.2495 C   0  0  0  0  0  0  0  0  0  0  0  0
   10.3635   39.4729  135.6804 H   0  0  0  0  0  0  0  0  0  0  0  0
   10.6224   45.5541  125.1400 O   0  0  0  0  0  0  0  0  0  0  0  0
   10.5724   45.2602  126.5162 C   0  0  0  0  0  0  0  0  0  0  0  0
   11.4782   45.7917  127.4059 C   0  0  0  0  0  0  0  0  0  0  0  0
   11.4307   45.5050  128.7539 C   0  0  0  0  0  0  0  0  0  0  0  0
   10.4628   44.6663  129.2610 C   0  0  0  0  0  0  0  0  0  0  0  0
    9.5432   44.1241  128.3707 C   0  0  0  0  0  0  0  0  0  0  0  0
    9.6067   44.4216  127.0314 C   0  0  0  0  0  0  0  0  0  0  0  0
   10.1050   46.3605  124.7606 H   0  0  0  0  0  0  0  0  0  0  0  0
    8.9759   46.2524  131.2366 C   0  0  0  0  0  0  0  0  0  0  0  0
    8.4701   46.9589  132.3017 C   0  0  0  0  0  0  0  0  0  0  0  0
    8.3937   48.3287  132.2952 C   0  0  0  0  0  0  0  0  0  0  0  0
    8.8309   49.0953  131.1919 C   0  0  0  0  0  0  0  0  0  0  0  0
    9.3320   48.3772  130.1354 C   0  0  0  0  0  0  0  0  0  0  0  0
    9.4028   46.9856  130.1588 C   0  0  0  0  0  0  0  0  0  0  0  0
    8.7226   50.4621  131.2545 O   0  0  0  0  0  0  0  0  0  0  0  0
    8.1162   51.3222  130.3880 C   0  0  0  0  0  0  0  0  0  0  0  0
    6.6246   51.1533  130.1880 C   0  0  0  0  0  0  0  0  0  0  0  0
    6.3945   49.9086  129.5388 N   0  0  0  0  0  0  0  0  0  0  0  0
    7.4450   49.3637  128.7631 C   0  0  0  0  0  0  0  0  0  0  0  0
    6.8143   48.7190  127.5282 C   0  0  0  0  0  0  0  0  0  0  0  0
    5.6392   47.8798  127.9692 C   0  0  0  0  0  0  0  0  0  0  0  0
    5.6176   47.6508  129.4700 C   0  0  0  0  0  0  0  0  0  0  0  0
    5.5360   48.9839  130.1823 C   0  0  0  0  0  0  0  0  0  0  0  0
 13 14  1  0  0  0
 14 15  2  0  0  0
 15 16  1  0  0  0
 16 17  2  0  0  0
 17 18  1  0  0  0
 18 19  2  0  0  0
 17  1  1  0  0  0
  1  2  1  0  0  0
  2  3  1  0  0  0
  3  4  2  0  0  0
  4  5  1  0  0  0
  5  6  1  0  0  0
  5  7  2  0  0  0
  7  8  1  0  0  0
  8  9  2  0  0  0
  9 10  1  0  0  0
 10 11  1  0  0  0
 11 21  1  0  0  0
 21 22  2  0  0  0
 22 23  1  0  0  0
 23 24  2  0  0  0
 24 27  1  0  0  0
 27 28  1  0  0  0
 28 29  1  0  0  0
 29 30  1  0  0  0
 30 31  1  0  0  0
 31 32  1  0  0  0
 32 33  1  0  0  0
 33 34  1  0  0  0
 34 35  1  0  0  0
 24 25  1  0  0  0
 25 26  2  0  0  0
 19 14  1  0  0  0
 11  1  1  0  0  0
 26 21  1  0  0  0
  9  3  1  0  0  0
 35 30  1  0  0  0
 13 20  1  0  0  0
  6 12  1  0  0  0
M  END
> <minimizedAffinity>
20.81206

> <CNNscore>
0.4071720839

> <CNNaffinity>
7.4947652817

> <CNN_VS>
3.0516591072

> <CNNaffinity_variance>
1.7115691900

$$$$
[H]Oc1c([H])c([H])c([C@]2([H])Sc3c([H])c(O[H])c([H])c([H])c3O[C@@]2([H])c2c([H])c([H])c(OC([H])([H])C([H])([H])N3C([H])([H])C([H])([H])C([H])([H])C([H])([H])C3([H])[H])c([H])c2[H])c([H])c1[H]


 35 39  0  0  0  0  0  0  0  0999 V2000
    8.6525   46.1916  131.9000 C   0  0  0  0  0  0  0  0  0  0  0  0
    8.7401   46.8081  133.6108 S   0  0  0  0  0  0  0  0  0  0  0  0
    9.6971   45.6458  134.5193 C   0  0  0  0  0  0  0  0  0  0  0  0
    9.7529   45.7036  135.8721 C   0  0  0  0  0  0  0  0  0  0  0  0
   10.5066   44.7873  136.6150 C   0  0  0  0  0  0  0  0  0  0  0  0
   10.5846   44.8174  137.9932 O   0  0  0  0  0  0  0  0  0  0  0  0
   11.2043   43.8082  135.9462 C   0  0  0  0  0  0  0  0  0  0  0  0
   11.1615   43.7315  134.5777 C   0  0  0  0  0  0  0  0  0  0  0  0
   10.3984   44.6642  133.8757 C   0  0  0  0  0  0  0  0  0  0  0  0
   10.3667   44.5756  132.5252 O   0  0  0  0  0  0  0  0  0  0  0  0
    9.9588   45.5419  131.5947 C   0  0  0  0  0  0  0  0  0  0  0  0
    9.8726   44.2654  138.4898 H   0  0  0  0  0  0  0  0  0  0  0  0
    7.5026   50.3625  128.2113 O   0  0  0  0  0  0  0  0  0  0  0  0
    7.7981   49.3314  129.1236 C   0  0  0  0  0  0  0  0  0  0  0  0
    9.0906   49.0386  129.4952 C   0  0  0  0  0  0  0  0  0  0  0  0
    9.3818   48.0292  130.3885 C   0  0  0  0  0  0  0  0  0  0  0  0
    8.3757   47.2709  130.9455 C   0  0  0  0  0  0  0  0  0  0  0  0
    7.0667   47.5585  130.5766 C   0  0  0  0  0  0  0  0  0  0  0  0
    6.7967   48.5680  129.6853 C   0  0  0  0  0  0  0  0  0  0  0  0
    7.3313   51.3216  128.5470 H   0  0  0  0  0  0  0  0  0  0  0  0
    9.8427   44.8132  130.2840 C   0  0  0  0  0  0  0  0  0  0  0  0
    8.6683   44.2213  129.8842 C   0  0  0  0  0  0  0  0  0  0  0  0
    8.5578   43.5611  128.6867 C   0  0  0  0  0  0  0  0  0  0  0  0
    9.6459   43.4503  127.7923 C   0  0  0  0  0  0  0  0  0  0  0  0
   10.8120   44.0445  128.2047 C   0  0  0  0  0  0  0  0  0  0  0  0
   10.9068   44.7116  129.4246 C   0  0  0  0  0  0  0  0  0  0  0  0
    9.4630   42.7736  126.6123 O   0  0  0  0  0  0  0  0  0  0  0  0
    9.3617   41.4323  126.3912 C   0  0  0  0  0  0  0  0  0  0  0  0
   10.2666   40.5341  127.2084 C   0  0  0  0  0  0  0  0  0  0  0  0
   11.0316   39.7325  126.3164 N   0  0  0  0  0  0  0  0  0  0  0  0
   10.3771   39.1978  125.1816 C   0  0  0  0  0  0  0  0  0  0  0  0
   10.9268   37.7884  124.9586 C   0  0  0  0  0  0  0  0  0  0  0  0
   12.4328   37.8376  125.0530 C   0  0  0  0  0  0  0  0  0  0  0  0
   12.9732   39.2558  125.0090 C   0  0  0  0  0  0  0  0  0  0  0  0
   12.4043   40.0482  126.1665 C   0  0  0  0  0  0  0  0  0  0  0  0
 13 14  1  0  0  0
 14 15  2  0  0  0
 15 16  1  0  0  0
 16 17  2  0  0  0
 17 18  1  0  0  0
 18 19  2  0  0  0
 17  1  1  0  0  0
  1  2  1  0  0  0
  2  3  1  0  0  0
  3  4  2  0  0  0
  4  5  1  0  0  0
  5  6  1  0  0  0
  5  7  2  0  0  0
  7  8  1  0  0  0
  8  9  2  0  0  0
  9 10  1  0  0  0
 10 11  1  0  0  0
 11 21  1  0  0  0
 21 22  2  0  0  0
 22 23  1  0  0  0
 23 24  2  0  0  0
 24 27  1  0  0  0
 27 28  1  0  0  0
 28 29  1  0  0  0
 29 30  1  0  0  0
 30 31  1  0  0  0
 31 32  1  0  0  0
 32 33  1  0  0  0
 33 34  1  0  0  0
 34 35  1  0  0  0
 24 25  1  0  0  0
 25 26  2  0  0  0
 19 14  1  0  0  0
 11  1  1  0  0  0
 26 21  1  0  0  0
  9  3  1  0  0  0
 35 30  1  0  0  0
 13 20  1  0  0  0
  6 12  1  0  0  0
M  END
> <minimizedAffinity>
19.94309

> <CNNscore>
0.4018688500

> <CNNaffinity>
7.5241270065

> <CNN_VS>
3.0237121582

> <CNNaffinity_variance>
1.0651363134

$$$$
[H]Oc1c([H])c([H])c([C@]2([H])Sc3c([H])c(O[H])c([H])c([H])c3O[C@@]2([H])c2c([H])c([H])c(OC([H])([H])C([H])([H])N3C([H])([H])C([H])([H])C([H])([H])C([H])([H])C3([H])[H])c([H])c2[H])c([H])c1[H]


 35 39  0  0  0  0  0  0  0  0999 V2000
    9.2166   46.2987  129.4498 C   0  0  0  0  0  0  0  0  0  0  0  0
    9.3654   45.4615  127.8399 S   0  0  0  0  0  0  0  0  0  0  0  0
    9.5273   43.7431  128.1759 C   0  0  0  0  0  0  0  0  0  0  0  0
    9.8851   42.8780  127.1960 C   0  0  0  0  0  0  0  0  0  0  0  0
   10.0218   41.5068  127.4421 C   0  0  0  0  0  0  0  0  0  0  0  0
   10.3851   40.5987  126.4675 O   0  0  0  0  0  0  0  0  0  0  0  0
    9.7849   41.0358  128.7128 C   0  0  0  0  0  0  0  0  0  0  0  0
    9.4220   41.8938  129.7191 C   0  0  0  0  0  0  0  0  0  0  0  0
    9.2969   43.2527  129.4313 C   0  0  0  0  0  0  0  0  0  0  0  0
    8.9375   44.0869  130.4351 O   0  0  0  0  0  0  0  0  0  0  0  0
    8.4435   45.3963  130.3497 C   0  0  0  0  0  0  0  0  0  0  0  0
   11.3959   40.4352  126.3684 H   0  0  0  0  0  0  0  0  0  0  0  0
    6.7051   51.3799  129.0038 O   0  0  0  0  0  0  0  0  0  0  0  0
    7.3182   50.1168  129.1099 C   0  0  0  0  0  0  0  0  0  0  0  0
    6.7019   48.9702  128.6626 C   0  0  0  0  0  0  0  0  0  0  0  0
    7.3008   47.7324  128.7658 C   0  0  0  0  0  0  0  0  0  0  0  0
    8.5518   47.6008  129.3273 C   0  0  0  0  0  0  0  0  0  0  0  0
    9.1828   48.7528  129.7824 C   0  0  0  0  0  0  0  0  0  0  0  0
    8.5700   49.9769  129.6708 C   0  0  0  0  0  0  0  0  0  0  0  0
    6.8489   51.9595  128.1640 H   0  0  0  0  0  0  0  0  0  0  0  0
    8.5047   45.9407  131.7504 C   0  0  0  0  0  0  0  0  0  0  0  0
    8.1311   45.1884  132.8384 C   0  0  0  0  0  0  0  0  0  0  0  0
    8.1915   45.6802  134.1178 C   0  0  0  0  0  0  0  0  0  0  0  0
    8.6419   46.9908  134.3930 C   0  0  0  0  0  0  0  0  0  0  0  0
    9.0102   47.7308  133.2977 C   0  0  0  0  0  0  0  0  0  0  0  0
    8.9429   47.2153  132.0047 C   0  0  0  0  0  0  0  0  0  0  0  0
    8.6742   47.4164  135.6975 O   0  0  0  0  0  0  0  0  0  0  0  0
    9.5677   47.1180  136.6827 C   0  0  0  0  0  0  0  0  0  0  0  0
   10.0666   45.6894  136.7441 C   0  0  0  0  0  0  0  0  0  0  0  0
   10.8035   45.4175  135.5581 N   0  0  0  0  0  0  0  0  0  0  0  0
   11.8029   46.3426  135.1743 C   0  0  0  0  0  0  0  0  0  0  0  0
   11.7631   46.4520  133.6496 C   0  0  0  0  0  0  0  0  0  0  0  0
   11.7081   45.0600  133.0674 C   0  0  0  0  0  0  0  0  0  0  0  0
   12.0321   43.9870  134.0916 C   0  0  0  0  0  0  0  0  0  0  0  0
   11.0366   44.0595  135.2297 C   0  0  0  0  0  0  0  0  0  0  0  0
 13 14  1  0  0  0
 14 15  2  0  0  0
 15 16  1  0  0  0
 16 17  2  0  0  0
 17 18  1  0  0  0
 18 19  2  0  0  0
 17  1  1  0  0  0
  1  2  1  0  0  0
  2  3  1  0  0  0
  3  4  2  0  0  0
  4  5  1  0  0  0
  5  6  1  0  0  0
  5  7  2  0  0  0
  7  8  1  0  0  0
  8  9  2  0  0  0
  9 10  1  0  0  0
 10 11  1  0  0  0
 11 21  1  0  0  0
 21 22  2  0  0  0
 22 23  1  0  0  0
 23 24  2  0  0  0
 24 27  1  0  0  0
 27 28  1  0  0  0
 28 29  1  0  0  0
 29 30  1  0  0  0
 30 31  1  0  0  0
 31 32  1  0  0  0
 32 33  1  0  0  0
 33 34  1  0  0  0
 34 35  1  0  0  0
 24 25  1  0  0  0
 25 26  2  0  0  0
 19 14  1  0  0  0
 11  1  1  0  0  0
 26 21  1  0  0  0
  9  3  1  0  0  0
 35 30  1  0  0  0
 13 20  1  0  0  0
  6 12  1  0  0  0
M  END
> <minimizedAffinity>
10.03719

> <CNNscore>
0.3895369172

> <CNNaffinity>
7.6902685165

> <CNN_VS>
2.9956433773

> <CNNaffinity_variance>
1.0669181347

$$$$
[H]Oc1c([H])c([H])c([C@]2([H])Sc3c([H])c(O[H])c([H])c([H])c3O[C@@]2([H])c2c([H])c([H])c(OC([H])([H])C([H])([H])N3C([H])([H])C([H])([H])C([H])([H])C([H])([H])C3([H])[H])c([H])c2[H])c([H])c1[H]


 35 39  0  0  0  0  0  0  0  0999 V2000
   10.4118   45.5353  132.8789 C   0  0  0  0  0  0  0  0  0  0  0  0
   10.9475   43.7967  132.9498 S   0  0  0  0  0  0  0  0  0  0  0  0
   10.4122   43.0407  131.4551 C   0  0  0  0  0  0  0  0  0  0  0  0
   10.4591   41.6945  131.3062 C   0  0  0  0  0  0  0  0  0  0  0  0
   10.0360   41.0720  130.1260 C   0  0  0  0  0  0  0  0  0  0  0  0
   10.0697   39.7040  129.9416 O   0  0  0  0  0  0  0  0  0  0  0  0
    9.5632   41.8545  129.0980 C   0  0  0  0  0  0  0  0  0  0  0  0
    9.5071   43.2185  129.2277 C   0  0  0  0  0  0  0  0  0  0  0  0
    9.9385   43.7986  130.4204 C   0  0  0  0  0  0  0  0  0  0  0  0
    9.8774   45.1463  130.5329 O   0  0  0  0  0  0  0  0  0  0  0  0
   10.5234   45.9768  131.4596 C   0  0  0  0  0  0  0  0  0  0  0  0
    9.2211   39.1971  130.2267 H   0  0  0  0  0  0  0  0  0  0  0  0
   13.4897   48.8969  136.2776 O   0  0  0  0  0  0  0  0  0  0  0  0
   12.7362   48.0580  135.4343 C   0  0  0  0  0  0  0  0  0  0  0  0
   13.2740   46.9243  134.8685 C   0  0  0  0  0  0  0  0  0  0  0  0
   12.5375   46.1017  134.0424 C   0  0  0  0  0  0  0  0  0  0  0  0
   11.2224   46.3912  133.7523 C   0  0  0  0  0  0  0  0  0  0  0  0
   10.6698   47.5341  134.3186 C   0  0  0  0  0  0  0  0  0  0  0  0
   11.4194   48.3411  135.1390 C   0  0  0  0  0  0  0  0  0  0  0  0
   13.5087   48.7315  137.2945 H   0  0  0  0  0  0  0  0  0  0  0  0
    9.8674   47.3228  131.3180 C   0  0  0  0  0  0  0  0  0  0  0  0
    8.7178   47.6451  131.9990 C   0  0  0  0  0  0  0  0  0  0  0  0
    8.1204   48.8741  131.8764 C   0  0  0  0  0  0  0  0  0  0  0  0
    8.6523   49.8825  131.0420 C   0  0  0  0  0  0  0  0  0  0  0  0
    9.7990   49.5467  130.3673 C   0  0  0  0  0  0  0  0  0  0  0  0
   10.3930   48.2934  130.5038 C   0  0  0  0  0  0  0  0  0  0  0  0
    8.0003   51.0880  130.9670 O   0  0  0  0  0  0  0  0  0  0  0  0
    7.0135   51.4859  130.1149 C   0  0  0  0  0  0  0  0  0  0  0  0
    5.7902   50.5979  130.0226 C   0  0  0  0  0  0  0  0  0  0  0  0
    6.1794   49.3507  129.4601 N   0  0  0  0  0  0  0  0  0  0  0  0
    5.1934   48.3428  129.3413 C   0  0  0  0  0  0  0  0  0  0  0  0
    5.8652   47.0065  129.6595 C   0  0  0  0  0  0  0  0  0  0  0  0
    7.1695   46.9301  128.9029 C   0  0  0  0  0  0  0  0  0  0  0  0
    7.2840   47.9984  127.8300 C   0  0  0  0  0  0  0  0  0  0  0  0
    7.1918   49.3672  128.4696 C   0  0  0  0  0  0  0  0  0  0  0  0
 13 14  1  0  0  0
 14 15  2  0  0  0
 15 16  1  0  0  0
 16 17  2  0  0  0
 17 18  1  0  0  0
 18 19  2  0  0  0
 17  1  1  0  0  0
  1  2  1  0  0  0
  2  3  1  0  0  0
  3  4  2  0  0  0
  4  5  1  0  0  0
  5  6  1  0  0  0
  5  7  2  0  0  0
  7  8  1  0  0  0
  8  9  2  0  0  0
  9 10  1  0  0  0
 10 11  1  0  0  0
 11 21  1  0  0  0
 21 22  2  0  0  0
 22 23  1  0  0  0
 23 24  2  0  0  0
 24 27  1  0  0  0
 27 28  1  0  0  0
 28 29  1  0  0  0
 29 30  1  0  0  0
 30 31  1  0  0  0
 31 32  1  0  0  0
 32 33  1  0  0  0
 33 34  1  0  0  0
 34 35  1  0  0  0
 24 25  1  0  0  0
 25 26  2  0  0  0
 19 14  1  0  0  0
 11  1  1  0  0  0
 26 21  1  0  0  0
  9  3  1  0  0  0
 35 30  1  0  0  0
 13 20  1  0  0  0
  6 12  1  0  0  0
M  END
> <minimizedAffinity>
10.63188

> <CNNscore>
0.3868657351

> <CNNaffinity>
7.4567055702

> <CNN_VS>
2.8847439289

> <CNNaffinity_variance>
0.5902930498

$$$$
[H]Oc1c([H])c([H])c([C@]2([H])Sc3c([H])c(O[H])c([H])c([H])c3O[C@@]2([H])c2c([H])c([H])c(OC([H])([H])C([H])([H])N3C([H])([H])C([H])([H])C([H])([H])C([H])([H])C3([H])[H])c([H])c2[H])c([H])c1[H]


 35 39  0  0  0  0  0  0  0  0999 V2000
    8.9096   47.2590  129.3662 C   0  0  0  0  0  0  0  0  0  0  0  0
    9.3666   46.7392  127.6822 S   0  0  0  0  0  0  0  0  0  0  0  0
   10.3699   45.3048  127.8500 C   0  0  0  0  0  0  0  0  0  0  0  0
   11.0551   44.8128  126.7893 C   0  0  0  0  0  0  0  0  0  0  0  0
   11.8611   43.6738  126.9012 C   0  0  0  0  0  0  0  0  0  0  0  0
   12.5725   43.1469  125.8416 O   0  0  0  0  0  0  0  0  0  0  0  0
   11.9531   43.0456  128.1217 C   0  0  0  0  0  0  0  0  0  0  0  0
   11.2683   43.5268  129.2079 C   0  0  0  0  0  0  0  0  0  0  0  0
   10.4763   44.6644  129.0533 C   0  0  0  0  0  0  0  0  0  0  0  0
    9.8061   45.1269  130.1348 O   0  0  0  0  0  0  0  0  0  0  0  0
    8.7283   46.0226  130.1787 C   0  0  0  0  0  0  0  0  0  0  0  0
   13.5263   43.5133  125.7220 H   0  0  0  0  0  0  0  0  0  0  0  0
    4.1219   50.3254  129.3824 O   0  0  0  0  0  0  0  0  0  0  0  0
    5.3134   49.5751  129.3803 C   0  0  0  0  0  0  0  0  0  0  0  0
    6.5360   50.1525  129.6379 C   0  0  0  0  0  0  0  0  0  0  0  0
    7.7038   49.4192  129.6363 C   0  0  0  0  0  0  0  0  0  0  0  0
    7.6851   48.0672  129.3734 C   0  0  0  0  0  0  0  0  0  0  0  0
    6.4553   47.4743  129.1118 C   0  0  0  0  0  0  0  0  0  0  0  0
    5.3029   48.2215  129.1180 C   0  0  0  0  0  0  0  0  0  0  0  0
    3.5778   50.4362  130.2504 H   0  0  0  0  0  0  0  0  0  0  0  0
    8.5870   46.4100  131.6252 C   0  0  0  0  0  0  0  0  0  0  0  0
    7.9989   45.5758  132.5458 C   0  0  0  0  0  0  0  0  0  0  0  0
    7.8740   45.9240  133.8669 C   0  0  0  0  0  0  0  0  0  0  0  0
    8.3429   47.1622  134.3600 C   0  0  0  0  0  0  0  0  0  0  0  0
    8.9263   47.9853  133.4299 C   0  0  0  0  0  0  0  0  0  0  0  0
    9.0455   47.6156  132.0916 C   0  0  0  0  0  0  0  0  0  0  0  0
    8.1825   47.4440  135.6937 O   0  0  0  0  0  0  0  0  0  0  0  0
    9.0038   47.1574  136.7431 C   0  0  0  0  0  0  0  0  0  0  0  0
   10.4910   47.1255  136.4590 C   0  0  0  0  0  0  0  0  0  0  0  0
   10.7613   46.0310  135.5916 N   0  0  0  0  0  0  0  0  0  0  0  0
   11.8929   46.1209  134.7469 C   0  0  0  0  0  0  0  0  0  0  0  0
   11.5134   45.4918  133.4058 C   0  0  0  0  0  0  0  0  0  0  0  0
   10.8254   44.1739  133.6687 C   0  0  0  0  0  0  0  0  0  0  0  0
   10.9945   43.7044  135.1027 C   0  0  0  0  0  0  0  0  0  0  0  0
   10.4085   44.7356  136.0432 C   0  0  0  0  0  0  0  0  0  0  0  0
 13 14  1  0  0  0
 14 15  2  0  0  0
 15 16  1  0  0  0
 16 17  2  0  0  0
 17 18  1  0  0  0
 18 19  2  0  0  0
 17  1  1  0  0  0
  1  2  1  0  0  0
  2  3  1  0  0  0
  3  4  2  0  0  0
  4  5  1  0  0  0
  5  6  1  0  0  0
  5  7  2  0  0  0
  7  8  1  0  0  0
  8  9  2  0  0  0
  9 10  1  0  0  0
 10 11  1  0  0  0
 11 21  1  0  0  0
 21 22  2  0  0  0
 22 23  1  0  0  0
 23 24  2  0  0  0
 24 27  1  0  0  0
 27 28  1  0  0  0
 28 29  1  0  0  0
 29 30  1  0  0  0
 30 31  1  0  0  0
 31 32  1  0  0  0
 32 33  1  0  0  0
 33 34  1  0  0  0
 34 35  1  0  0  0
 24 25  1  0  0  0
 25 26  2  0  0  0
 19 14  1  0  0  0
 11  1  1  0  0  0
 26 21  1  0  0  0
  9  3  1  0  0  0
 35 30  1  0  0  0
 13 20  1  0  0  0
  6 12  1  0  0  0
M  END
> <minimizedAffinity>
16.19857

> <CNNscore>
0.3738085032

> <CNNaffinity>
7.4365973473

> <CNN_VS>
2.7798633575

> <CNNaffinity_variance>
0.9551832080

$$$$
[H]Oc1c([H])c([H])c([C@]2([H])Sc3c([H])c(O[H])c([H])c([H])c3O[C@@]2([H])c2c([H])c([H])c(OC([H])([H])C([H])([H])N3C([H])([H])C([H])([H])C([H])([H])C([H])([H])C3([H])[H])c([H])c2[H])c([H])c1[H]


 35 39  0  0  0  0  0  0  0  0999 V2000
   10.4272   46.6435  131.4044 C   0  0  0  0  0  0  0  0  0  0  0  0
    9.0952   47.6802  132.0869 S   0  0  0  0  0  0  0  0  0  0  0  0
    8.1818   48.2974  130.7169 C   0  0  0  0  0  0  0  0  0  0  0  0
    7.2660   49.2823  130.8841 C   0  0  0  0  0  0  0  0  0  0  0  0
    6.5296   49.7897  129.8072 C   0  0  0  0  0  0  0  0  0  0  0  0
    5.5901   50.7924  129.9425 O   0  0  0  0  0  0  0  0  0  0  0  0
    6.7479   49.2691  128.5526 C   0  0  0  0  0  0  0  0  0  0  0  0
    7.6700   48.2723  128.3611 C   0  0  0  0  0  0  0  0  0  0  0  0
    8.3823   47.7952  129.4611 C   0  0  0  0  0  0  0  0  0  0  0  0
    9.2886   46.8107  129.2559 O   0  0  0  0  0  0  0  0  0  0  0  0
    9.8828   45.9587  130.1976 C   0  0  0  0  0  0  0  0  0  0  0  0
    5.9468   51.7515  129.8365 H   0  0  0  0  0  0  0  0  0  0  0  0
   12.2268   42.8035  135.1914 O   0  0  0  0  0  0  0  0  0  0  0  0
   11.7909   43.7594  134.2540 C   0  0  0  0  0  0  0  0  0  0  0  0
   12.6234   44.7511  133.7868 C   0  0  0  0  0  0  0  0  0  0  0  0
   12.1981   45.6881  132.8688 C   0  0  0  0  0  0  0  0  0  0  0  0
   10.9094   45.6623  132.3828 C   0  0  0  0  0  0  0  0  0  0  0  0
   10.0605   44.6649  132.8484 C   0  0  0  0  0  0  0  0  0  0  0  0
   10.5026   43.7404  133.7629 C   0  0  0  0  0  0  0  0  0  0  0  0
   12.6495   41.9187  134.8746 H   0  0  0  0  0  0  0  0  0  0  0  0
   11.0144   45.2845  129.4715 C   0  0  0  0  0  0  0  0  0  0  0  0
   10.9695   45.0474  128.1183 C   0  0  0  0  0  0  0  0  0  0  0  0
   12.0026   44.4381  127.4522 C   0  0  0  0  0  0  0  0  0  0  0  0
   13.1754   44.0178  128.1186 C   0  0  0  0  0  0  0  0  0  0  0  0
   13.2060   44.2594  129.4690 C   0  0  0  0  0  0  0  0  0  0  0  0
   12.1476   44.8800  130.1299 C   0  0  0  0  0  0  0  0  0  0  0  0
   14.1678   43.4132  127.3883 O   0  0  0  0  0  0  0  0  0  0  0  0
   14.2542   42.1271  126.9450 C   0  0  0  0  0  0  0  0  0  0  0  0
   13.6338   41.8250  125.5969 C   0  0  0  0  0  0  0  0  0  0  0  0
   13.2514   40.4551  125.5729 N   0  0  0  0  0  0  0  0  0  0  0  0
   13.2596   39.7451  126.7968 C   0  0  0  0  0  0  0  0  0  0  0  0
   13.7652   38.3323  126.5022 C   0  0  0  0  0  0  0  0  0  0  0  0
   13.0416   37.8048  125.2867 C   0  0  0  0  0  0  0  0  0  0  0  0
   11.8343   38.6477  124.9160 C   0  0  0  0  0  0  0  0  0  0  0  0
   12.2800   40.0636  124.6192 C   0  0  0  0  0  0  0  0  0  0  0  0
 13 14  1  0  0  0
 14 15  2  0  0  0
 15 16  1  0  0  0
 16 17  2  0  0  0
 17 18  1  0  0  0
 18 19  2  0  0  0
 17  1  1  0  0  0
  1  2  1  0  0  0
  2  3  1  0  0  0
  3  4  2  0  0  0
  4  5  1  0  0  0
  5  6  1  0  0  0
  5  7  2  0  0  0
  7  8  1  0  0  0
  8  9  2  0  0  0
  9 10  1  0  0  0
 10 11  1  0  0  0
 11 21  1  0  0  0
 21 22  2  0  0  0
 22 23  1  0  0  0
 23 24  2  0  0  0
 24 27  1  0  0  0
 27 28  1  0  0  0
 28 29  1  0  0  0
 29 30  1  0  0  0
 30 31  1  0  0  0
 31 32  1  0  0  0
 32 33  1  0  0  0
 33 34  1  0  0  0
 34 35  1  0  0  0
 24 25  1  0  0  0
 25 26  2  0  0  0
 19 14  1  0  0  0
 11  1  1  0  0  0
 26 21  1  0  0  0
  9  3  1  0  0  0
 35 30  1  0  0  0
 13 20  1  0  0  0
  6 12  1  0  0  0
M  END
> <minimizedAffinity>
21.20739

> <CNNscore>
0.3477922082

> <CNNaffinity>
7.4280242920

> <CNN_VS>
2.5834090710

> <CNNaffinity_variance>
0.5157540441

$$$$
[H]Oc1c([H])c([H])c([C@]2([H])Oc3c([H])c([H])c(O[H])c([H])c3[C@]3([H])C([H])([H])C([H])([H])C([H])([H])[C@]23[H])c([H])c1[H]


 23 26  0  0  0  0  0  0  0  0999 V2000
   10.3853   47.9054  131.8676 C   0  0  0  0  0  0  0  0  0  0  0  0
   11.1148   46.9612  131.1323 O   0  0  0  0  0  0  0  0  0  0  0  0
   11.1272   45.6078  131.3494 C   0  0  0  0  0  0  0  0  0  0  0  0
   11.5750   44.7346  130.3578 C   0  0  0  0  0  0  0  0  0  0  0  0
   11.5751   43.3787  130.6069 C   0  0  0  0  0  0  0  0  0  0  0  0
   11.1294   42.9288  131.8367 C   0  0  0  0  0  0  0  0  0  0  0  0
   11.1506   41.5472  132.0366 O   0  0  0  0  0  0  0  0  0  0  0  0
   10.6863   43.7920  132.8182 C   0  0  0  0  0  0  0  0  0  0  0  0
   10.6892   45.1388  132.5628 C   0  0  0  0  0  0  0  0  0  0  0  0
   10.2247   46.0506  133.5903 C   0  0  0  0  0  0  0  0  0  0  0  0
    8.8010   45.7190  134.0618 C   0  0  0  0  0  0  0  0  0  0  0  0
    8.5054   46.9813  134.8787 C   0  0  0  0  0  0  0  0  0  0  0  0
    8.8766   48.0443  133.8574 C   0  0  0  0  0  0  0  0  0  0  0  0
   10.1757   47.4930  133.2730 C   0  0  0  0  0  0  0  0  0  0  0  0
   10.3414   40.9709  131.7939 H   0  0  0  0  0  0  0  0  0  0  0  0
    5.6833   49.5179  129.1286 O   0  0  0  0  0  0  0  0  0  0  0  0
    6.8397   49.1510  129.8031 C   0  0  0  0  0  0  0  0  0  0  0  0
    7.1404   47.8171  129.9075 C   0  0  0  0  0  0  0  0  0  0  0  0
    8.2737   47.4352  130.5673 C   0  0  0  0  0  0  0  0  0  0  0  0
    9.1561   48.3252  131.1493 C   0  0  0  0  0  0  0  0  0  0  0  0
    8.8646   49.6668  131.0509 C   0  0  0  0  0  0  0  0  0  0  0  0
    7.7046   50.0655  130.3761 C   0  0  0  0  0  0  0  0  0  0  0  0
    5.4157   50.5002  129.0239 H   0  0  0  0  0  0  0  0  0  0  0  0
 16 17  1  0  0  0
 17 18  2  0  0  0
 18 19  1  0  0  0
 19 20  2  0  0  0
 20 21  1  0  0  0
 21 22  2  0  0  0
 20  1  1  0  0  0
  1  2  1  0  0  0
  2  3  1  0  0  0
  3  4  2  0  0  0
  4  5  1  0  0  0
  5  6  2  0  0  0
  6  7  1  0  0  0
  6  8  1  0  0  0
  8  9  2  0  0  0
  9 10  1  0  0  0
 10 11  1  0  0  0
 11 12  1  0  0  0
 12 13  1  0  0  0
 13 14  1  0  0  0
 22 17  1  0  0  0
 14  1  1  0  0  0
  9  3  1  0  0  0
 14 10  1  0  0  0
 16 23  1  0  0  0
  7 15  1  0  0  0
M  END
> <minimizedAffinity>
-9.51075

> <CNNscore>
0.6408024430

> <CNNaffinity>
7.2074484825

> <CNN_VS>
4.6185507774

> <CNNaffinity_variance>
0.4380716383

$$$$
[H]Oc1c([H])c([H])c([C@]2([H])Oc3c([H])c([H])c(O[H])c([H])c3[C@]3([H])C([H])([H])C([H])([H])C([H])([H])[C@]23[H])c([H])c1[H]


 23 26  0  0  0  0  0  0  0  0999 V2000
    9.6940   47.7946  129.8037 C   0  0  0  0  0  0  0  0  0  0  0  0
    9.7593   46.4280  129.4995 O   0  0  0  0  0  0  0  0  0  0  0  0
    9.8188   45.4037  130.4084 C   0  0  0  0  0  0  0  0  0  0  0  0
    9.5094   44.0980  130.0266 C   0  0  0  0  0  0  0  0  0  0  0  0
    9.5788   43.0897  130.9642 C   0  0  0  0  0  0  0  0  0  0  0  0
    9.9543   43.4087  132.2568 C   0  0  0  0  0  0  0  0  0  0  0  0
   10.0084   42.3506  133.1660 O   0  0  0  0  0  0  0  0  0  0  0  0
   10.2606   44.7002  132.6353 C   0  0  0  0  0  0  0  0  0  0  0  0
   10.1892   45.6971  131.6971 C   0  0  0  0  0  0  0  0  0  0  0  0
   10.5097   47.0560  132.0890 C   0  0  0  0  0  0  0  0  0  0  0  0
    9.6575   47.5363  133.2731 C   0  0  0  0  0  0  0  0  0  0  0  0
   10.0035   49.0287  133.2440 C   0  0  0  0  0  0  0  0  0  0  0  0
    9.7350   49.3290  131.7782 C   0  0  0  0  0  0  0  0  0  0  0  0
   10.3655   48.1257  131.0799 C   0  0  0  0  0  0  0  0  0  0  0  0
    9.1869   42.0919  133.7173 H   0  0  0  0  0  0  0  0  0  0  0  0
    4.4060   49.7895  129.2858 O   0  0  0  0  0  0  0  0  0  0  0  0
    5.6897   49.2753  129.4065 C   0  0  0  0  0  0  0  0  0  0  0  0
    6.7076   50.1306  129.7425 C   0  0  0  0  0  0  0  0  0  0  0  0
    7.9781   49.6445  129.8663 C   0  0  0  0  0  0  0  0  0  0  0  0
    8.3114   48.3179  129.6706 C   0  0  0  0  0  0  0  0  0  0  0  0
    7.2978   47.4500  129.3330 C   0  0  0  0  0  0  0  0  0  0  0  0
    5.9932   47.9413  129.2043 C   0  0  0  0  0  0  0  0  0  0  0  0
    3.6131   49.1919  129.0372 H   0  0  0  0  0  0  0  0  0  0  0  0
 16 17  1  0  0  0
 17 18  2  0  0  0
 18 19  1  0  0  0
 19 20  2  0  0  0
 20 21  1  0  0  0
 21 22  2  0  0  0
 20  1  1  0  0  0
  1  2  1  0  0  0
  2  3  1  0  0  0
  3  4  2  0  0  0
  4  5  1  0  0  0
  5  6  2  0  0  0
  6  7  1  0  0  0
  6  8  1  0  0  0
  8  9  2  0  0  0
  9 10  1  0  0  0
 10 11  1  0  0  0
 11 12  1  0  0  0
 12 13  1  0  0  0
 13 14  1  0  0  0
 22 17  1  0  0  0
 14  1  1  0  0  0
  9  3  1  0  0  0
 14 10  1  0  0  0
 16 23  1  0  0  0
  7 15  1  0  0  0
M  END
> <minimizedAffinity>
-9.53770

> <CNNscore>
0.6260828376

> <CNNaffinity>
7.1494035721

> <CNN_VS>
4.4761190414

> <CNNaffinity_variance>
0.4473757744

$$$$
[H]Oc1c([H])c([H])c([C@]2([H])Oc3c([H])c([H])c(O[H])c([H])c3[C@]3([H])C([H])([H])C([H])([H])C([H])([H])[C@]23[H])c([H])c1[H]


 23 26  0  0  0  0  0  0  0  0999 V2000
   10.3389   47.1604  131.3220 C   0  0  0  0  0  0  0  0  0  0  0  0
   10.4304   46.1683  130.3362 O   0  0  0  0  0  0  0  0  0  0  0  0
    9.7958   44.9535  130.3564 C   0  0  0  0  0  0  0  0  0  0  0  0
    9.6531   44.2084  129.1856 C   0  0  0  0  0  0  0  0  0  0  0  0
    9.0098   42.9902  129.2388 C   0  0  0  0  0  0  0  0  0  0  0  0
    8.5260   42.5468  130.4565 C   0  0  0  0  0  0  0  0  0  0  0  0
    7.8833   41.3073  130.4543 O   0  0  0  0  0  0  0  0  0  0  0  0
    8.6667   43.2833  131.6152 C   0  0  0  0  0  0  0  0  0  0  0  0
    9.3075   44.4935  131.5539 C   0  0  0  0  0  0  0  0  0  0  0  0
    9.4583   45.2718  132.7682 C   0  0  0  0  0  0  0  0  0  0  0  0
    8.1116   45.5476  133.4534 C   0  0  0  0  0  0  0  0  0  0  0  0
    8.5601   46.5936  134.4793 C   0  0  0  0  0  0  0  0  0  0  0  0
    9.3026   47.5535  133.5639 C   0  0  0  0  0  0  0  0  0  0  0  0
   10.0952   46.6016  132.6701 C   0  0  0  0  0  0  0  0  0  0  0  0
    6.8756   41.2407  130.2936 H   0  0  0  0  0  0  0  0  0  0  0  0
    6.7926   51.3104  129.7690 O   0  0  0  0  0  0  0  0  0  0  0  0
    7.6442   50.2768  130.1338 C   0  0  0  0  0  0  0  0  0  0  0  0
    8.6992   50.5606  130.9628 C   0  0  0  0  0  0  0  0  0  0  0  0
    9.5488   49.5575  131.3336 C   0  0  0  0  0  0  0  0  0  0  0  0
    9.4115   48.2467  130.9184 C   0  0  0  0  0  0  0  0  0  0  0  0
    8.3561   47.9500  130.0861 C   0  0  0  0  0  0  0  0  0  0  0  0
    7.4813   48.9731  129.7019 C   0  0  0  0  0  0  0  0  0  0  0  0
    5.9915   51.1493  129.1526 H   0  0  0  0  0  0  0  0  0  0  0  0
 16 17  1  0  0  0
 17 18  2  0  0  0
 18 19  1  0  0  0
 19 20  2  0  0  0
 20 21  1  0  0  0
 21 22  2  0  0  0
 20  1  1  0  0  0
  1  2  1  0  0  0
  2  3  1  0  0  0
  3  4  2  0  0  0
  4  5  1  0  0  0
  5  6  2  0  0  0
  6  7  1  0  0  0
  6  8  1  0  0  0
  8  9  2  0  0  0
  9 10  1  0  0  0
 10 11  1  0  0  0
 11 12  1  0  0  0
 12 13  1  0  0  0
 13 14  1  0  0  0
 22 17  1  0  0  0
 14  1  1  0  0  0
  9  3  1  0  0  0
 14 10  1  0  0  0
 16 23  1  0  0  0
  7 15  1  0  0  0
M  END
> <minimizedAffinity>
-9.00203

> <CNNscore>
0.5823944807

> <CNNaffinity>
7.2785248756

> <CNN_VS>
4.2389726639

> <CNNaffinity_variance>
0.7166424394

$$$$
[H]Oc1c([H])c([H])c([C@]2([H])Oc3c([H])c([H])c(O[H])c([H])c3[C@]3([H])C([H])([H])C([H])([H])C([H])([H])[C@]23[H])c([H])c1[H]


 23 26  0  0  0  0  0  0  0  0999 V2000
   11.1348   46.3678  130.5894 C   0  0  0  0  0  0  0  0  0  0  0  0
   10.7615   47.7142  130.7002 O   0  0  0  0  0  0  0  0  0  0  0  0
    9.5241   48.2315  130.4173 C   0  0  0  0  0  0  0  0  0  0  0  0
    9.1512   49.4846  130.9041 C   0  0  0  0  0  0  0  0  0  0  0  0
    7.8996   49.9773  130.6020 C   0  0  0  0  0  0  0  0  0  0  0  0
    7.0529   49.2089  129.8233 C   0  0  0  0  0  0  0  0  0  0  0  0
    5.7979   49.7548  129.5473 O   0  0  0  0  0  0  0  0  0  0  0  0
    7.4211   47.9692  129.3413 C   0  0  0  0  0  0  0  0  0  0  0  0
    8.6673   47.4863  129.6461 C   0  0  0  0  0  0  0  0  0  0  0  0
    9.0596   46.1842  129.1426 C   0  0  0  0  0  0  0  0  0  0  0  0
    8.0733   45.0806  129.5528 C   0  0  0  0  0  0  0  0  0  0  0  0
    8.8908   43.8489  129.1493 C   0  0  0  0  0  0  0  0  0  0  0  0
   10.2035   44.1691  129.8457 C   0  0  0  0  0  0  0  0  0  0  0  0
   10.3820   45.6539  129.5346 C   0  0  0  0  0  0  0  0  0  0  0  0
    5.0040   49.5818  130.1683 H   0  0  0  0  0  0  0  0  0  0  0  0
   11.1918   43.7854  135.6430 O   0  0  0  0  0  0  0  0  0  0  0  0
   11.2045   44.4077  134.4023 C   0  0  0  0  0  0  0  0  0  0  0  0
   10.0970   45.1181  134.0159 C   0  0  0  0  0  0  0  0  0  0  0  0
   10.0895   45.7380  132.7988 C   0  0  0  0  0  0  0  0  0  0  0  0
   11.1485   45.6947  131.9122 C   0  0  0  0  0  0  0  0  0  0  0  0
   12.2657   44.9845  132.2895 C   0  0  0  0  0  0  0  0  0  0  0  0
   12.2804   44.3466  133.5355 C   0  0  0  0  0  0  0  0  0  0  0  0
   11.9937   43.2439  135.9765 H   0  0  0  0  0  0  0  0  0  0  0  0
 16 17  1  0  0  0
 17 18  2  0  0  0
 18 19  1  0  0  0
 19 20  2  0  0  0
 20 21  1  0  0  0
 21 22  2  0  0  0
 20  1  1  0  0  0
  1  2  1  0  0  0
  2  3  1  0  0  0
  3  4  2  0  0  0
  4  5  1  0  0  0
  5  6  2  0  0  0
  6  7  1  0  0  0
  6  8  1  0  0  0
  8  9  2  0  0  0
  9 10  1  0  0  0
 10 11  1  0  0  0
 11 12  1  0  0  0
 12 13  1  0  0  0
 13 14  1  0  0  0
 22 17  1  0  0  0
 14  1  1  0  0  0
  9  3  1  0  0  0
 14 10  1  0  0  0
 16 23  1  0  0  0
  7 15  1  0  0  0
M  END
> <minimizedAffinity>
-8.38764

> <CNNscore>
0.5469067097

> <CNNaffinity>
7.1720037460

> <CNN_VS>
3.9224169254

> <CNNaffinity_variance>
0.6019575000

$$$$
[H]Oc1c([H])c([H])c([C@]2([H])Oc3c([H])c([H])c(O[H])c([H])c3[C@]3([H])C([H])([H])C([H])([H])C([H])([H])[C@]23[H])c([H])c1[H]


 23 26  0  0  0  0  0  0  0  0999 V2000
    8.9098   45.8692  131.8211 C   0  0  0  0  0  0  0  0  0  0  0  0
    8.0617   46.1586  130.7435 O   0  0  0  0  0  0  0  0  0  0  0  0
    7.8118   47.4041  130.2286 C   0  0  0  0  0  0  0  0  0  0  0  0
    7.2636   47.5475  128.9538 C   0  0  0  0  0  0  0  0  0  0  0  0
    7.0240   48.8138  128.4642 C   0  0  0  0  0  0  0  0  0  0  0  0
    7.3369   49.9032  129.2572 C   0  0  0  0  0  0  0  0  0  0  0  0
    7.0743   51.1620  128.7134 O   0  0  0  0  0  0  0  0  0  0  0  0
    7.8793   49.7621  130.5185 C   0  0  0  0  0  0  0  0  0  0  0  0
    8.1145   48.4997  130.9980 C   0  0  0  0  0  0  0  0  0  0  0  0
    8.6844   48.3453  132.3226 C   0  0  0  0  0  0  0  0  0  0  0  0
   10.0111   49.1036  132.4770 C   0  0  0  0  0  0  0  0  0  0  0  0
   10.4824   48.5181  133.8123 C   0  0  0  0  0  0  0  0  0  0  0  0
   10.3381   47.0352  133.5108 C   0  0  0  0  0  0  0  0  0  0  0  0
    8.9894   46.9792  132.7961 C   0  0  0  0  0  0  0  0  0  0  0  0
    7.7836   51.6531  128.1643 H   0  0  0  0  0  0  0  0  0  0  0  0
   13.9167   43.8713  130.0461 O   0  0  0  0  0  0  0  0  0  0  0  0
   12.6872   44.3702  130.4539 C   0  0  0  0  0  0  0  0  0  0  0  0
   12.3149   44.2014  131.7630 C   0  0  0  0  0  0  0  0  0  0  0  0
   11.1090   44.6850  132.1844 C   0  0  0  0  0  0  0  0  0  0  0  0
   10.2205   45.3476  131.3593 C   0  0  0  0  0  0  0  0  0  0  0  0
   10.5836   45.5229  130.0432 C   0  0  0  0  0  0  0  0  0  0  0  0
   11.8180   45.0298  129.6042 C   0  0  0  0  0  0  0  0  0  0  0  0
   14.2395   43.9721  129.0801 H   0  0  0  0  0  0  0  0  0  0  0  0
 16 17  1  0  0  0
 17 18  2  0  0  0
 18 19  1  0  0  0
 19 20  2  0  0  0
 20 21  1  0  0  0
 21 22  2  0  0  0
 20  1  1  0  0  0
  1  2  1  0  0  0
  2  3  1  0  0  0
  3  4  2  0  0  0
  4  5  1  0  0  0
  5  6  2  0  0  0
  6  7  1  0  0  0
  6  8  1  0  0  0
  8  9  2  0  0  0
  9 10  1  0  0  0
 10 11  1  0  0  0
 11 12  1  0  0  0
 12 13  1  0  0  0
 13 14  1  0  0  0
 22 17  1  0  0  0
 14  1  1  0  0  0
  9  3  1  0  0  0
 14 10  1  0  0  0
 16 23  1  0  0  0
  7 15  1  0  0  0
M  END
> <minimizedAffinity>
-9.69026

> <CNNscore>
0.4999960959

> <CNNaffinity>
6.8986349106

> <CNN_VS>
3.4492905140

> <CNNaffinity_variance>
0.3858843446

$$$$
[H]Oc1c([H])c([H])c([C@]2([H])Oc3c([H])c([H])c(O[H])c([H])c3[C@]3([H])C([H])([H])C([H])([H])C([H])([H])[C@]23[H])c([H])c1[H]


 23 26  0  0  0  0  0  0  0  0999 V2000
    7.7534   45.7413  131.2899 C   0  0  0  0  0  0  0  0  0  0  0  0
    6.7288   46.4401  130.6371 O   0  0  0  0  0  0  0  0  0  0  0  0
    6.7870   47.7423  130.2133 C   0  0  0  0  0  0  0  0  0  0  0  0
    5.8821   48.2205  129.2652 C   0  0  0  0  0  0  0  0  0  0  0  0
    5.9665   49.5354  128.8594 C   0  0  0  0  0  0  0  0  0  0  0  0
    6.9498   50.3386  129.4086 C   0  0  0  0  0  0  0  0  0  0  0  0
    6.9910   51.6611  128.9630 O   0  0  0  0  0  0  0  0  0  0  0  0
    7.8454   49.8662  130.3465 C   0  0  0  0  0  0  0  0  0  0  0  0
    7.7548   48.5577  130.7448 C   0  0  0  0  0  0  0  0  0  0  0  0
    8.6931   48.0558  131.7299 C   0  0  0  0  0  0  0  0  0  0  0  0
   10.1533   48.2602  131.2996 C   0  0  0  0  0  0  0  0  0  0  0  0
   10.8506   47.3937  132.3536 C   0  0  0  0  0  0  0  0  0  0  0  0
   10.0529   46.1086  132.2023 C   0  0  0  0  0  0  0  0  0  0  0  0
    8.6197   46.6268  132.0990 C   0  0  0  0  0  0  0  0  0  0  0  0
    7.5568   51.9228  128.1524 H   0  0  0  0  0  0  0  0  0  0  0  0
   10.5233   42.2840  127.7423 O   0  0  0  0  0  0  0  0  0  0  0  0
    9.8372   43.1067  128.6250 C   0  0  0  0  0  0  0  0  0  0  0  0
    9.8496   44.4597  128.4015 C   0  0  0  0  0  0  0  0  0  0  0  0
    9.1806   45.2866  129.2584 C   0  0  0  0  0  0  0  0  0  0  0  0
    8.4769   44.8386  130.3599 C   0  0  0  0  0  0  0  0  0  0  0  0
    8.4575   43.4823  130.5943 C   0  0  0  0  0  0  0  0  0  0  0  0
    9.1410   42.6288  129.7202 C   0  0  0  0  0  0  0  0  0  0  0  0
   10.5439   41.2682  127.8662 H   0  0  0  0  0  0  0  0  0  0  0  0
 16 17  1  0  0  0
 17 18  2  0  0  0
 18 19  1  0  0  0
 19 20  2  0  0  0
 20 21  1  0  0  0
 21 22  2  0  0  0
 20  1  1  0  0  0
  1  2  1  0  0  0
  2  3  1  0  0  0
  3  4  2  0  0  0
  4  5  1  0  0  0
  5  6  2  0  0  0
  6  7  1  0  0  0
  6  8  1  0  0  0
  8  9  2  0  0  0
  9 10  1  0  0  0
 10 11  1  0  0  0
 11 12  1  0  0  0
 12 13  1  0  0  0
 13 14  1  0  0  0
 22 17  1  0  0  0
 14  1  1  0  0  0
  9  3  1  0  0  0
 14 10  1  0  0  0
 16 23  1  0  0  0
  7 15  1  0  0  0
M  END
> <minimizedAffinity>
-7.21612

> <CNNscore>
0.3757094741

> <CNNaffinity>
6.8169975281

> <CNN_VS>
2.5612106323

> <CNNaffinity_variance>
0.4680116773

$$$$
[H]Oc1c([H])c([H])c([C@]2([H])Oc3c([H])c([H])c(O[H])c([H])c3[C@]3([H])C([H])([H])C([H])([H])C([H])([H])[C@]23[H])c([H])c1[H]


 23 26  0  0  0  0  0  0  0  0999 V2000
    8.1386   45.8461  131.0934 C   0  0  0  0  0  0  0  0  0  0  0  0
    9.2175   45.8721  131.9876 O   0  0  0  0  0  0  0  0  0  0  0  0
   10.4920   45.4425  131.7229 C   0  0  0  0  0  0  0  0  0  0  0  0
   11.5576   45.8454  132.5281 C   0  0  0  0  0  0  0  0  0  0  0  0
   12.8277   45.3960  132.2358 C   0  0  0  0  0  0  0  0  0  0  0  0
   13.0025   44.5577  131.1494 C   0  0  0  0  0  0  0  0  0  0  0  0
   14.3083   44.1322  130.8981 O   0  0  0  0  0  0  0  0  0  0  0  0
   11.9488   44.1587  130.3524 C   0  0  0  0  0  0  0  0  0  0  0  0
   10.6890   44.6098  130.6497 C   0  0  0  0  0  0  0  0  0  0  0  0
    9.5779   44.1940  129.8156 C   0  0  0  0  0  0  0  0  0  0  0  0
    9.8033   44.5334  128.3348 C   0  0  0  0  0  0  0  0  0  0  0  0
    8.3952   44.2598  127.7961 C   0  0  0  0  0  0  0  0  0  0  0  0
    7.5769   45.0807  128.7796 C   0  0  0  0  0  0  0  0  0  0  0  0
    8.2382   44.7415  130.1141 C   0  0  0  0  0  0  0  0  0  0  0  0
   14.9254   44.6708  130.2858 H   0  0  0  0  0  0  0  0  0  0  0  0
    7.1802   50.9679  128.8440 O   0  0  0  0  0  0  0  0  0  0  0  0
    7.4402   49.7243  129.4032 C   0  0  0  0  0  0  0  0  0  0  0  0
    6.4987   48.7365  129.2670 C   0  0  0  0  0  0  0  0  0  0  0  0
    6.7353   47.5057  129.8100 C   0  0  0  0  0  0  0  0  0  0  0  0
    7.8869   47.1844  130.5028 C   0  0  0  0  0  0  0  0  0  0  0  0
    8.8391   48.1680  130.6457 C   0  0  0  0  0  0  0  0  0  0  0  0
    8.6033   49.4319  130.0919 C   0  0  0  0  0  0  0  0  0  0  0  0
    7.8512   51.7372  128.9185 H   0  0  0  0  0  0  0  0  0  0  0  0
 16 17  1  0  0  0
 17 18  2  0  0  0
 18 19  1  0  0  0
 19 20  2  0  0  0
 20 21  1  0  0  0
 21 22  2  0  0  0
 20  1  1  0  0  0
  1  2  1  0  0  0
  2  3  1  0  0  0
  3  4  2  0  0  0
  4  5  1  0  0  0
  5  6  2  0  0  0
  6  7  1  0  0  0
  6  8  1  0  0  0
  8  9  2  0  0  0
  9 10  1  0  0  0
 10 11  1  0  0  0
 11 12  1  0  0  0
 12 13  1  0  0  0
 13 14  1  0  0  0
 22 17  1  0  0  0
 14  1  1  0  0  0
  9  3  1  0  0  0
 14 10  1  0  0  0
 16 23  1  0  0  0
  7 15  1  0  0  0
M  END
> <minimizedAffinity>
-4.07615

> <CNNscore>
0.3290420473

> <CNNaffinity>
6.8672461510

> <CNN_VS>
2.2596127987

> <CNNaffinity_variance>
1.2989393473

$$$$
[H]Oc1c([H])c([H])c([C@]2([H])Oc3c([H])c([H])c(O[H])c([H])c3[C@]3([H])C([H])([H])C([H])([H])C([H])([H])[C@]23[H])c([H])c1[H]


 23 26  0  0  0  0  0  0  0  0999 V2000
    7.8120   44.8001  130.8410 C   0  0  0  0  0  0  0  0  0  0  0  0
    8.1979   44.8092  132.1884 O   0  0  0  0  0  0  0  0  0  0  0  0
    9.4500   44.5249  132.6684 C   0  0  0  0  0  0  0  0  0  0  0  0
    9.8221   44.9164  133.9546 C   0  0  0  0  0  0  0  0  0  0  0  0
   11.0887   44.6155  134.4083 C   0  0  0  0  0  0  0  0  0  0  0  0
   11.9506   43.9329  133.5688 C   0  0  0  0  0  0  0  0  0  0  0  0
   13.2205   43.6537  134.0776 O   0  0  0  0  0  0  0  0  0  0  0  0
   11.5832   43.5453  132.2962 C   0  0  0  0  0  0  0  0  0  0  0  0
   10.3221   43.8482  131.8526 C   0  0  0  0  0  0  0  0  0  0  0  0
    9.9304   43.4435  130.5162 C   0  0  0  0  0  0  0  0  0  0  0  0
   10.8895   43.9778  129.4421 C   0  0  0  0  0  0  0  0  0  0  0  0
   10.0706   43.6527  128.1884 C   0  0  0  0  0  0  0  0  0  0  0  0
    8.7401   44.2757  128.5787 C   0  0  0  0  0  0  0  0  0  0  0  0
    8.5898   43.8348  130.0334 C   0  0  0  0  0  0  0  0  0  0  0  0
   13.9917   44.3130  133.9504 H   0  0  0  0  0  0  0  0  0  0  0  0
    7.5594   50.0490  128.6972 O   0  0  0  0  0  0  0  0  0  0  0  0
    7.5932   48.7620  129.2161 C   0  0  0  0  0  0  0  0  0  0  0  0
    8.7791   48.2906  129.7184 C   0  0  0  0  0  0  0  0  0  0  0  0
    8.8335   47.0268  130.2336 C   0  0  0  0  0  0  0  0  0  0  0  0
    7.7475   46.1738  130.2825 C   0  0  0  0  0  0  0  0  0  0  0  0
    6.5519   46.6362  129.7812 C   0  0  0  0  0  0  0  0  0  0  0  0
    6.4887   47.9305  129.2516 C   0  0  0  0  0  0  0  0  0  0  0  0
    6.6987   50.4460  128.3110 H   0  0  0  0  0  0  0  0  0  0  0  0
 16 17  1  0  0  0
 17 18  2  0  0  0
 18 19  1  0  0  0
 19 20  2  0  0  0
 20 21  1  0  0  0
 21 22  2  0  0  0
 20  1  1  0  0  0
  1  2  1  0  0  0
  2  3  1  0  0  0
  3  4  2  0  0  0
  4  5  1  0  0  0
  5  6  2  0  0  0
  6  7  1  0  0  0
  6  8  1  0  0  0
  8  9  2  0  0  0
  9 10  1  0  0  0
 10 11  1  0  0  0
 11 12  1  0  0  0
 12 13  1  0  0  0
 13 14  1  0  0  0
 22 17  1  0  0  0
 14  1  1  0  0  0
  9  3  1  0  0  0
 14 10  1  0  0  0
 16 23  1  0  0  0
  7 15  1  0  0  0
M  END
> <minimizedAffinity>
-9.94465

> <CNNscore>
0.3164387643

> <CNNaffinity>
6.8943128586

> <CNN_VS>
2.1816277504

> <CNNaffinity_variance>
0.3336218894

$$$$
[H]Oc1c([H])c([H])c([C@]2([H])Oc3c([H])c([H])c(O[H])c([H])c3[C@]3([H])C([H])([H])C([H])([H])C([H])([H])[C@]23[H])c([H])c1[H]


 23 26  0  0  0  0  0  0  0  0999 V2000
    8.0514   45.4898  131.0421 C   0  0  0  0  0  0  0  0  0  0  0  0
    7.7567   46.8310  130.7615 O   0  0  0  0  0  0  0  0  0  0  0  0
    8.3196   47.9225  131.3704 C   0  0  0  0  0  0  0  0  0  0  0  0
    8.2414   49.1834  130.7787 C   0  0  0  0  0  0  0  0  0  0  0  0
    8.8177   50.2615  131.4162 C   0  0  0  0  0  0  0  0  0  0  0  0
    9.4564   50.0548  132.6257 C   0  0  0  0  0  0  0  0  0  0  0  0
   10.0225   51.1797  133.2283 O   0  0  0  0  0  0  0  0  0  0  0  0
    9.5342   48.8076  133.2117 C   0  0  0  0  0  0  0  0  0  0  0  0
    8.9587   47.7409  132.5715 C   0  0  0  0  0  0  0  0  0  0  0  0
    9.0373   46.4280  133.1824 C   0  0  0  0  0  0  0  0  0  0  0  0
   10.4857   46.0076  133.4732 C   0  0  0  0  0  0  0  0  0  0  0  0
   10.2565   44.5308  133.8119 C   0  0  0  0  0  0  0  0  0  0  0  0
    9.4369   44.1113  132.6024 C   0  0  0  0  0  0  0  0  0  0  0  0
    8.4666   45.2806  132.4467 C   0  0  0  0  0  0  0  0  0  0  0  0
   10.9889   51.4492  133.0299 H   0  0  0  0  0  0  0  0  0  0  0  0
   11.5439   43.2740  127.1558 O   0  0  0  0  0  0  0  0  0  0  0  0
   10.7073   43.8385  128.1088 C   0  0  0  0  0  0  0  0  0  0  0  0
    9.5813   43.1494  128.4806 C   0  0  0  0  0  0  0  0  0  0  0  0
    8.7450   43.6875  129.4169 C   0  0  0  0  0  0  0  0  0  0  0  0
    8.9645   44.9078  130.0269 C   0  0  0  0  0  0  0  0  0  0  0  0
   10.0916   45.6084  129.6616 C   0  0  0  0  0  0  0  0  0  0  0  0
   10.9533   45.0630  128.7026 C   0  0  0  0  0  0  0  0  0  0  0  0
   12.3958   43.7489  126.8454 H   0  0  0  0  0  0  0  0  0  0  0  0
 16 17  1  0  0  0
 17 18  2  0  0  0
 18 19  1  0  0  0
 19 20  2  0  0  0
 20 21  1  0  0  0
 21 22  2  0  0  0
 20  1  1  0  0  0
  1  2  1  0  0  0
  2  3  1  0  0  0
  3  4  2  0  0  0
  4  5  1  0  0  0
  5  6  2  0  0  0
  6  7  1  0  0  0
  6  8  1  0  0  0
  8  9  2  0  0  0
  9 10  1  0  0  0
 10 11  1  0  0  0
 11 12  1  0  0  0
 12 13  1  0  0  0
 13 14  1  0  0  0
 22 17  1  0  0  0
 14  1  1  0  0  0
  9  3  1  0  0  0
 14 10  1  0  0  0
 16 23  1  0  0  0
  7 15  1  0  0  0
M  END
> <minimizedAffinity>
-5.66955

> <CNNscore>
0.2943971455

> <CNNaffinity>
6.7676591873

> <CNN_VS>
1.9923795462

> <CNNaffinity_variance>
1.1877151728

$$$$
[H]Oc1c([H])c([H])c([C@@]2([H])Sc3c([H])c(O[H])c([H])c([H])c3O[C@@]2([H])c2c([H])c([H])c(OC([H])([H])C([H])([H])N3C([H])([H])C([H])([H])C([H])([H])C([H])([H])C([H])([H])C3([H])[H])c([H])c2[H])c([H])c1[H]


 36 40  0  0  0  0  0  0  0  0999 V2000
    8.9771   44.1397  129.6467 C   0  0  0  0  0  0  0  0  0  0  0  0
    8.7993   42.5209  130.4379 S   0  0  0  0  0  0  0  0  0  0  0  0
    8.2428   42.7650  132.1100 C   0  0  0  0  0  0  0  0  0  0  0  0
    7.9591   41.6800  132.9454 C   0  0  0  0  0  0  0  0  0  0  0  0
    7.5328   41.8216  134.2462 C   0  0  0  0  0  0  0  0  0  0  0  0
    7.2711   40.6837  135.0144 O   0  0  0  0  0  0  0  0  0  0  0  0
    7.3828   43.1017  134.7352 C   0  0  0  0  0  0  0  0  0  0  0  0
    7.6614   44.1736  133.9144 C   0  0  0  0  0  0  0  0  0  0  0  0
    8.0892   44.0553  132.6092 C   0  0  0  0  0  0  0  0  0  0  0  0
    8.3710   45.1462  131.7798 O   0  0  0  0  0  0  0  0  0  0  0  0
    8.1352   45.0922  130.4071 C   0  0  0  0  0  0  0  0  0  0  0  0
    6.3604   40.2450  135.0500 H   0  0  0  0  0  0  0  0  0  0  0  0
   14.4701   45.3272  128.9421 O   0  0  0  0  0  0  0  0  0  0  0  0
   13.1036   45.0381  129.0896 C   0  0  0  0  0  0  0  0  0  0  0  0
   12.6635   44.6859  130.3371 C   0  0  0  0  0  0  0  0  0  0  0  0
   11.3134   44.3964  130.4999 C   0  0  0  0  0  0  0  0  0  0  0  0
   10.3924   44.4396  129.4980 C   0  0  0  0  0  0  0  0  0  0  0  0
   10.8905   44.8047  128.2433 C   0  0  0  0  0  0  0  0  0  0  0  0
   12.2184   45.0954  128.0549 C   0  0  0  0  0  0  0  0  0  0  0  0
   14.7121   46.3018  129.0910 H   0  0  0  0  0  0  0  0  0  0  0  0
    8.0608   46.4474  129.8183 C   0  0  0  0  0  0  0  0  0  0  0  0
    9.0162   47.3898  129.9870 C   0  0  0  0  0  0  0  0  0  0  0  0
    8.9064   48.6366  129.4156 C   0  0  0  0  0  0  0  0  0  0  0  0
    7.7985   49.0047  128.6248 C   0  0  0  0  0  0  0  0  0  0  0  0
    6.8359   48.0381  128.4603 C   0  0  0  0  0  0  0  0  0  0  0  0
    6.9657   46.7694  129.0527 C   0  0  0  0  0  0  0  0  0  0  0  0
    7.7745   50.2669  128.0942 O   0  0  0  0  0  0  0  0  0  0  0  0
    6.8271   51.2442  128.1894 C   0  0  0  0  0  0  0  0  0  0  0  0
    7.3984   52.6313  128.2685 C   0  0  0  0  0  0  0  0  0  0  0  0
    7.3683   53.2053  126.9322 N   0  0  0  0  0  0  0  0  0  0  0  0
    8.2579   54.3472  126.8542 C   0  0  0  0  0  0  0  0  0  0  0  0
    8.8596   54.5144  125.5033 C   0  0  0  0  0  0  0  0  0  0  0  0
    8.0667   53.8744  124.3920 C   0  0  0  0  0  0  0  0  0  0  0  0
    6.6990   54.4430  124.2155 C   0  0  0  0  0  0  0  0  0  0  0  0
    5.9439   54.6386  125.5121 C   0  0  0  0  0  0  0  0  0  0  0  0
    6.0537   53.4818  126.4509 C   0  0  0  0  0  0  0  0  0  0  0  0
 13 14  1  0  0  0
 14 15  2  0  0  0
 15 16  1  0  0  0
 16 17  2  0  0  0
 17 18  1  0  0  0
 18 19  2  0  0  0
 17  1  1  0  0  0
  1  2  1  0  0  0
  2  3  1  0  0  0
  3  4  2  0  0  0
  4  5  1  0  0  0
  5  6  1  0  0  0
  5  7  2  0  0  0
  7  8  1  0  0  0
  8  9  2  0  0  0
  9 10  1  0  0  0
 10 11  1  0  0  0
 11 21  1  0  0  0
 21 22  2  0  0  0
 22 23  1  0  0  0
 23 24  2  0  0  0
 24 27  1  0  0  0
 27 28  1  0  0  0
 28 29  1  0  0  0
 29 30  1  0  0  0
 30 31  1  0  0  0
 31 32  1  0  0  0
 32 33  1  0  0  0
 33 34  1  0  0  0
 34 35  1  0  0  0
 35 36  1  0  0  0
 24 25  1  0  0  0
 25 26  2  0  0  0
 19 14  1  0  0  0
 11  1  1  0  0  0
 26 21  1  0  0  0
  9  3  1  0  0  0
 36 30  1  0  0  0
 13 20  1  0  0  0
  6 12  1  0  0  0
M  END
> <minimizedAffinity>
14.52714

> <CNNscore>
0.4342007637

> <CNNaffinity>
6.9354910851

> <CNN_VS>
3.0113954544

> <CNNaffinity_variance>
1.1530961990

$$$$
[H]Oc1c([H])c([H])c([C@@]2([H])Sc3c([H])c(O[H])c([H])c([H])c3O[C@@]2([H])c2c([H])c([H])c(OC([H])([H])C([H])([H])N3C([H])([H])C([H])([H])C([H])([H])C([H])([H])C([H])([H])C3([H])[H])c([H])c2[H])c([H])c1[H]


 36 40  0  0  0  0  0  0  0  0999 V2000
    8.0569   45.6956  129.6398 C   0  0  0  0  0  0  0  0  0  0  0  0
    8.4698   44.8642  128.0853 S   0  0  0  0  0  0  0  0  0  0  0  0
   10.2157   44.5224  128.0712 C   0  0  0  0  0  0  0  0  0  0  0  0
   10.8098   43.8268  127.0135 C   0  0  0  0  0  0  0  0  0  0  0  0
   12.1559   43.5462  126.9577 C   0  0  0  0  0  0  0  0  0  0  0  0
   12.6700   42.8454  125.8631 O   0  0  0  0  0  0  0  0  0  0  0  0
   12.9440   43.9781  128.0030 C   0  0  0  0  0  0  0  0  0  0  0  0
   12.3616   44.6639  129.0474 C   0  0  0  0  0  0  0  0  0  0  0  0
   11.0165   44.9558  129.1241 C   0  0  0  0  0  0  0  0  0  0  0  0
   10.4297   45.6524  130.1861 O   0  0  0  0  0  0  0  0  0  0  0  0
    9.1310   45.3713  130.6070 C   0  0  0  0  0  0  0  0  0  0  0  0
   12.7353   41.8363  125.8410 H   0  0  0  0  0  0  0  0  0  0  0  0
    6.8459   51.1201  128.5501 O   0  0  0  0  0  0  0  0  0  0  0  0
    7.1192   49.7683  128.8161 C   0  0  0  0  0  0  0  0  0  0  0  0
    8.4081   49.4354  129.1349 C   0  0  0  0  0  0  0  0  0  0  0  0
    8.6954   48.1013  129.4010 C   0  0  0  0  0  0  0  0  0  0  0  0
    7.7774   47.0963  129.3663 C   0  0  0  0  0  0  0  0  0  0  0  0
    6.4756   47.4867  129.0363 C   0  0  0  0  0  0  0  0  0  0  0  0
    6.1649   48.7964  128.7690 C   0  0  0  0  0  0  0  0  0  0  0  0
    6.5797   51.6635  129.3653 H   0  0  0  0  0  0  0  0  0  0  0  0
    8.8886   45.8683  131.9793 C   0  0  0  0  0  0  0  0  0  0  0  0
    8.2355   45.1586  132.9274 C   0  0  0  0  0  0  0  0  0  0  0  0
    8.0375   45.6602  134.1933 C   0  0  0  0  0  0  0  0  0  0  0  0
    8.5004   46.9360  134.5759 C   0  0  0  0  0  0  0  0  0  0  0  0
    9.1632   47.6460  133.6039 C   0  0  0  0  0  0  0  0  0  0  0  0
    9.3555   47.1165  132.3155 C   0  0  0  0  0  0  0  0  0  0  0  0
    8.2598   47.3528  135.8579 O   0  0  0  0  0  0  0  0  0  0  0  0
    9.0710   47.3396  136.9550 C   0  0  0  0  0  0  0  0  0  0  0  0
    9.7182   46.0081  137.2095 C   0  0  0  0  0  0  0  0  0  0  0  0
   10.3848   45.5924  135.9853 N   0  0  0  0  0  0  0  0  0  0  0  0
   11.0809   44.3376  136.1917 C   0  0  0  0  0  0  0  0  0  0  0  0
   11.1267   43.4983  134.9635 C   0  0  0  0  0  0  0  0  0  0  0  0
   10.9667   44.2740  133.6806 C   0  0  0  0  0  0  0  0  0  0  0  0
   12.0462   45.2740  133.4360 C   0  0  0  0  0  0  0  0  0  0  0  0
   12.3976   46.1066  134.6496 C   0  0  0  0  0  0  0  0  0  0  0  0
   11.2066   46.6029  135.4023 C   0  0  0  0  0  0  0  0  0  0  0  0
 13 14  1  0  0  0
 14 15  2  0  0  0
 15 16  1  0  0  0
 16 17  2  0  0  0
 17 18  1  0  0  0
 18 19  2  0  0  0
 17  1  1  0  0  0
  1  2  1  0  0  0
  2  3  1  0  0  0
  3  4  2  0  0  0
  4  5  1  0  0  0
  5  6  1  0  0  0
  5  7  2  0  0  0
  7  8  1  0  0  0
  8  9  2  0  0  0
  9 10  1  0  0  0
 10 11  1  0  0  0
 11 21  1  0  0  0
 21 22  2  0  0  0
 22 23  1  0  0  0
 23 24  2  0  0  0
 24 27  1  0  0  0
 27 28  1  0  0  0
 28 29  1  0  0  0
 29 30  1  0  0  0
 30 31  1  0  0  0
 31 32  1  0  0  0
 32 33  1  0  0  0
 33 34  1  0  0  0
 34 35  1  0  0  0
 35 36  1  0  0  0
 24 25  1  0  0  0
 25 26  2  0  0  0
 19 14  1  0  0  0
 11  1  1  0  0  0
 26 21  1  0  0  0
  9  3  1  0  0  0
 36 30  1  0  0  0
 13 20  1  0  0  0
  6 12  1  0  0  0
M  END
> <minimizedAffinity>
14.82378

> <CNNscore>
0.4087608457

> <CNNaffinity>
7.6791129112

> <CNN_VS>
3.1389207840

> <CNNaffinity_variance>
0.7851551771

$$$$
[H]Oc1c([H])c([H])c([C@@]2([H])Sc3c([H])c(O[H])c([H])c([H])c3O[C@@]2([H])c2c([H])c([H])c(OC([H])([H])C([H])([H])N3C([H])([H])C([H])([H])C([H])([H])C([H])([H])C([H])([H])C3([H])[H])c([H])c2[H])c([H])c1[H]


 36 40  0  0  0  0  0  0  0  0999 V2000
    8.8326   43.6619  129.6064 C   0  0  0  0  0  0  0  0  0  0  0  0
    8.6664   42.0443  130.4028 S   0  0  0  0  0  0  0  0  0  0  0  0
    8.1237   42.2905  132.0791 C   0  0  0  0  0  0  0  0  0  0  0  0
    7.8505   41.2065  132.9193 C   0  0  0  0  0  0  0  0  0  0  0  0
    7.4351   41.3498  134.2234 C   0  0  0  0  0  0  0  0  0  0  0  0
    7.1834   40.2129  134.9964 O   0  0  0  0  0  0  0  0  0  0  0  0
    7.2854   42.6306  134.7109 C   0  0  0  0  0  0  0  0  0  0  0  0
    7.5537   43.7015  133.8853 C   0  0  0  0  0  0  0  0  0  0  0  0
    7.9705   43.5815  132.5767 C   0  0  0  0  0  0  0  0  0  0  0  0
    8.2418   44.6713  131.7424 O   0  0  0  0  0  0  0  0  0  0  0  0
    7.9943   44.6135  130.3720 C   0  0  0  0  0  0  0  0  0  0  0  0
    6.2744   39.7715  135.0409 H   0  0  0  0  0  0  0  0  0  0  0  0
   14.3165   44.8597  128.8510 O   0  0  0  0  0  0  0  0  0  0  0  0
   12.9522   44.5670  129.0110 C   0  0  0  0  0  0  0  0  0  0  0  0
   12.5156   44.2599  130.2714 C   0  0  0  0  0  0  0  0  0  0  0  0
   11.1676   43.9675  130.4467 C   0  0  0  0  0  0  0  0  0  0  0  0
   10.2455   43.9657  129.4449 C   0  0  0  0  0  0  0  0  0  0  0  0
   10.7401   44.2858  128.1765 C   0  0  0  0  0  0  0  0  0  0  0  0
   12.0658   44.5783  127.9757 C   0  0  0  0  0  0  0  0  0  0  0  0
   14.5518   45.8410  128.9621 H   0  0  0  0  0  0  0  0  0  0  0  0
    7.9107   45.9672  129.7808 C   0  0  0  0  0  0  0  0  0  0  0  0
    8.9919   46.6859  129.4016 C   0  0  0  0  0  0  0  0  0  0  0  0
    8.8654   47.9405  128.8511 C   0  0  0  0  0  0  0  0  0  0  0  0
    7.6091   48.5488  128.6506 C   0  0  0  0  0  0  0  0  0  0  0  0
    6.5191   47.8078  129.0389 C   0  0  0  0  0  0  0  0  0  0  0  0
    6.6687   46.5271  129.6001 C   0  0  0  0  0  0  0  0  0  0  0  0
    7.5786   49.7997  128.0942 O   0  0  0  0  0  0  0  0  0  0  0  0
    7.4566   51.0235  128.6852 C   0  0  0  0  0  0  0  0  0  0  0  0
    6.9739   50.9608  130.1063 C   0  0  0  0  0  0  0  0  0  0  0  0
    7.9772   50.2570  130.8898 N   0  0  0  0  0  0  0  0  0  0  0  0
    7.3453   49.4875  131.9435 C   0  0  0  0  0  0  0  0  0  0  0  0
    8.0925   48.2431  132.2720 C   0  0  0  0  0  0  0  0  0  0  0  0
    9.5520   48.2830  131.8958 C   0  0  0  0  0  0  0  0  0  0  0  0
   10.3349   49.3344  132.6076 C   0  0  0  0  0  0  0  0  0  0  0  0
    9.6483   50.6818  132.6582 C   0  0  0  0  0  0  0  0  0  0  0  0
    9.0349   51.0920  131.3593 C   0  0  0  0  0  0  0  0  0  0  0  0
 13 14  1  0  0  0
 14 15  2  0  0  0
 15 16  1  0  0  0
 16 17  2  0  0  0
 17 18  1  0  0  0
 18 19  2  0  0  0
 17  1  1  0  0  0
  1  2  1  0  0  0
  2  3  1  0  0  0
  3  4  2  0  0  0
  4  5  1  0  0  0
  5  6  1  0  0  0
  5  7  2  0  0  0
  7  8  1  0  0  0
  8  9  2  0  0  0
  9 10  1  0  0  0
 10 11  1  0  0  0
 11 21  1  0  0  0
 21 22  2  0  0  0
 22 23  1  0  0  0
 23 24  2  0  0  0
 24 27  1  0  0  0
 27 28  1  0  0  0
 28 29  1  0  0  0
 29 30  1  0  0  0
 30 31  1  0  0  0
 31 32  1  0  0  0
 32 33  1  0  0  0
 33 34  1  0  0  0
 34 35  1  0  0  0
 35 36  1  0  0  0
 24 25  1  0  0  0
 25 26  2  0  0  0
 19 14  1  0  0  0
 11  1  1  0  0  0
 26 21  1  0  0  0
  9  3  1  0  0  0
 36 30  1  0  0  0
 13 20  1  0  0  0
  6 12  1  0  0  0
M  END
> <minimizedAffinity>
13.60450

> <CNNscore>
0.3221274018

> <CNNaffinity>
7.2673521042

> <CNN_VS>
2.3410131931

> <CNNaffinity_variance>
0.5173918009

$$$$
[H]Oc1c([H])c([H])c([C@@]2([H])Sc3c([H])c(O[H])c([H])c([H])c3O[C@@]2([H])c2c([H])c([H])c(OC([H])([H])C([H])([H])N3C([H])([H])C([H])([H])C([H])([H])C([H])([H])C([H])([H])C3([H])[H])c([H])c2[H])c([H])c1[H]


 36 40  0  0  0  0  0  0  0  0999 V2000
    9.0584   44.7010  131.3302 C   0  0  0  0  0  0  0  0  0  0  0  0
    7.8561   45.9048  131.9495 S   0  0  0  0  0  0  0  0  0  0  0  0
    7.7513   47.2497  130.7896 C   0  0  0  0  0  0  0  0  0  0  0  0
    6.8504   48.3023  130.9795 C   0  0  0  0  0  0  0  0  0  0  0  0
    6.7398   49.3654  130.1125 C   0  0  0  0  0  0  0  0  0  0  0  0
    5.8127   50.3775  130.3763 O   0  0  0  0  0  0  0  0  0  0  0  0
    7.5639   49.3790  129.0075 C   0  0  0  0  0  0  0  0  0  0  0  0
    8.4531   48.3429  128.8171 C   0  0  0  0  0  0  0  0  0  0  0  0
    8.5807   47.2688  129.6719 C   0  0  0  0  0  0  0  0  0  0  0  0
    9.4848   46.2194  129.4747 O   0  0  0  0  0  0  0  0  0  0  0  0
    9.1809   44.9179  129.8700 C   0  0  0  0  0  0  0  0  0  0  0  0
    4.8610   50.3504  130.0350 H   0  0  0  0  0  0  0  0  0  0  0  0
   13.7795   45.1133  134.4320 O   0  0  0  0  0  0  0  0  0  0  0  0
   12.6141   45.0363  133.6519 C   0  0  0  0  0  0  0  0  0  0  0  0
   11.8408   43.9142  133.7805 C   0  0  0  0  0  0  0  0  0  0  0  0
   10.6838   43.8224  133.0150 C   0  0  0  0  0  0  0  0  0  0  0  0
   10.2636   44.7778  132.1405 C   0  0  0  0  0  0  0  0  0  0  0  0
   11.0867   45.9044  132.0450 C   0  0  0  0  0  0  0  0  0  0  0  0
   12.2340   46.0204  132.7889 C   0  0  0  0  0  0  0  0  0  0  0  0
   13.6483   45.5433  135.3423 H   0  0  0  0  0  0  0  0  0  0  0  0
   10.0340   43.9292  129.1745 C   0  0  0  0  0  0  0  0  0  0  0  0
   10.4476   42.7709  129.7370 C   0  0  0  0  0  0  0  0  0  0  0  0
   11.2372   41.8783  129.0494 C   0  0  0  0  0  0  0  0  0  0  0  0
   11.6602   42.1157  127.7253 C   0  0  0  0  0  0  0  0  0  0  0  0
   11.2321   43.2952  127.1651 C   0  0  0  0  0  0  0  0  0  0  0  0
   10.4257   44.1952  127.8842 C   0  0  0  0  0  0  0  0  0  0  0  0
   12.4431   41.1706  127.1179 O   0  0  0  0  0  0  0  0  0  0  0  0
   12.1444   40.2880  126.1211 C   0  0  0  0  0  0  0  0  0  0  0  0
   11.1309   39.2523  126.5172 C   0  0  0  0  0  0  0  0  0  0  0  0
   10.1924   39.0997  125.4164 N   0  0  0  0  0  0  0  0  0  0  0  0
    9.1046   38.2215  125.7998 C   0  0  0  0  0  0  0  0  0  0  0  0
    7.8208   38.5746  125.1348 C   0  0  0  0  0  0  0  0  0  0  0  0
    7.9840   39.3487  123.8513 C   0  0  0  0  0  0  0  0  0  0  0  0
    8.7149   38.6074  122.7829 C   0  0  0  0  0  0  0  0  0  0  0  0
    9.9616   37.9012  123.2692 C   0  0  0  0  0  0  0  0  0  0  0  0
   10.8046   38.7314  124.1811 C   0  0  0  0  0  0  0  0  0  0  0  0
 13 14  1  0  0  0
 14 15  2  0  0  0
 15 16  1  0  0  0
 16 17  2  0  0  0
 17 18  1  0  0  0
 18 19  2  0  0  0
 17  1  1  0  0  0
  1  2  1  0  0  0
  2  3  1  0  0  0
  3  4  2  0  0  0
  4  5  1  0  0  0
  5  6  1  0  0  0
  5  7  2  0  0  0
  7  8  1  0  0  0
  8  9  2  0  0  0
  9 10  1  0  0  0
 10 11  1  0  0  0
 11 21  1  0  0  0
 21 22  2  0  0  0
 22 23  1  0  0  0
 23 24  2  0  0  0
 24 27  1  0  0  0
 27 28  1  0  0  0
 28 29  1  0  0  0
 29 30  1  0  0  0
 30 31  1  0  0  0
 31 32  1  0  0  0
 32 33  1  0  0  0
 33 34  1  0  0  0
 34 35  1  0  0  0
 35 36  1  0  0  0
 24 25  1  0  0  0
 25 26  2  0  0  0
 19 14  1  0  0  0
 11  1  1  0  0  0
 26 21  1  0  0  0
  9  3  1  0  0  0
 36 30  1  0  0  0
 13 20  1  0  0  0
  6 12  1  0  0  0
M  END
> <minimizedAffinity>
40.08007

> <CNNscore>
0.2954162657

> <CNNaffinity>
7.0847978592

> <CNN_VS>
2.0929644108

> <CNNaffinity_variance>
0.5983857512

$$$$
[H]Oc1c([H])c([H])c([C@@]2([H])Sc3c([H])c(O[H])c([H])c([H])c3O[C@@]2([H])c2c([H])c([H])c(OC([H])([H])C([H])([H])N3C([H])([H])C([H])([H])C([H])([H])C([H])([H])C([H])([H])C3([H])[H])c([H])c2[H])c([H])c1[H]


 36 40  0  0  0  0  0  0  0  0999 V2000
    9.8739   47.4404  129.2149 C   0  0  0  0  0  0  0  0  0  0  0  0
    8.8223   48.3984  128.0948 S   0  0  0  0  0  0  0  0  0  0  0  0
    7.3003   48.7797  128.9332 C   0  0  0  0  0  0  0  0  0  0  0  0
    6.3168   49.5681  128.3276 C   0  0  0  0  0  0  0  0  0  0  0  0
    5.1229   49.8827  128.9356 C   0  0  0  0  0  0  0  0  0  0  0  0
    4.1926   50.6773  128.2599 O   0  0  0  0  0  0  0  0  0  0  0  0
    4.9004   49.3893  130.2035 C   0  0  0  0  0  0  0  0  0  0  0  0
    5.8678   48.6120  130.8035 C   0  0  0  0  0  0  0  0  0  0  0  0
    7.0700   48.2846  130.2137 C   0  0  0  0  0  0  0  0  0  0  0  0
    8.0491   47.4950  130.8265 O   0  0  0  0  0  0  0  0  0  0  0  0
    9.4058   47.7134  130.5936 C   0  0  0  0  0  0  0  0  0  0  0  0
    4.1819   51.6863  128.3291 H   0  0  0  0  0  0  0  0  0  0  0  0
    9.8924   42.0502  127.4756 O   0  0  0  0  0  0  0  0  0  0  0  0
    9.8602   43.3850  127.9114 C   0  0  0  0  0  0  0  0  0  0  0  0
   11.0392   44.0804  127.9045 C   0  0  0  0  0  0  0  0  0  0  0  0
   11.0244   45.4030  128.3331 C   0  0  0  0  0  0  0  0  0  0  0  0
    9.9109   46.0590  128.7618 C   0  0  0  0  0  0  0  0  0  0  0  0
    8.7320   45.3067  128.7499 C   0  0  0  0  0  0  0  0  0  0  0  0
    8.7187   43.9996  128.3320 C   0  0  0  0  0  0  0  0  0  0  0  0
    9.7341   41.9290  126.4802 H   0  0  0  0  0  0  0  0  0  0  0  0
   10.2402   47.1065  131.6540 C   0  0  0  0  0  0  0  0  0  0  0  0
    9.9209   47.1397  132.9678 C   0  0  0  0  0  0  0  0  0  0  0  0
   10.7260   46.5568  133.9192 C   0  0  0  0  0  0  0  0  0  0  0  0
   11.9247   45.8940  133.5841 C   0  0  0  0  0  0  0  0  0  0  0  0
   12.2367   45.8664  132.2462 C   0  0  0  0  0  0  0  0  0  0  0  0
   11.4013   46.4683  131.2886 C   0  0  0  0  0  0  0  0  0  0  0  0
   12.6621   45.3411  134.5970 O   0  0  0  0  0  0  0  0  0  0  0  0
   12.7413   44.0475  135.0236 C   0  0  0  0  0  0  0  0  0  0  0  0
   11.4031   43.3878  135.1985 C   0  0  0  0  0  0  0  0  0  0  0  0
   10.7997   43.2423  133.8830 N   0  0  0  0  0  0  0  0  0  0  0  0
    9.5271   42.5557  133.9854 C   0  0  0  0  0  0  0  0  0  0  0  0
    8.5515   42.9987  132.9526 C   0  0  0  0  0  0  0  0  0  0  0  0
    9.1850   43.6070  131.7271 C   0  0  0  0  0  0  0  0  0  0  0  0
   10.0643   42.6706  130.9688 C   0  0  0  0  0  0  0  0  0  0  0  0
   11.0010   41.8653  131.8425 C   0  0  0  0  0  0  0  0  0  0  0  0
   11.6705   42.6715  132.9072 C   0  0  0  0  0  0  0  0  0  0  0  0
 13 14  1  0  0  0
 14 15  2  0  0  0
 15 16  1  0  0  0
 16 17  2  0  0  0
 17 18  1  0  0  0
 18 19  2  0  0  0
 17  1  1  0  0  0
  1  2  1  0  0  0
  2  3  1  0  0  0
  3  4  2  0  0  0
  4  5  1  0  0  0
  5  6  1  0  0  0
  5  7  2  0  0  0
  7  8  1  0  0  0
  8  9  2  0  0  0
  9 10  1  0  0  0
 10 11  1  0  0  0
 11 21  1  0  0  0
 21 22  2  0  0  0
 22 23  1  0  0  0
 23 24  2  0  0  0
 24 27  1  0  0  0
 27 28  1  0  0  0
 28 29  1  0  0  0
 29 30  1  0  0  0
 30 31  1  0  0  0
 31 32  1  0  0  0
 32 33  1  0  0  0
 33 34  1  0  0  0
 34 35  1  0  0  0
 35 36  1  0  0  0
 24 25  1  0  0  0
 25 26  2  0  0  0
 19 14  1  0  0  0
 11  1  1  0  0  0
 26 21  1  0  0  0
  9  3  1  0  0  0
 36 30  1  0  0  0
 13 20  1  0  0  0
  6 12  1  0  0  0
M  END
> <minimizedAffinity>
6.09097

> <CNNscore>
0.2936743796

> <CNNaffinity>
7.6363105774

> <CNN_VS>
2.2425887585

> <CNNaffinity_variance>
0.4155190587

$$$$
[H]Oc1c([H])c([H])c([C@@]2([H])Sc3c([H])c(O[H])c([H])c([H])c3O[C@@]2([H])c2c([H])c([H])c(OC([H])([H])C([H])([H])N3C([H])([H])C([H])([H])C([H])([H])C([H])([H])C([H])([H])C3([H])[H])c([H])c2[H])c([H])c1[H]


 36 40  0  0  0  0  0  0  0  0999 V2000
   10.1630   44.3122  129.5021 C   0  0  0  0  0  0  0  0  0  0  0  0
   10.3462   43.7197  127.8010 S   0  0  0  0  0  0  0  0  0  0  0  0
   12.0811   43.5770  127.4338 C   0  0  0  0  0  0  0  0  0  0  0  0
   12.5233   43.0804  126.2036 C   0  0  0  0  0  0  0  0  0  0  0  0
   13.8541   42.9587  125.8745 C   0  0  0  0  0  0  0  0  0  0  0  0
   14.2115   42.4524  124.6217 O   0  0  0  0  0  0  0  0  0  0  0  0
   14.7845   43.3495  126.8136 C   0  0  0  0  0  0  0  0  0  0  0  0
   14.3520   43.8393  128.0274 C   0  0  0  0  0  0  0  0  0  0  0  0
   13.0252   43.9698  128.3783 C   0  0  0  0  0  0  0  0  0  0  0  0
   12.5908   44.4677  129.6115 O   0  0  0  0  0  0  0  0  0  0  0  0
   11.4244   43.9973  130.2122 C   0  0  0  0  0  0  0  0  0  0  0  0
   14.3592   41.4663  124.4518 H   0  0  0  0  0  0  0  0  0  0  0  0
    8.5411   49.7383  129.4245 O   0  0  0  0  0  0  0  0  0  0  0  0
    8.9696   48.4009  129.4490 C   0  0  0  0  0  0  0  0  0  0  0  0
    8.0309   47.4325  129.2154 C   0  0  0  0  0  0  0  0  0  0  0  0
    8.4389   46.1035  129.2364 C   0  0  0  0  0  0  0  0  0  0  0  0
    9.7160   45.6958  129.4746 C   0  0  0  0  0  0  0  0  0  0  0  0
   10.6376   46.7217  129.7070 C   0  0  0  0  0  0  0  0  0  0  0  0
   10.2616   48.0414  129.6922 C   0  0  0  0  0  0  0  0  0  0  0  0
    8.5939   50.1799  128.5119 H   0  0  0  0  0  0  0  0  0  0  0  0
   11.4028   44.3001  131.6602 C   0  0  0  0  0  0  0  0  0  0  0  0
   11.0205   43.4107  132.6047 C   0  0  0  0  0  0  0  0  0  0  0  0
   11.0212   43.7356  133.9417 C   0  0  0  0  0  0  0  0  0  0  0  0
   11.4178   45.0070  134.4049 C   0  0  0  0  0  0  0  0  0  0  0  0
   11.8049   45.9006  133.4355 C   0  0  0  0  0  0  0  0  0  0  0  0
   11.7971   45.5501  132.0737 C   0  0  0  0  0  0  0  0  0  0  0  0
   11.3886   45.2412  135.7538 O   0  0  0  0  0  0  0  0  0  0  0  0
   10.3784   45.7045  136.5454 C   0  0  0  0  0  0  0  0  0  0  0  0
    9.0102   45.3025  136.0730 C   0  0  0  0  0  0  0  0  0  0  0  0
    8.7616   45.9663  134.8028 N   0  0  0  0  0  0  0  0  0  0  0  0
    8.4217   47.3587  135.0199 C   0  0  0  0  0  0  0  0  0  0  0  0
    8.8747   48.2397  133.9092 C   0  0  0  0  0  0  0  0  0  0  0  0
    9.0750   47.5239  132.5974 C   0  0  0  0  0  0  0  0  0  0  0  0
    7.8334   46.9094  132.0443 C   0  0  0  0  0  0  0  0  0  0  0  0
    7.0137   46.1549  133.0681 C   0  0  0  0  0  0  0  0  0  0  0  0
    7.8295   45.2830  133.9658 C   0  0  0  0  0  0  0  0  0  0  0  0
 13 14  1  0  0  0
 14 15  2  0  0  0
 15 16  1  0  0  0
 16 17  2  0  0  0
 17 18  1  0  0  0
 18 19  2  0  0  0
 17  1  1  0  0  0
  1  2  1  0  0  0
  2  3  1  0  0  0
  3  4  2  0  0  0
  4  5  1  0  0  0
  5  6  1  0  0  0
  5  7  2  0  0  0
  7  8  1  0  0  0
  8  9  2  0  0  0
  9 10  1  0  0  0
 10 11  1  0  0  0
 11 21  1  0  0  0
 21 22  2  0  0  0
 22 23  1  0  0  0
 23 24  2  0  0  0
 24 27  1  0  0  0
 27 28  1  0  0  0
 28 29  1  0  0  0
 29 30  1  0  0  0
 30 31  1  0  0  0
 31 32  1  0  0  0
 32 33  1  0  0  0
 33 34  1  0  0  0
 34 35  1  0  0  0
 35 36  1  0  0  0
 24 25  1  0  0  0
 25 26  2  0  0  0
 19 14  1  0  0  0
 11  1  1  0  0  0
 26 21  1  0  0  0
  9  3  1  0  0  0
 36 30  1  0  0  0
 13 20  1  0  0  0
  6 12  1  0  0  0
M  END
> <minimizedAffinity>
20.46663

> <CNNscore>
0.2848604321

> <CNNaffinity>
7.3493118286

> <CNN_VS>
2.0935280323

> <CNNaffinity_variance>
0.7094025612

$$$$
[H]Oc1c([H])c([H])c([C@@]2([H])Sc3c([H])c(O[H])c([H])c([H])c3O[C@@]2([H])c2c([H])c([H])c(OC([H])([H])C([H])([H])N3C([H])([H])C([H])([H])C([H])([H])C([H])([H])C([H])([H])C3([H])[H])c([H])c2[H])c([H])c1[H]


 36 40  0  0  0  0  0  0  0  0999 V2000
    8.6682   44.0876  129.5457 C   0  0  0  0  0  0  0  0  0  0  0  0
    8.8830   42.3008  129.7442 S   0  0  0  0  0  0  0  0  0  0  0  0
   10.2234   42.0132  130.8781 C   0  0  0  0  0  0  0  0  0  0  0  0
   10.5765   40.7179  131.2696 C   0  0  0  0  0  0  0  0  0  0  0  0
   11.6093   40.4485  132.1383 C   0  0  0  0  0  0  0  0  0  0  0  0
   11.8972   39.1237  132.4782 O   0  0  0  0  0  0  0  0  0  0  0  0
   12.3209   41.5179  132.6386 C   0  0  0  0  0  0  0  0  0  0  0  0
   11.9754   42.7960  132.2549 C   0  0  0  0  0  0  0  0  0  0  0  0
   10.9454   43.0891  131.3867 C   0  0  0  0  0  0  0  0  0  0  0  0
   10.5983   44.3881  130.9999 O   0  0  0  0  0  0  0  0  0  0  0  0
    9.2752   44.7347  130.7319 C   0  0  0  0  0  0  0  0  0  0  0  0
   11.4716   38.6564  133.2679 H   0  0  0  0  0  0  0  0  0  0  0  0
   10.5877   45.7094  124.4698 O   0  0  0  0  0  0  0  0  0  0  0  0
   10.1245   45.3294  125.7401 C   0  0  0  0  0  0  0  0  0  0  0  0
    9.3725   44.1886  125.8230 C   0  0  0  0  0  0  0  0  0  0  0  0
    8.9061   43.7987  127.0734 C   0  0  0  0  0  0  0  0  0  0  0  0
    9.1472   44.4773  128.2290 C   0  0  0  0  0  0  0  0  0  0  0  0
    9.9198   45.6350  128.0924 C   0  0  0  0  0  0  0  0  0  0  0  0
   10.3926   46.0425  126.8702 C   0  0  0  0  0  0  0  0  0  0  0  0
   11.4939   45.3255  124.2206 H   0  0  0  0  0  0  0  0  0  0  0  0
    9.0767   46.1994  130.7980 C   0  0  0  0  0  0  0  0  0  0  0  0
   10.0854   47.0957  130.7068 C   0  0  0  0  0  0  0  0  0  0  0  0
    9.8524   48.4504  130.7687 C   0  0  0  0  0  0  0  0  0  0  0  0
    8.5565   48.9824  130.9299 C   0  0  0  0  0  0  0  0  0  0  0  0
    7.5408   48.0612  131.0200 C   0  0  0  0  0  0  0  0  0  0  0  0
    7.7989   46.6805  130.9550 C   0  0  0  0  0  0  0  0  0  0  0  0
    8.4186   50.3439  130.9791 O   0  0  0  0  0  0  0  0  0  0  0  0
    9.1128   51.2739  131.6968 C   0  0  0  0  0  0  0  0  0  0  0  0
    9.0215   51.0785  133.1835 C   0  0  0  0  0  0  0  0  0  0  0  0
    9.3305   49.6867  133.4725 N   0  0  0  0  0  0  0  0  0  0  0  0
    8.6825   49.2713  134.7009 C   0  0  0  0  0  0  0  0  0  0  0  0
    8.3035   47.8321  134.6911 C   0  0  0  0  0  0  0  0  0  0  0  0
    9.1046   46.9903  133.7304 C   0  0  0  0  0  0  0  0  0  0  0  0
   10.5644   46.9440  134.0341 C   0  0  0  0  0  0  0  0  0  0  0  0
   11.1662   48.2933  134.3605 C   0  0  0  0  0  0  0  0  0  0  0  0
   10.7250   49.3854  133.4418 C   0  0  0  0  0  0  0  0  0  0  0  0
 13 14  1  0  0  0
 14 15  2  0  0  0
 15 16  1  0  0  0
 16 17  2  0  0  0
 17 18  1  0  0  0
 18 19  2  0  0  0
 17  1  1  0  0  0
  1  2  1  0  0  0
  2  3  1  0  0  0
  3  4  2  0  0  0
  4  5  1  0  0  0
  5  6  1  0  0  0
  5  7  2  0  0  0
  7  8  1  0  0  0
  8  9  2  0  0  0
  9 10  1  0  0  0
 10 11  1  0  0  0
 11 21  1  0  0  0
 21 22  2  0  0  0
 22 23  1  0  0  0
 23 24  2  0  0  0
 24 27  1  0  0  0
 27 28  1  0  0  0
 28 29  1  0  0  0
 29 30  1  0  0  0
 30 31  1  0  0  0
 31 32  1  0  0  0
 32 33  1  0  0  0
 33 34  1  0  0  0
 34 35  1  0  0  0
 35 36  1  0  0  0
 24 25  1  0  0  0
 25 26  2  0  0  0
 19 14  1  0  0  0
 11  1  1  0  0  0
 26 21  1  0  0  0
  9  3  1  0  0  0
 36 30  1  0  0  0
 13 20  1  0  0  0
  6 12  1  0  0  0
M  END
> <minimizedAffinity>
25.86048

> <CNNscore>
0.2756494880

> <CNNaffinity>
7.3202505112

> <CNN_VS>
2.0178232193

> <CNNaffinity_variance>
2.4435203075

$$$$
[H]Oc1c([H])c([H])c([C@@]2([H])Sc3c([H])c(O[H])c([H])c([H])c3O[C@@]2([H])c2c([H])c([H])c(OC([H])([H])C([H])([H])N3C([H])([H])C([H])([H])C([H])([H])C([H])([H])C([H])([H])C3([H])[H])c([H])c2[H])c([H])c1[H]


 36 40  0  0  0  0  0  0  0  0999 V2000
    9.7486   47.1940  133.8814 C   0  0  0  0  0  0  0  0  0  0  0  0
   10.5502   46.8658  135.4714 S   0  0  0  0  0  0  0  0  0  0  0  0
   11.8645   48.0434  135.6976 C   0  0  0  0  0  0  0  0  0  0  0  0
   12.6217   48.0677  136.8731 C   0  0  0  0  0  0  0  0  0  0  0  0
   13.6508   48.9557  137.0883 C   0  0  0  0  0  0  0  0  0  0  0  0
   14.3587   48.9128  138.2926 O   0  0  0  0  0  0  0  0  0  0  0  0
   13.9371   49.8592  136.0872 C   0  0  0  0  0  0  0  0  0  0  0  0
   13.1925   49.8381  134.9273 C   0  0  0  0  0  0  0  0  0  0  0  0
   12.1580   48.9582  134.6904 C   0  0  0  0  0  0  0  0  0  0  0  0
   11.4050   48.9403  133.5113 O   0  0  0  0  0  0  0  0  0  0  0  0
   10.0540   48.5977  133.5200 C   0  0  0  0  0  0  0  0  0  0  0  0
   14.0876   49.4491  139.1063 H   0  0  0  0  0  0  0  0  0  0  0  0
   11.0983   43.0341  130.2823 O   0  0  0  0  0  0  0  0  0  0  0  0
   10.7448   44.0487  131.1869 C   0  0  0  0  0  0  0  0  0  0  0  0
   11.3864   45.2521  131.0687 C   0  0  0  0  0  0  0  0  0  0  0  0
   11.0480   46.2670  131.9567 C   0  0  0  0  0  0  0  0  0  0  0  0
   10.1163   46.1462  132.9422 C   0  0  0  0  0  0  0  0  0  0  0  0
    9.4887   44.8990  133.0221 C   0  0  0  0  0  0  0  0  0  0  0  0
    9.8039   43.8802  132.1584 C   0  0  0  0  0  0  0  0  0  0  0  0
   10.5501   43.0230  129.4279 H   0  0  0  0  0  0  0  0  0  0  0  0
    9.3672   49.0785  132.3009 C   0  0  0  0  0  0  0  0  0  0  0  0
    8.0434   49.3501  132.2460 C   0  0  0  0  0  0  0  0  0  0  0  0
    7.4483   49.8004  131.0900 C   0  0  0  0  0  0  0  0  0  0  0  0
    8.1778   50.0044  129.9007 C   0  0  0  0  0  0  0  0  0  0  0  0
    9.5216   49.7260  129.9703 C   0  0  0  0  0  0  0  0  0  0  0  0
   10.1117   49.2662  131.1610 C   0  0  0  0  0  0  0  0  0  0  0  0
    7.5028   50.4567  128.7984 O   0  0  0  0  0  0  0  0  0  0  0  0
    6.2283   50.2047  128.3815 C   0  0  0  0  0  0  0  0  0  0  0  0
    6.0372   48.8200  127.8313 C   0  0  0  0  0  0  0  0  0  0  0  0
    6.4895   47.8715  128.8371 N   0  0  0  0  0  0  0  0  0  0  0  0
    7.3409   46.8651  128.2340 C   0  0  0  0  0  0  0  0  0  0  0  0
    8.3897   46.3679  129.1655 C   0  0  0  0  0  0  0  0  0  0  0  0
    8.0562   46.5524  130.6242 C   0  0  0  0  0  0  0  0  0  0  0  0
    6.8419   45.8088  131.0690 C   0  0  0  0  0  0  0  0  0  0  0  0
    5.6678   45.9291  130.1222 C   0  0  0  0  0  0  0  0  0  0  0  0
    5.4367   47.3191  129.6262 C   0  0  0  0  0  0  0  0  0  0  0  0
 13 14  1  0  0  0
 14 15  2  0  0  0
 15 16  1  0  0  0
 16 17  2  0  0  0
 17 18  1  0  0  0
 18 19  2  0  0  0
 17  1  1  0  0  0
  1  2  1  0  0  0
  2  3  1  0  0  0
  3  4  2  0  0  0
  4  5  1  0  0  0
  5  6  1  0  0  0
  5  7  2  0  0  0
  7  8  1  0  0  0
  8  9  2  0  0  0
  9 10  1  0  0  0
 10 11  1  0  0  0
 11 21  1  0  0  0
 21 22  2  0  0  0
 22 23  1  0  0  0
 23 24  2  0  0  0
 24 27  1  0  0  0
 27 28  1  0  0  0
 28 29  1  0  0  0
 29 30  1  0  0  0
 30 31  1  0  0  0
 31 32  1  0  0  0
 32 33  1  0  0  0
 33 34  1  0  0  0
 34 35  1  0  0  0
 35 36  1  0  0  0
 24 25  1  0  0  0
 25 26  2  0  0  0
 19 14  1  0  0  0
 11  1  1  0  0  0
 26 21  1  0  0  0
  9  3  1  0  0  0
 36 30  1  0  0  0
 13 20  1  0  0  0
  6 12  1  0  0  0
M  END
> <minimizedAffinity>
23.60269

> <CNNscore>
0.2583541572

> <CNNaffinity>
7.2509398460

> <CNN_VS>
1.8733104467

> <CNNaffinity_variance>
0.5081311464

$$$$
[H]Oc1c([H])c([H])c([C@@]2([H])Sc3c([H])c(O[H])c([H])c([H])c3O[C@@]2([H])c2c([H])c([H])c(OC([H])([H])C([H])([H])N3C([H])([H])C([H])([H])C([H])([H])C([H])([H])C([H])([H])C3([H])[H])c([H])c2[H])c([H])c1[H]


 36 40  0  0  0  0  0  0  0  0999 V2000
   10.0599   43.3370  131.4024 C   0  0  0  0  0  0  0  0  0  0  0  0
   10.7822   42.3598  132.7446 S   0  0  0  0  0  0  0  0  0  0  0  0
   10.7575   43.3347  134.2326 C   0  0  0  0  0  0  0  0  0  0  0  0
   11.1997   42.8094  135.4509 C   0  0  0  0  0  0  0  0  0  0  0  0
   11.2047   43.5286  136.6242 C   0  0  0  0  0  0  0  0  0  0  0  0
   11.6639   42.9280  137.7998 O   0  0  0  0  0  0  0  0  0  0  0  0
   10.7484   44.8287  136.5805 C   0  0  0  0  0  0  0  0  0  0  0  0
   10.3116   45.3496  135.3813 C   0  0  0  0  0  0  0  0  0  0  0  0
   10.2977   44.6479  134.1947 C   0  0  0  0  0  0  0  0  0  0  0  0
    9.8535   45.1808  132.9797 O   0  0  0  0  0  0  0  0  0  0  0  0
    9.2193   44.3840  132.0281 C   0  0  0  0  0  0  0  0  0  0  0  0
   11.0554   42.4221  138.4297 H   0  0  0  0  0  0  0  0  0  0  0  0
   14.2667   44.9823  127.9855 O   0  0  0  0  0  0  0  0  0  0  0  0
   13.2406   44.5771  128.8549 C   0  0  0  0  0  0  0  0  0  0  0  0
   12.0321   44.2546  128.2987 C   0  0  0  0  0  0  0  0  0  0  0  0
   11.0058   43.8517  129.1458 C   0  0  0  0  0  0  0  0  0  0  0  0
   11.1202   43.7548  130.4991 C   0  0  0  0  0  0  0  0  0  0  0  0
   12.3734   44.0943  131.0190 C   0  0  0  0  0  0  0  0  0  0  0  0
   13.4034   44.4953  130.2056 C   0  0  0  0  0  0  0  0  0  0  0  0
   14.8470   44.2251  127.6384 H   0  0  0  0  0  0  0  0  0  0  0  0
    8.4457   45.2018  131.0680 C   0  0  0  0  0  0  0  0  0  0  0  0
    8.8956   45.5353  129.8369 C   0  0  0  0  0  0  0  0  0  0  0  0
    8.1383   46.2947  128.9751 C   0  0  0  0  0  0  0  0  0  0  0  0
    6.8558   46.7679  129.3209 C   0  0  0  0  0  0  0  0  0  0  0  0
    6.4101   46.4210  130.5736 C   0  0  0  0  0  0  0  0  0  0  0  0
    7.1991   45.6444  131.4406 C   0  0  0  0  0  0  0  0  0  0  0  0
    6.1727   47.5154  128.3990 O   0  0  0  0  0  0  0  0  0  0  0  0
    5.8615   48.8439  128.3989 C   0  0  0  0  0  0  0  0  0  0  0  0
    7.0637   49.7442  128.4226 C   0  0  0  0  0  0  0  0  0  0  0  0
    7.8605   49.3975  129.5892 N   0  0  0  0  0  0  0  0  0  0  0  0
    7.6480   50.3629  130.6495 C   0  0  0  0  0  0  0  0  0  0  0  0
    7.7638   49.7604  132.0055 C   0  0  0  0  0  0  0  0  0  0  0  0
    8.5809   48.4940  132.0494 C   0  0  0  0  0  0  0  0  0  0  0  0
   10.0059   48.6756  131.6474 C   0  0  0  0  0  0  0  0  0  0  0  0
   10.1898   49.5149  130.4019 C   0  0  0  0  0  0  0  0  0  0  0  0
    9.2398   49.1717  129.3013 C   0  0  0  0  0  0  0  0  0  0  0  0
 13 14  1  0  0  0
 14 15  2  0  0  0
 15 16  1  0  0  0
 16 17  2  0  0  0
 17 18  1  0  0  0
 18 19  2  0  0  0
 17  1  1  0  0  0
  1  2  1  0  0  0
  2  3  1  0  0  0
  3  4  2  0  0  0
  4  5  1  0  0  0
  5  6  1  0  0  0
  5  7  2  0  0  0
  7  8  1  0  0  0
  8  9  2  0  0  0
  9 10  1  0  0  0
 10 11  1  0  0  0
 11 21  1  0  0  0
 21 22  2  0  0  0
 22 23  1  0  0  0
 23 24  2  0  0  0
 24 27  1  0  0  0
 27 28  1  0  0  0
 28 29  1  0  0  0
 29 30  1  0  0  0
 30 31  1  0  0  0
 31 32  1  0  0  0
 32 33  1  0  0  0
 33 34  1  0  0  0
 34 35  1  0  0  0
 35 36  1  0  0  0
 24 25  1  0  0  0
 25 26  2  0  0  0
 19 14  1  0  0  0
 11  1  1  0  0  0
 26 21  1  0  0  0
  9  3  1  0  0  0
 36 30  1  0  0  0
 13 20  1  0  0  0
  6 12  1  0  0  0
M  END
> <minimizedAffinity>
6.16736

> <CNNscore>
0.2498067319

> <CNNaffinity>
7.6780419350

> <CNN_VS>
1.9180265665

> <CNNaffinity_variance>
0.5220543146

$$$$
[H]Oc1c([H])c([H])c([C@@]2([H])Sc3c([H])c(O[H])c([H])c([H])c3O[C@]2([H])c2c([H])c([H])c(OC([H])([H])C([H])([H])N3C([H])([H])C([H])([H])C([H])([H])C([H])([H])C3([H])[H])c([H])c2[H])c([H])c1[H]


 35 39  0  0  0  0  0  0  0  0999 V2000
    9.9140   46.5889  131.6614 C   0  0  0  0  0  0  0  0  0  0  0  0
   10.8319   45.0367  131.4272 S   0  0  0  0  0  0  0  0  0  0  0  0
   10.6458   44.6656  129.7137 C   0  0  0  0  0  0  0  0  0  0  0  0
   11.6176   44.0596  129.0099 C   0  0  0  0  0  0  0  0  0  0  0  0
   11.4806   43.7628  127.6444 C   0  0  0  0  0  0  0  0  0  0  0  0
   12.4917   43.1367  126.9290 O   0  0  0  0  0  0  0  0  0  0  0  0
   10.2962   44.1185  127.0344 C   0  0  0  0  0  0  0  0  0  0  0  0
    9.2787   44.7458  127.7430 C   0  0  0  0  0  0  0  0  0  0  0  0
    9.4657   45.0197  129.1032 C   0  0  0  0  0  0  0  0  0  0  0  0
    8.5200   45.6298  129.8634 O   0  0  0  0  0  0  0  0  0  0  0  0
    8.6253   46.4824  130.9323 C   0  0  0  0  0  0  0  0  0  0  0  0
   13.1697   43.7707  126.4885 H   0  0  0  0  0  0  0  0  0  0  0  0
    9.0711   47.6916  137.1562 O   0  0  0  0  0  0  0  0  0  0  0  0
    9.2895   47.4074  135.7910 C   0  0  0  0  0  0  0  0  0  0  0  0
   10.0741   46.3589  135.3982 C   0  0  0  0  0  0  0  0  0  0  0  0
   10.2732   46.1002  134.0587 C   0  0  0  0  0  0  0  0  0  0  0  0
    9.7003   46.8731  133.0790 C   0  0  0  0  0  0  0  0  0  0  0  0
    8.9126   47.9263  133.4752 C   0  0  0  0  0  0  0  0  0  0  0  0
    8.7048   48.1968  134.8348 C   0  0  0  0  0  0  0  0  0  0  0  0
    9.7180   48.3289  137.6332 H   0  0  0  0  0  0  0  0  0  0  0  0
    8.1455   47.8339  130.4585 C   0  0  0  0  0  0  0  0  0  0  0  0
    8.8825   48.9726  130.6795 C   0  0  0  0  0  0  0  0  0  0  0  0
    8.4333   50.2248  130.2366 C   0  0  0  0  0  0  0  0  0  0  0  0
    7.2365   50.3143  129.5707 C   0  0  0  0  0  0  0  0  0  0  0  0
    6.4880   49.1884  129.3414 C   0  0  0  0  0  0  0  0  0  0  0  0
    6.9404   47.9622  129.7819 C   0  0  0  0  0  0  0  0  0  0  0  0
    6.7839   51.5354  129.1308 O   0  0  0  0  0  0  0  0  0  0  0  0
    7.4684   52.4414  128.3133 C   0  0  0  0  0  0  0  0  0  0  0  0
    6.4642   53.1151  127.4122 C   0  0  0  0  0  0  0  0  0  0  0  0
    6.9986   53.5687  126.1663 N   0  0  0  0  0  0  0  0  0  0  0  0
    6.1939   54.5770  125.5127 C   0  0  0  0  0  0  0  0  0  0  0  0
    6.6013   54.6598  124.0592 C   0  0  0  0  0  0  0  0  0  0  0  0
    8.0205   54.1540  123.9346 C   0  0  0  0  0  0  0  0  0  0  0  0
    8.8644   54.6573  125.0838 C   0  0  0  0  0  0  0  0  0  0  0  0
    8.3210   54.1316  126.3736 C   0  0  0  0  0  0  0  0  0  0  0  0
 13 14  1  0  0  0
 14 15  2  0  0  0
 15 16  1  0  0  0
 16 17  2  0  0  0
 17 18  1  0  0  0
 18 19  2  0  0  0
 17  1  1  0  0  0
  1  2  1  0  0  0
  2  3  1  0  0  0
  3  4  2  0  0  0
  4  5  1  0  0  0
  5  6  1  0  0  0
  5  7  2  0  0  0
  7  8  1  0  0  0
  8  9  2  0  0  0
  9 10  1  0  0  0
 10 11  1  0  0  0
 11 21  1  0  0  0
 21 22  2  0  0  0
 22 23  1  0  0  0
 23 24  2  0  0  0
 24 27  1  0  0  0
 27 28  1  0  0  0
 28 29  1  0  0  0
 29 30  1  0  0  0
 30 31  1  0  0  0
 31 32  1  0  0  0
 32 33  1  0  0  0
 33 34  1  0  0  0
 34 35  1  0  0  0
 24 25  1  0  0  0
 25 26  2  0  0  0
 19 14  1  0  0  0
 11  1  1  0  0  0
 26 21  1  0  0  0
  9  3  1  0  0  0
 35 30  1  0  0  0
 13 20  1  0  0  0
  6 12  1  0  0  0
M  END
> <minimizedAffinity>
5.53831

> <CNNscore>
0.4088413119

> <CNNaffinity>
7.2155776024

> <CNN_VS>
2.9500262737

> <CNNaffinity_variance>
1.0563218594

$$$$
[H]Oc1c([H])c([H])c([C@@]2([H])Sc3c([H])c(O[H])c([H])c([H])c3O[C@]2([H])c2c([H])c([H])c(OC([H])([H])C([H])([H])N3C([H])([H])C([H])([H])C([H])([H])C([H])([H])C3([H])[H])c([H])c2[H])c([H])c1[H]


 35 39  0  0  0  0  0  0  0  0999 V2000
    8.8998   46.2652  129.1433 C   0  0  0  0  0  0  0  0  0  0  0  0
    8.4805   47.4856  127.8620 S   0  0  0  0  0  0  0  0  0  0  0  0
    7.5040   48.6909  128.7001 C   0  0  0  0  0  0  0  0  0  0  0  0
    7.5452   49.9927  128.3676 C   0  0  0  0  0  0  0  0  0  0  0  0
    6.7742   50.9606  129.0309 C   0  0  0  0  0  0  0  0  0  0  0  0
    6.8260   52.3019  128.6777 O   0  0  0  0  0  0  0  0  0  0  0  0
    5.9572   50.5279  130.0539 C   0  0  0  0  0  0  0  0  0  0  0  0
    5.8993   49.1871  130.4141 C   0  0  0  0  0  0  0  0  0  0  0  0
    6.6888   48.2617  129.7209 C   0  0  0  0  0  0  0  0  0  0  0  0
    6.6884   46.9354  130.0133 O   0  0  0  0  0  0  0  0  0  0  0  0
    7.6786   45.9895  129.9411 C   0  0  0  0  0  0  0  0  0  0  0  0
    7.5339   52.8557  129.1755 H   0  0  0  0  0  0  0  0  0  0  0  0
   11.0002   41.5143  126.8769 O   0  0  0  0  0  0  0  0  0  0  0  0
   10.4650   42.6923  127.4410 C   0  0  0  0  0  0  0  0  0  0  0  0
    9.1441   42.7825  127.7821 C   0  0  0  0  0  0  0  0  0  0  0  0
    8.6433   43.9434  128.3320 C   0  0  0  0  0  0  0  0  0  0  0  0
    9.4386   45.0400  128.5564 C   0  0  0  0  0  0  0  0  0  0  0  0
   10.7654   44.9480  128.2128 C   0  0  0  0  0  0  0  0  0  0  0  0
   11.2830   43.7717  127.6531 C   0  0  0  0  0  0  0  0  0  0  0  0
   10.9932   41.4133  125.8561 H   0  0  0  0  0  0  0  0  0  0  0  0
    8.0215   45.6105  131.3623 C   0  0  0  0  0  0  0  0  0  0  0  0
    7.3431   46.1481  132.4298 C   0  0  0  0  0  0  0  0  0  0  0  0
    7.6643   45.7921  133.7473 C   0  0  0  0  0  0  0  0  0  0  0  0
    8.6742   44.8908  133.9744 C   0  0  0  0  0  0  0  0  0  0  0  0
    9.3618   44.3443  132.9213 C   0  0  0  0  0  0  0  0  0  0  0  0
    9.0365   44.7024  131.6297 C   0  0  0  0  0  0  0  0  0  0  0  0
    8.9999   44.5326  135.2610 O   0  0  0  0  0  0  0  0  0  0  0  0
    9.9183   45.1678  136.1040 C   0  0  0  0  0  0  0  0  0  0  0  0
   11.0630   45.6705  135.2607 C   0  0  0  0  0  0  0  0  0  0  0  0
   10.7933   46.8890  134.5636 N   0  0  0  0  0  0  0  0  0  0  0  0
   10.8289   46.7637  133.1233 C   0  0  0  0  0  0  0  0  0  0  0  0
   10.9630   48.1420  132.5167 C   0  0  0  0  0  0  0  0  0  0  0  0
   10.4245   49.1502  133.5061 C   0  0  0  0  0  0  0  0  0  0  0  0
    9.1655   48.6286  134.1610 C   0  0  0  0  0  0  0  0  0  0  0  0
    9.4770   47.3830  134.9268 C   0  0  0  0  0  0  0  0  0  0  0  0
 13 14  1  0  0  0
 14 15  2  0  0  0
 15 16  1  0  0  0
 16 17  2  0  0  0
 17 18  1  0  0  0
 18 19  2  0  0  0
 17  1  1  0  0  0
  1  2  1  0  0  0
  2  3  1  0  0  0
  3  4  2  0  0  0
  4  5  1  0  0  0
  5  6  1  0  0  0
  5  7  2  0  0  0
  7  8  1  0  0  0
  8  9  2  0  0  0
  9 10  1  0  0  0
 10 11  1  0  0  0
 11 21  1  0  0  0
 21 22  2  0  0  0
 22 23  1  0  0  0
 23 24  2  0  0  0
 24 27  1  0  0  0
 27 28  1  0  0  0
 28 29  1  0  0  0
 29 30  1  0  0  0
 30 31  1  0  0  0
 31 32  1  0  0  0
 32 33  1  0  0  0
 33 34  1  0  0  0
 34 35  1  0  0  0
 24 25  1  0  0  0
 25 26  2  0  0  0
 19 14  1  0  0  0
 11  1  1  0  0  0
 26 21  1  0  0  0
  9  3  1  0  0  0
 35 30  1  0  0  0
 13 20  1  0  0  0
  6 12  1  0  0  0
M  END
> <minimizedAffinity>
8.43222

> <CNNscore>
0.3547062576

> <CNNaffinity>
7.2084946632

> <CNN_VS>
2.5568981171

> <CNNaffinity_variance>
0.5368889570

$$$$
[H]Oc1c([H])c([H])c([C@@]2([H])Sc3c([H])c(O[H])c([H])c([H])c3O[C@]2([H])c2c([H])c([H])c(OC([H])([H])C([H])([H])N3C([H])([H])C([H])([H])C([H])([H])C([H])([H])C3([H])[H])c([H])c2[H])c([H])c1[H]


 35 39  0  0  0  0  0  0  0  0999 V2000
    8.4172   47.2751  129.7431 C   0  0  0  0  0  0  0  0  0  0  0  0
    8.4923   46.5288  128.0865 S   0  0  0  0  0  0  0  0  0  0  0  0
    9.4338   45.0544  128.3065 C   0  0  0  0  0  0  0  0  0  0  0  0
    9.1894   43.9436  127.5901 C   0  0  0  0  0  0  0  0  0  0  0  0
    9.9311   42.7636  127.7601 C   0  0  0  0  0  0  0  0  0  0  0  0
    9.6687   41.6232  127.0138 O   0  0  0  0  0  0  0  0  0  0  0  0
   10.9376   42.7781  128.7024 C   0  0  0  0  0  0  0  0  0  0  0  0
   11.2071   43.9153  129.4541 C   0  0  0  0  0  0  0  0  0  0  0  0
   10.4378   45.0664  129.2460 C   0  0  0  0  0  0  0  0  0  0  0  0
   10.6389   46.2162  129.9404 O   0  0  0  0  0  0  0  0  0  0  0  0
    9.7681   47.1918  130.3530 C   0  0  0  0  0  0  0  0  0  0  0  0
    8.9829   40.9804  127.4285 H   0  0  0  0  0  0  0  0  0  0  0  0
    6.5748   52.6295  129.5091 O   0  0  0  0  0  0  0  0  0  0  0  0
    7.0381   51.2981  129.5796 C   0  0  0  0  0  0  0  0  0  0  0  0
    7.5759   50.7909  130.7297 C   0  0  0  0  0  0  0  0  0  0  0  0
    8.0219   49.4871  130.7754 C   0  0  0  0  0  0  0  0  0  0  0  0
    7.9453   48.6570  129.6843 C   0  0  0  0  0  0  0  0  0  0  0  0
    7.4050   49.1681  128.5294 C   0  0  0  0  0  0  0  0  0  0  0  0
    6.9492   50.4925  128.4739 C   0  0  0  0  0  0  0  0  0  0  0  0
    7.2327   53.3622  129.2219 H   0  0  0  0  0  0  0  0  0  0  0  0
    9.6894   47.0952  131.8582 C   0  0  0  0  0  0  0  0  0  0  0  0
   10.6588   47.6452  132.6622 C   0  0  0  0  0  0  0  0  0  0  0  0
   10.5805   47.5538  134.0591 C   0  0  0  0  0  0  0  0  0  0  0  0
    9.5168   46.9035  134.6331 C   0  0  0  0  0  0  0  0  0  0  0  0
    8.5403   46.3487  133.8463 C   0  0  0  0  0  0  0  0  0  0  0  0
    8.6284   46.4452  132.4733 C   0  0  0  0  0  0  0  0  0  0  0  0
    9.4272   46.8064  136.0014 O   0  0  0  0  0  0  0  0  0  0  0  0
   10.1357   45.9300  136.8306 C   0  0  0  0  0  0  0  0  0  0  0  0
   10.0138   44.5393  136.2603 C   0  0  0  0  0  0  0  0  0  0  0  0
   10.6701   44.3559  135.0037 N   0  0  0  0  0  0  0  0  0  0  0  0
   12.0440   43.9184  135.1153 C   0  0  0  0  0  0  0  0  0  0  0  0
   12.7453   44.1724  133.8002 C   0  0  0  0  0  0  0  0  0  0  0  0
   11.7028   44.2096  132.7060 C   0  0  0  0  0  0  0  0  0  0  0  0
   10.6691   43.1277  132.9229 C   0  0  0  0  0  0  0  0  0  0  0  0
    9.9583   43.3646  134.2167 C   0  0  0  0  0  0  0  0  0  0  0  0
 13 14  1  0  0  0
 14 15  2  0  0  0
 15 16  1  0  0  0
 16 17  2  0  0  0
 17 18  1  0  0  0
 18 19  2  0  0  0
 17  1  1  0  0  0
  1  2  1  0  0  0
  2  3  1  0  0  0
  3  4  2  0  0  0
  4  5  1  0  0  0
  5  6  1  0  0  0
  5  7  2  0  0  0
  7  8  1  0  0  0
  8  9  2  0  0  0
  9 10  1  0  0  0
 10 11  1  0  0  0
 11 21  1  0  0  0
 21 22  2  0  0  0
 22 23  1  0  0  0
 23 24  2  0  0  0
 24 27  1  0  0  0
 27 28  1  0  0  0
 28 29  1  0  0  0
 29 30  1  0  0  0
 30 31  1  0  0  0
 31 32  1  0  0  0
 32 33  1  0  0  0
 33 34  1  0  0  0
 34 35  1  0  0  0
 24 25  1  0  0  0
 25 26  2  0  0  0
 19 14  1  0  0  0
 11  1  1  0  0  0
 26 21  1  0  0  0
  9  3  1  0  0  0
 35 30  1  0  0  0
 13 20  1  0  0  0
  6 12  1  0  0  0
M  END
> <minimizedAffinity>
5.13890

> <CNNscore>
0.3411299586

> <CNNaffinity>
7.4487924576

> <CNN_VS>
2.5410063267

> <CNNaffinity_variance>
0.4039631784

$$$$
[H]Oc1c([H])c([H])c([C@@]2([H])Sc3c([H])c(O[H])c([H])c([H])c3O[C@]2([H])c2c([H])c([H])c(OC([H])([H])C([H])([H])N3C([H])([H])C([H])([H])C([H])([H])C([H])([H])C3([H])[H])c([H])c2[H])c([H])c1[H]


 35 39  0  0  0  0  0  0  0  0999 V2000
    8.6157   48.3023  131.5178 C   0  0  0  0  0  0  0  0  0  0  0  0
    8.3917   48.8008  133.2522 S   0  0  0  0  0  0  0  0  0  0  0  0
    8.7031   47.3336  134.1791 C   0  0  0  0  0  0  0  0  0  0  0  0
    9.2769   47.3711  135.3941 C   0  0  0  0  0  0  0  0  0  0  0  0
    9.5322   46.2084  136.1387 C   0  0  0  0  0  0  0  0  0  0  0  0
   10.1253   46.2607  137.3924 O   0  0  0  0  0  0  0  0  0  0  0  0
    9.1699   45.0031  135.5756 C   0  0  0  0  0  0  0  0  0  0  0  0
    8.5757   44.9414  134.3210 C   0  0  0  0  0  0  0  0  0  0  0  0
    8.3430   46.1304  133.6194 C   0  0  0  0  0  0  0  0  0  0  0  0
    7.7677   46.1534  132.3892 O   0  0  0  0  0  0  0  0  0  0  0  0
    7.9455   46.9926  131.3194 C   0  0  0  0  0  0  0  0  0  0  0  0
   11.1515   46.2093  137.3906 H   0  0  0  0  0  0  0  0  0  0  0  0
    6.5903   52.2262  127.9653 O   0  0  0  0  0  0  0  0  0  0  0  0
    7.0920   51.2396  128.8411 C   0  0  0  0  0  0  0  0  0  0  0  0
    7.1980   49.9321  128.4558 C   0  0  0  0  0  0  0  0  0  0  0  0
    7.6913   48.9854  129.3284 C   0  0  0  0  0  0  0  0  0  0  0  0
    8.0905   49.3120  130.6009 C   0  0  0  0  0  0  0  0  0  0  0  0
    7.9831   50.6259  130.9867 C   0  0  0  0  0  0  0  0  0  0  0  0
    7.4826   51.5950  130.1062 C   0  0  0  0  0  0  0  0  0  0  0  0
    5.5813   52.4113  127.9629 H   0  0  0  0  0  0  0  0  0  0  0  0
    8.6243   46.1827  130.2404 C   0  0  0  0  0  0  0  0  0  0  0  0
    8.1980   44.9157  129.9215 C   0  0  0  0  0  0  0  0  0  0  0  0
    8.8308   44.1684  128.9182 C   0  0  0  0  0  0  0  0  0  0  0  0
    9.8948   44.7122  128.2428 C   0  0  0  0  0  0  0  0  0  0  0  0
   10.3338   45.9750  128.5478 C   0  0  0  0  0  0  0  0  0  0  0  0
    9.7030   46.7004  129.5369 C   0  0  0  0  0  0  0  0  0  0  0  0
   10.5247   43.9908  127.2567 O   0  0  0  0  0  0  0  0  0  0  0  0
   11.7082   43.2546  127.3788 C   0  0  0  0  0  0  0  0  0  0  0  0
   12.6181   43.9803  128.3378 C   0  0  0  0  0  0  0  0  0  0  0  0
   12.1128   44.0805  129.6712 N   0  0  0  0  0  0  0  0  0  0  0  0
   11.7876   42.8072  130.2749 C   0  0  0  0  0  0  0  0  0  0  0  0
   10.8865   43.0473  131.4649 C   0  0  0  0  0  0  0  0  0  0  0  0
   11.1207   44.4561  131.9608 C   0  0  0  0  0  0  0  0  0  0  0  0
   12.5951   44.7896  131.9301 C   0  0  0  0  0  0  0  0  0  0  0  0
   13.0943   44.7296  130.5221 C   0  0  0  0  0  0  0  0  0  0  0  0
 13 14  1  0  0  0
 14 15  2  0  0  0
 15 16  1  0  0  0
 16 17  2  0  0  0
 17 18  1  0  0  0
 18 19  2  0  0  0
 17  1  1  0  0  0
  1  2  1  0  0  0
  2  3  1  0  0  0
  3  4  2  0  0  0
  4  5  1  0  0  0
  5  6  1  0  0  0
  5  7  2  0  0  0
  7  8  1  0  0  0
  8  9  2  0  0  0
  9 10  1  0  0  0
 10 11  1  0  0  0
 11 21  1  0  0  0
 21 22  2  0  0  0
 22 23  1  0  0  0
 23 24  2  0  0  0
 24 27  1  0  0  0
 27 28  1  0  0  0
 28 29  1  0  0  0
 29 30  1  0  0  0
 30 31  1  0  0  0
 31 32  1  0  0  0
 32 33  1  0  0  0
 33 34  1  0  0  0
 34 35  1  0  0  0
 24 25  1  0  0  0
 25 26  2  0  0  0
 19 14  1  0  0  0
 11  1  1  0  0  0
 26 21  1  0  0  0
  9  3  1  0  0  0
 35 30  1  0  0  0
 13 20  1  0  0  0
  6 12  1  0  0  0
M  END
> <minimizedAffinity>
5.24148

> <CNNscore>
0.3193385005

> <CNNaffinity>
7.3886680603

> <CNN_VS>
2.3594861031

> <CNNaffinity_variance>
0.4156954288

$$$$
[H]Oc1c([H])c([H])c([C@@]2([H])Sc3c([H])c(O[H])c([H])c([H])c3O[C@]2([H])c2c([H])c([H])c(OC([H])([H])C([H])([H])N3C([H])([H])C([H])([H])C([H])([H])C([H])([H])C3([H])[H])c([H])c2[H])c([H])c1[H]


 35 39  0  0  0  0  0  0  0  0999 V2000
   11.4349   45.6479  132.9151 C   0  0  0  0  0  0  0  0  0  0  0  0
   12.5861   44.2938  132.5300 S   0  0  0  0  0  0  0  0  0  0  0  0
   12.7712   44.3540  130.7776 C   0  0  0  0  0  0  0  0  0  0  0  0
   13.9301   44.0353  130.1758 C   0  0  0  0  0  0  0  0  0  0  0  0
   14.0887   44.0832  128.7815 C   0  0  0  0  0  0  0  0  0  0  0  0
   15.2909   43.7515  128.1724 O   0  0  0  0  0  0  0  0  0  0  0  0
   12.9989   44.4746  128.0329 C   0  0  0  0  0  0  0  0  0  0  0  0
   11.7917   44.8086  128.6345 C   0  0  0  0  0  0  0  0  0  0  0  0
   11.6859   44.7445  130.0291 C   0  0  0  0  0  0  0  0  0  0  0  0
   10.5413   45.0552  130.6911 O   0  0  0  0  0  0  0  0  0  0  0  0
   10.3294   45.6151  131.9248 C   0  0  0  0  0  0  0  0  0  0  0  0
   15.9438   44.5343  128.0437 H   0  0  0  0  0  0  0  0  0  0  0  0
    9.4787   45.2380  138.2184 O   0  0  0  0  0  0  0  0  0  0  0  0
    9.9598   45.3517  136.8963 C   0  0  0  0  0  0  0  0  0  0  0  0
    9.7452   46.4800  136.1546 C   0  0  0  0  0  0  0  0  0  0  0  0
   10.2248   46.5689  134.8651 C   0  0  0  0  0  0  0  0  0  0  0  0
   10.9271   45.5433  134.2816 C   0  0  0  0  0  0  0  0  0  0  0  0
   11.1415   44.4102  135.0278 C   0  0  0  0  0  0  0  0  0  0  0  0
   10.6575   44.3112  136.3396 C   0  0  0  0  0  0  0  0  0  0  0  0
    8.5413   44.8486  138.3664 H   0  0  0  0  0  0  0  0  0  0  0  0
    9.7625   46.9941  131.6842 C   0  0  0  0  0  0  0  0  0  0  0  0
    8.5843   47.3951  132.2672 C   0  0  0  0  0  0  0  0  0  0  0  0
    8.0628   48.6768  132.0417 C   0  0  0  0  0  0  0  0  0  0  0  0
    8.7412   49.5460  131.2242 C   0  0  0  0  0  0  0  0  0  0  0  0
    9.9182   49.1628  130.6341 C   0  0  0  0  0  0  0  0  0  0  0  0
   10.4212   47.8992  130.8636 C   0  0  0  0  0  0  0  0  0  0  0  0
    8.2415   50.8058  130.9943 O   0  0  0  0  0  0  0  0  0  0  0  0
    7.0605   51.1318  130.3187 C   0  0  0  0  0  0  0  0  0  0  0  0
    6.9862   50.2933  129.0675 C   0  0  0  0  0  0  0  0  0  0  0  0
    6.7551   48.9020  129.3009 N   0  0  0  0  0  0  0  0  0  0  0  0
    5.4272   48.4571  128.9401 C   0  0  0  0  0  0  0  0  0  0  0  0
    5.1585   47.1291  129.6109 C   0  0  0  0  0  0  0  0  0  0  0  0
    6.4859   46.4650  129.8974 C   0  0  0  0  0  0  0  0  0  0  0  0
    7.4337   46.6533  128.7345 C   0  0  0  0  0  0  0  0  0  0  0  0
    7.7037   48.1106  128.5378 C   0  0  0  0  0  0  0  0  0  0  0  0
 13 14  1  0  0  0
 14 15  2  0  0  0
 15 16  1  0  0  0
 16 17  2  0  0  0
 17 18  1  0  0  0
 18 19  2  0  0  0
 17  1  1  0  0  0
  1  2  1  0  0  0
  2  3  1  0  0  0
  3  4  2  0  0  0
  4  5  1  0  0  0
  5  6  1  0  0  0
  5  7  2  0  0  0
  7  8  1  0  0  0
  8  9  2  0  0  0
  9 10  1  0  0  0
 10 11  1  0  0  0
 11 21  1  0  0  0
 21 22  2  0  0  0
 22 23  1  0  0  0
 23 24  2  0  0  0
 24 27  1  0  0  0
 27 28  1  0  0  0
 28 29  1  0  0  0
 29 30  1  0  0  0
 30 31  1  0  0  0
 31 32  1  0  0  0
 32 33  1  0  0  0
 33 34  1  0  0  0
 34 35  1  0  0  0
 24 25  1  0  0  0
 25 26  2  0  0  0
 19 14  1  0  0  0
 11  1  1  0  0  0
 26 21  1  0  0  0
  9  3  1  0  0  0
 35 30  1  0  0  0
 13 20  1  0  0  0
  6 12  1  0  0  0
M  END
> <minimizedAffinity>
5.85868

> <CNNscore>
0.3079574406

> <CNNaffinity>
7.4996466637

> <CNN_VS>
2.3095719814

> <CNNaffinity_variance>
0.4993959367

$$$$
[H]Oc1c([H])c([H])c([C@@]2([H])Sc3c([H])c(O[H])c([H])c([H])c3O[C@]2([H])c2c([H])c([H])c(OC([H])([H])C([H])([H])N3C([H])([H])C([H])([H])C([H])([H])C([H])([H])C3([H])[H])c([H])c2[H])c([H])c1[H]


 35 39  0  0  0  0  0  0  0  0999 V2000
    9.3334   45.7213  131.2803 C   0  0  0  0  0  0  0  0  0  0  0  0
    9.9212   44.6389  132.6181 S   0  0  0  0  0  0  0  0  0  0  0  0
   10.0392   45.6959  134.0243 C   0  0  0  0  0  0  0  0  0  0  0  0
    9.7888   45.2518  135.2681 C   0  0  0  0  0  0  0  0  0  0  0  0
    9.8766   46.0861  136.3939 C   0  0  0  0  0  0  0  0  0  0  0  0
    9.6155   45.6150  137.6731 O   0  0  0  0  0  0  0  0  0  0  0  0
   10.2344   47.4008  136.1819 C   0  0  0  0  0  0  0  0  0  0  0  0
   10.4974   47.8809  134.9047 C   0  0  0  0  0  0  0  0  0  0  0  0
   10.3954   47.0074  133.8153 C   0  0  0  0  0  0  0  0  0  0  0  0
   10.6358   47.4003  132.5376 O   0  0  0  0  0  0  0  0  0  0  0  0
   10.0913   46.9961  131.3457 C   0  0  0  0  0  0  0  0  0  0  0  0
    8.6366   45.6951  137.9746 H   0  0  0  0  0  0  0  0  0  0  0  0
    9.9183   43.2429  126.2172 O   0  0  0  0  0  0  0  0  0  0  0  0
    9.7624   43.8522  127.4808 C   0  0  0  0  0  0  0  0  0  0  0  0
    8.8509   43.3882  128.3879 C   0  0  0  0  0  0  0  0  0  0  0  0
    8.7162   43.9991  129.6165 C   0  0  0  0  0  0  0  0  0  0  0  0
    9.4806   45.0823  129.9741 C   0  0  0  0  0  0  0  0  0  0  0  0
   10.3957   45.5476  129.0616 C   0  0  0  0  0  0  0  0  0  0  0  0
   10.5393   44.9326  127.8101 C   0  0  0  0  0  0  0  0  0  0  0  0
    9.3485   43.5843  125.4355 H   0  0  0  0  0  0  0  0  0  0  0  0
    9.2705   48.1536  130.8286 C   0  0  0  0  0  0  0  0  0  0  0  0
    9.5067   49.4414  131.2465 C   0  0  0  0  0  0  0  0  0  0  0  0
    8.7427   50.5128  130.7624 C   0  0  0  0  0  0  0  0  0  0  0  0
    7.7414   50.2706  129.8554 C   0  0  0  0  0  0  0  0  0  0  0  0
    7.4918   48.9920  129.4274 C   0  0  0  0  0  0  0  0  0  0  0  0
    8.2502   47.9463  129.9107 C   0  0  0  0  0  0  0  0  0  0  0  0
    6.9845   51.3115  129.3724 O   0  0  0  0  0  0  0  0  0  0  0  0
    6.7841   51.6539  128.0306 C   0  0  0  0  0  0  0  0  0  0  0  0
    7.0523   53.1298  127.8755 C   0  0  0  0  0  0  0  0  0  0  0  0
    7.2665   53.5533  126.5271 N   0  0  0  0  0  0  0  0  0  0  0  0
    6.2923   54.5088  126.0482 C   0  0  0  0  0  0  0  0  0  0  0  0
    6.3505   54.5499  124.5381 C   0  0  0  0  0  0  0  0  0  0  0  0
    7.7225   54.0872  124.1034 C   0  0  0  0  0  0  0  0  0  0  0  0
    8.7868   54.6615  125.0109 C   0  0  0  0  0  0  0  0  0  0  0  0
    8.5769   54.1673  126.4062 C   0  0  0  0  0  0  0  0  0  0  0  0
 13 14  1  0  0  0
 14 15  2  0  0  0
 15 16  1  0  0  0
 16 17  2  0  0  0
 17 18  1  0  0  0
 18 19  2  0  0  0
 17  1  1  0  0  0
  1  2  1  0  0  0
  2  3  1  0  0  0
  3  4  2  0  0  0
  4  5  1  0  0  0
  5  6  1  0  0  0
  5  7  2  0  0  0
  7  8  1  0  0  0
  8  9  2  0  0  0
  9 10  1  0  0  0
 10 11  1  0  0  0
 11 21  1  0  0  0
 21 22  2  0  0  0
 22 23  1  0  0  0
 23 24  2  0  0  0
 24 27  1  0  0  0
 27 28  1  0  0  0
 28 29  1  0  0  0
 29 30  1  0  0  0
 30 31  1  0  0  0
 31 32  1  0  0  0
 32 33  1  0  0  0
 33 34  1  0  0  0
 34 35  1  0  0  0
 24 25  1  0  0  0
 25 26  2  0  0  0
 19 14  1  0  0  0
 11  1  1  0  0  0
 26 21  1  0  0  0
  9  3  1  0  0  0
 35 30  1  0  0  0
 13 20  1  0  0  0
  6 12  1  0  0  0
M  END
> <minimizedAffinity>
4.70171

> <CNNscore>
0.3004744351

> <CNNaffinity>
7.2350301743

> <CNN_VS>
2.1739416122

> <CNNaffinity_variance>
0.8246612549

$$$$
[H]Oc1c([H])c([H])c([C@@]2([H])Sc3c([H])c(O[H])c([H])c([H])c3O[C@]2([H])c2c([H])c([H])c(OC([H])([H])C([H])([H])N3C([H])([H])C([H])([H])C([H])([H])C([H])([H])C3([H])[H])c([H])c2[H])c([H])c1[H]


 35 39  0  0  0  0  0  0  0  0999 V2000
    9.6177   47.5460  131.8401 C   0  0  0  0  0  0  0  0  0  0  0  0
    8.8571   49.1307  132.3060 S   0  0  0  0  0  0  0  0  0  0  0  0
    7.7912   49.5243  130.9578 C   0  0  0  0  0  0  0  0  0  0  0  0
    6.6280   50.1730  131.1397 C   0  0  0  0  0  0  0  0  0  0  0  0
    5.7706   50.4881  130.0733 C   0  0  0  0  0  0  0  0  0  0  0  0
    4.5721   51.1584  130.2746 O   0  0  0  0  0  0  0  0  0  0  0  0
    6.1649   50.1048  128.8089 C   0  0  0  0  0  0  0  0  0  0  0  0
    7.3630   49.4333  128.5982 C   0  0  0  0  0  0  0  0  0  0  0  0
    8.1821   49.1428  129.6960 C   0  0  0  0  0  0  0  0  0  0  0  0
    9.3666   48.4898  129.5725 O   0  0  0  0  0  0  0  0  0  0  0  0
   10.0175   47.6232  130.4125 C   0  0  0  0  0  0  0  0  0  0  0  0
    3.7597   50.5540  130.4487 H   0  0  0  0  0  0  0  0  0  0  0  0
   14.0394   46.3224  135.1675 O   0  0  0  0  0  0  0  0  0  0  0  0
   12.9440   46.6207  134.3288 C   0  0  0  0  0  0  0  0  0  0  0  0
   12.8590   46.1158  133.0611 C   0  0  0  0  0  0  0  0  0  0  0  0
   11.7792   46.4206  132.2598 C   0  0  0  0  0  0  0  0  0  0  0  0
   10.7603   47.2314  132.6954 C   0  0  0  0  0  0  0  0  0  0  0  0
   10.8472   47.7382  133.9691 C   0  0  0  0  0  0  0  0  0  0  0  0
   11.9414   47.4336  134.7907 C   0  0  0  0  0  0  0  0  0  0  0  0
   14.8583   46.9397  135.1413 H   0  0  0  0  0  0  0  0  0  0  0  0
    9.9753   46.2652  129.7530 C   0  0  0  0  0  0  0  0  0  0  0  0
   11.1237   45.6372  129.3341 C   0  0  0  0  0  0  0  0  0  0  0  0
   11.0793   44.3758  128.7235 C   0  0  0  0  0  0  0  0  0  0  0  0
    9.8674   43.7579  128.5411 C   0  0  0  0  0  0  0  0  0  0  0  0
    8.7114   44.3698  128.9529 C   0  0  0  0  0  0  0  0  0  0  0  0
    8.7679   45.6107  129.5524 C   0  0  0  0  0  0  0  0  0  0  0  0
    9.8090   42.5211  127.9439 O   0  0  0  0  0  0  0  0  0  0  0  0
    9.8021   41.2773  128.5845 C   0  0  0  0  0  0  0  0  0  0  0  0
    8.9316   41.3836  129.8114 C   0  0  0  0  0  0  0  0  0  0  0  0
    9.4495   42.2408  130.8314 N   0  0  0  0  0  0  0  0  0  0  0  0
    8.5290   42.4833  131.9202 C   0  0  0  0  0  0  0  0  0  0  0  0
    8.9911   43.7010  132.6878 C   0  0  0  0  0  0  0  0  0  0  0  0
   10.4771   43.8669  132.4645 C   0  0  0  0  0  0  0  0  0  0  0  0
   11.1711   42.5242  132.5029 C   0  0  0  0  0  0  0  0  0  0  0  0
   10.6536   41.6599  131.3982 C   0  0  0  0  0  0  0  0  0  0  0  0
 13 14  1  0  0  0
 14 15  2  0  0  0
 15 16  1  0  0  0
 16 17  2  0  0  0
 17 18  1  0  0  0
 18 19  2  0  0  0
 17  1  1  0  0  0
  1  2  1  0  0  0
  2  3  1  0  0  0
  3  4  2  0  0  0
  4  5  1  0  0  0
  5  6  1  0  0  0
  5  7  2  0  0  0
  7  8  1  0  0  0
  8  9  2  0  0  0
  9 10  1  0  0  0
 10 11  1  0  0  0
 11 21  1  0  0  0
 21 22  2  0  0  0
 22 23  1  0  0  0
 23 24  2  0  0  0
 24 27  1  0  0  0
 27 28  1  0  0  0
 28 29  1  0  0  0
 29 30  1  0  0  0
 30 31  1  0  0  0
 31 32  1  0  0  0
 32 33  1  0  0  0
 33 34  1  0  0  0
 34 35  1  0  0  0
 24 25  1  0  0  0
 25 26  2  0  0  0
 19 14  1  0  0  0
 11  1  1  0  0  0
 26 21  1  0  0  0
  9  3  1  0  0  0
 35 30  1  0  0  0
 13 20  1  0  0  0
  6 12  1  0  0  0
M  END
> <minimizedAffinity>
6.81376

> <CNNscore>
0.2892157733

> <CNNaffinity>
7.5418701172

> <CNN_VS>
2.1812276840

> <CNNaffinity_variance>
0.4441051483

$$$$
[H]Oc1c([H])c([H])c([C@@]2([H])Sc3c([H])c(O[H])c([H])c([H])c3O[C@]2([H])c2c([H])c([H])c(OC([H])([H])C([H])([H])N3C([H])([H])C([H])([H])C([H])([H])C([H])([H])C3([H])[H])c([H])c2[H])c([H])c1[H]


 35 39  0  0  0  0  0  0  0  0999 V2000
    8.7905   42.7700  131.8642 C   0  0  0  0  0  0  0  0  0  0  0  0
    8.8094   42.0150  130.2099 S   0  0  0  0  0  0  0  0  0  0  0  0
    9.5160   43.2489  129.1674 C   0  0  0  0  0  0  0  0  0  0  0  0
   10.2881   42.9300  128.1142 C   0  0  0  0  0  0  0  0  0  0  0  0
   10.8582   43.9050  127.2801 C   0  0  0  0  0  0  0  0  0  0  0  0
   11.6537   43.5624  126.1956 O   0  0  0  0  0  0  0  0  0  0  0  0
   10.5975   45.2256  127.5789 C   0  0  0  0  0  0  0  0  0  0  0  0
    9.8023   45.5776  128.6627 C   0  0  0  0  0  0  0  0  0  0  0  0
    9.2578   44.5665  129.4637 C   0  0  0  0  0  0  0  0  0  0  0  0
    8.4717   44.8292  130.5398 O   0  0  0  0  0  0  0  0  0  0  0  0
    8.3144   44.1698  131.7318 C   0  0  0  0  0  0  0  0  0  0  0  0
   12.6571   43.4802  126.4010 H   0  0  0  0  0  0  0  0  0  0  0  0
    5.5347   39.8093  135.4354 O   0  0  0  0  0  0  0  0  0  0  0  0
    6.3550   40.5472  134.5552 C   0  0  0  0  0  0  0  0  0  0  0  0
    7.6396   40.8777  134.8868 C   0  0  0  0  0  0  0  0  0  0  0  0
    8.4227   41.5990  134.0108 C   0  0  0  0  0  0  0  0  0  0  0  0
    7.9518   42.0088  132.7878 C   0  0  0  0  0  0  0  0  0  0  0  0
    6.6610   41.6764  132.4562 C   0  0  0  0  0  0  0  0  0  0  0  0
    5.8576   40.9434  133.3407 C   0  0  0  0  0  0  0  0  0  0  0  0
    4.9575   40.3212  136.1115 H   0  0  0  0  0  0  0  0  0  0  0  0
    8.9062   45.0578  132.8006 C   0  0  0  0  0  0  0  0  0  0  0  0
   10.2547   45.0572  133.0655 C   0  0  0  0  0  0  0  0  0  0  0  0
   10.7994   45.8843  134.0580 C   0  0  0  0  0  0  0  0  0  0  0  0
    9.9709   46.7089  134.7772 C   0  0  0  0  0  0  0  0  0  0  0  0
    8.6228   46.7225  134.5264 C   0  0  0  0  0  0  0  0  0  0  0  0
    8.0987   45.9043  133.5475 C   0  0  0  0  0  0  0  0  0  0  0  0
   10.4912   47.5252  135.7532 O   0  0  0  0  0  0  0  0  0  0  0  0
   10.5388   48.9235  135.7429 C   0  0  0  0  0  0  0  0  0  0  0  0
   11.3729   49.3582  134.5642 C   0  0  0  0  0  0  0  0  0  0  0  0
   10.6430   49.4994  133.3432 N   0  0  0  0  0  0  0  0  0  0  0  0
   10.7269   48.3491  132.4707 C   0  0  0  0  0  0  0  0  0  0  0  0
   10.3041   48.7607  131.0787 C   0  0  0  0  0  0  0  0  0  0  0  0
    9.4090   49.9735  131.1938 C   0  0  0  0  0  0  0  0  0  0  0  0
    8.4593   49.8215  132.3604 C   0  0  0  0  0  0  0  0  0  0  0  0
    9.2383   49.7266  133.6329 C   0  0  0  0  0  0  0  0  0  0  0  0
 13 14  1  0  0  0
 14 15  2  0  0  0
 15 16  1  0  0  0
 16 17  2  0  0  0
 17 18  1  0  0  0
 18 19  2  0  0  0
 17  1  1  0  0  0
  1  2  1  0  0  0
  2  3  1  0  0  0
  3  4  2  0  0  0
  4  5  1  0  0  0
  5  6  1  0  0  0
  5  7  2  0  0  0
  7  8  1  0  0  0
  8  9  2  0  0  0
  9 10  1  0  0  0
 10 11  1  0  0  0
 11 21  1  0  0  0
 21 22  2  0  0  0
 22 23  1  0  0  0
 23 24  2  0  0  0
 24 27  1  0  0  0
 27 28  1  0  0  0
 28 29  1  0  0  0
 29 30  1  0  0  0
 30 31  1  0  0  0
 31 32  1  0  0  0
 32 33  1  0  0  0
 33 34  1  0  0  0
 34 35  1  0  0  0
 24 25  1  0  0  0
 25 26  2  0  0  0
 19 14  1  0  0  0
 11  1  1  0  0  0
 26 21  1  0  0  0
  9  3  1  0  0  0
 35 30  1  0  0  0
 13 20  1  0  0  0
  6 12  1  0  0  0
M  END
> <minimizedAffinity>
24.98907

> <CNNscore>
0.2721398771

> <CNNaffinity>
6.9185333252

> <CNN_VS>
1.8828088045

> <CNNaffinity_variance>
0.6698858142

$$$$
[H]Oc1c([H])c([H])c([C@@]2([H])Sc3c([H])c(O[H])c([H])c([H])c3O[C@]2([H])c2c([H])c([H])c(OC([H])([H])C([H])([H])N3C([H])([H])C([H])([H])C([H])([H])C([H])([H])C3([H])[H])c([H])c2[H])c([H])c1[H]


 35 39  0  0  0  0  0  0  0  0999 V2000
   10.4311   44.3139  131.1381 C   0  0  0  0  0  0  0  0  0  0  0  0
   10.0776   42.6137  131.6780 S   0  0  0  0  0  0  0  0  0  0  0  0
    8.7665   42.7825  132.8447 C   0  0  0  0  0  0  0  0  0  0  0  0
    7.8090   41.8481  132.9752 C   0  0  0  0  0  0  0  0  0  0  0  0
    6.7591   41.9746  133.8988 C   0  0  0  0  0  0  0  0  0  0  0  0
    5.7764   41.0024  134.0237 O   0  0  0  0  0  0  0  0  0  0  0  0
    6.7386   43.1081  134.6835 C   0  0  0  0  0  0  0  0  0  0  0  0
    7.7182   44.0865  134.5650 C   0  0  0  0  0  0  0  0  0  0  0  0
    8.7439   43.9122  133.6281 C   0  0  0  0  0  0  0  0  0  0  0  0
    9.7366   44.8224  133.4522 O   0  0  0  0  0  0  0  0  0  0  0  0
   10.4443   45.1898  132.3366 C   0  0  0  0  0  0  0  0  0  0  0  0
    4.9557   41.1334  133.4196 H   0  0  0  0  0  0  0  0  0  0  0  0
   15.3425   44.5969  128.3243 O   0  0  0  0  0  0  0  0  0  0  0  0
   14.1128   44.5291  129.0138 C   0  0  0  0  0  0  0  0  0  0  0  0
   12.9195   44.6267  128.3539 C   0  0  0  0  0  0  0  0  0  0  0  0
   11.7304   44.5575  129.0483 C   0  0  0  0  0  0  0  0  0  0  0  0
   11.6964   44.3899  130.4108 C   0  0  0  0  0  0  0  0  0  0  0  0
   12.8962   44.2924  131.0725 C   0  0  0  0  0  0  0  0  0  0  0  0
   14.1098   44.3618  130.3745 C   0  0  0  0  0  0  0  0  0  0  0  0
   15.7810   45.5152  128.1946 H   0  0  0  0  0  0  0  0  0  0  0  0
   10.0177   46.5980  131.9961 C   0  0  0  0  0  0  0  0  0  0  0  0
   10.6977   47.3464  131.0654 C   0  0  0  0  0  0  0  0  0  0  0  0
   10.2969   48.6528  130.7518 C   0  0  0  0  0  0  0  0  0  0  0  0
    9.2063   49.1934  131.3859 C   0  0  0  0  0  0  0  0  0  0  0  0
    8.5158   48.4612  132.3173 C   0  0  0  0  0  0  0  0  0  0  0  0
    8.9197   47.1770  132.6173 C   0  0  0  0  0  0  0  0  0  0  0  0
    8.8020   50.4732  131.0883 O   0  0  0  0  0  0  0  0  0  0  0  0
    7.5742   50.8616  130.5413 C   0  0  0  0  0  0  0  0  0  0  0  0
    7.3544   50.0775  129.2721 C   0  0  0  0  0  0  0  0  0  0  0  0
    7.0016   48.7075  129.4770 N   0  0  0  0  0  0  0  0  0  0  0  0
    5.6838   48.3600  128.9931 C   0  0  0  0  0  0  0  0  0  0  0  0
    5.2578   47.0569  129.6304 C   0  0  0  0  0  0  0  0  0  0  0  0
    6.5011   46.2981  130.0352 C   0  0  0  0  0  0  0  0  0  0  0  0
    7.5635   46.4138  128.9657 C   0  0  0  0  0  0  0  0  0  0  0  0
    7.9562   47.8469  128.8012 C   0  0  0  0  0  0  0  0  0  0  0  0
 13 14  1  0  0  0
 14 15  2  0  0  0
 15 16  1  0  0  0
 16 17  2  0  0  0
 17 18  1  0  0  0
 18 19  2  0  0  0
 17  1  1  0  0  0
  1  2  1  0  0  0
  2  3  1  0  0  0
  3  4  2  0  0  0
  4  5  1  0  0  0
  5  6  1  0  0  0
  5  7  2  0  0  0
  7  8  1  0  0  0
  8  9  2  0  0  0
  9 10  1  0  0  0
 10 11  1  0  0  0
 11 21  1  0  0  0
 21 22  2  0  0  0
 22 23  1  0  0  0
 23 24  2  0  0  0
 24 27  1  0  0  0
 27 28  1  0  0  0
 28 29  1  0  0  0
 29 30  1  0  0  0
 30 31  1  0  0  0
 31 32  1  0  0  0
 32 33  1  0  0  0
 33 34  1  0  0  0
 34 35  1  0  0  0
 24 25  1  0  0  0
 25 26  2  0  0  0
 19 14  1  0  0  0
 11  1  1  0  0  0
 26 21  1  0  0  0
  9  3  1  0  0  0
 35 30  1  0  0  0
 13 20  1  0  0  0
  6 12  1  0  0  0
M  END
> <minimizedAffinity>
8.53479

> <CNNscore>
0.2701889575

> <CNNaffinity>
7.3913016319

> <CNN_VS>
1.9970481396

> <CNNaffinity_variance>
0.3136418760

$$$$
[H]Oc1c([H])c([H])c([C@]2([H])Sc3c([H])c(O[H])c([H])c([H])c3O[C@@]2([H])c2c([H])c([H])c(OC([H])([H])C([H])([H])N3C([H])([H])C([H])([H])C([H])([H])C3([H])[H])c([H])c2[H])c([H])c1[H]


 34 38  0  0  0  0  0  0  0  0999 V2000
    9.2294   45.0866  130.0720 C   0  0  0  0  0  0  0  0  0  0  0  0
    7.6184   45.5235  129.3207 S   0  0  0  0  0  0  0  0  0  0  0  0
    7.4325   47.2896  129.4639 C   0  0  0  0  0  0  0  0  0  0  0  0
    6.2298   47.8664  129.2601 C   0  0  0  0  0  0  0  0  0  0  0  0
    6.0826   49.2270  129.3652 C   0  0  0  0  0  0  0  0  0  0  0  0
    4.8543   49.8643  129.1619 O   0  0  0  0  0  0  0  0  0  0  0  0
    7.1571   50.0334  129.6806 C   0  0  0  0  0  0  0  0  0  0  0  0
    8.3881   49.4318  129.8884 C   0  0  0  0  0  0  0  0  0  0  0  0
    8.5107   48.0688  129.7777 C   0  0  0  0  0  0  0  0  0  0  0  0
    9.7109   47.4667  129.9792 O   0  0  0  0  0  0  0  0  0  0  0  0
    9.9277   46.2379  130.6400 C   0  0  0  0  0  0  0  0  0  0  0  0
    4.7332   50.8445  129.2340 H   0  0  0  0  0  0  0  0  0  0  0  0
   12.4173   43.0014  125.8528 O   0  0  0  0  0  0  0  0  0  0  0  0
   11.6102   43.4842  126.8656 C   0  0  0  0  0  0  0  0  0  0  0  0
   10.2849   43.0863  126.9982 C   0  0  0  0  0  0  0  0  0  0  0  0
    9.5200   43.6062  128.0378 C   0  0  0  0  0  0  0  0  0  0  0  0
   10.0441   44.5075  128.9410 C   0  0  0  0  0  0  0  0  0  0  0  0
   11.3609   44.8704  128.7675 C   0  0  0  0  0  0  0  0  0  0  0  0
   12.1459   44.3780  127.7536 C   0  0  0  0  0  0  0  0  0  0  0  0
   12.9606   42.1690  125.9945 H   0  0  0  0  0  0  0  0  0  0  0  0
    9.7277   46.5124  132.0861 C   0  0  0  0  0  0  0  0  0  0  0  0
    8.6822   45.8540  132.7509 C   0  0  0  0  0  0  0  0  0  0  0  0
    8.4243   46.0435  134.0847 C   0  0  0  0  0  0  0  0  0  0  0  0
    9.1995   46.9034  134.8279 C   0  0  0  0  0  0  0  0  0  0  0  0
   10.2247   47.5478  134.1725 C   0  0  0  0  0  0  0  0  0  0  0  0
   10.4889   47.3622  132.8341 C   0  0  0  0  0  0  0  0  0  0  0  0
    8.9852   47.1347  136.1801 O   0  0  0  0  0  0  0  0  0  0  0  0
    9.7609   46.5010  137.1484 C   0  0  0  0  0  0  0  0  0  0  0  0
   10.1425   45.1040  136.8354 C   0  0  0  0  0  0  0  0  0  0  0  0
   10.6067   44.8129  135.5425 N   0  0  0  0  0  0  0  0  0  0  0  0
   10.3394   43.5360  134.9915 C   0  0  0  0  0  0  0  0  0  0  0  0
   11.1218   43.5655  133.6848 C   0  0  0  0  0  0  0  0  0  0  0  0
   12.4137   44.2426  134.1531 C   0  0  0  0  0  0  0  0  0  0  0  0
   11.8835   45.2834  135.1503 C   0  0  0  0  0  0  0  0  0  0  0  0
 13 14  1  0  0  0
 14 15  2  0  0  0
 15 16  1  0  0  0
 16 17  2  0  0  0
 17 18  1  0  0  0
 18 19  2  0  0  0
 17  1  1  0  0  0
  1  2  1  0  0  0
  2  3  1  0  0  0
  3  4  2  0  0  0
  4  5  1  0  0  0
  5  6  1  0  0  0
  5  7  2  0  0  0
  7  8  1  0  0  0
  8  9  2  0  0  0
  9 10  1  0  0  0
 10 11  1  0  0  0
 11 21  1  0  0  0
 21 22  2  0  0  0
 22 23  1  0  0  0
 23 24  2  0  0  0
 24 27  1  0  0  0
 27 28  1  0  0  0
 28 29  1  0  0  0
 29 30  1  0  0  0
 30 31  1  0  0  0
 31 32  1  0  0  0
 32 33  1  0  0  0
 33 34  1  0  0  0
 24 25  1  0  0  0
 25 26  2  0  0  0
 19 14  1  0  0  0
 11  1  1  0  0  0
 26 21  1  0  0  0
  9  3  1  0  0  0
 34 30  1  0  0  0
 13 20  1  0  0  0
  6 12  1  0  0  0
M  END
> <minimizedAffinity>
9.05804

> <CNNscore>
0.4439055324

> <CNNaffinity>
7.8868265152

> <CNN_VS>
3.5010058880

> <CNNaffinity_variance>
1.1604276896

$$$$
[H]Oc1c([H])c([H])c([C@]2([H])Sc3c([H])c(O[H])c([H])c([H])c3O[C@@]2([H])c2c([H])c([H])c(OC([H])([H])C([H])([H])N3C([H])([H])C([H])([H])C([H])([H])C3([H])[H])c([H])c2[H])c([H])c1[H]


 34 38  0  0  0  0  0  0  0  0999 V2000
    9.1366   44.7869  132.1202 C   0  0  0  0  0  0  0  0  0  0  0  0
    7.4268   44.9245  131.4813 S   0  0  0  0  0  0  0  0  0  0  0  0
    7.4107   46.2616  130.3040 C   0  0  0  0  0  0  0  0  0  0  0  0
    6.2400   46.7837  129.8827 C   0  0  0  0  0  0  0  0  0  0  0  0
    6.2225   47.8111  128.9727 C   0  0  0  0  0  0  0  0  0  0  0  0
    5.0316   48.3804  128.5103 O   0  0  0  0  0  0  0  0  0  0  0  0
    7.3973   48.3318  128.4695 C   0  0  0  0  0  0  0  0  0  0  0  0
    8.5946   47.7891  128.9085 C   0  0  0  0  0  0  0  0  0  0  0  0
    8.5867   46.7619  129.8194 C   0  0  0  0  0  0  0  0  0  0  0  0
    9.7526   46.2215  130.2579 O   0  0  0  0  0  0  0  0  0  0  0  0
   10.0348   45.8038  131.5768 C   0  0  0  0  0  0  0  0  0  0  0  0
    5.0035   49.1214  127.8540 H   0  0  0  0  0  0  0  0  0  0  0  0
   11.0143   39.6357  130.6200 O   0  0  0  0  0  0  0  0  0  0  0  0
   10.5293   40.8860  130.9538 C   0  0  0  0  0  0  0  0  0  0  0  0
    9.5045   41.4898  130.2343 C   0  0  0  0  0  0  0  0  0  0  0  0
    9.0568   42.7505  130.6168 C   0  0  0  0  0  0  0  0  0  0  0  0
    9.6048   43.4171  131.6929 C   0  0  0  0  0  0  0  0  0  0  0  0
   10.6168   42.7777  132.3733 C   0  0  0  0  0  0  0  0  0  0  0  0
   11.0840   41.5340  132.0246 C   0  0  0  0  0  0  0  0  0  0  0  0
   10.6064   38.8121  131.0243 H   0  0  0  0  0  0  0  0  0  0  0  0
   10.2160   47.0478  132.3681 C   0  0  0  0  0  0  0  0  0  0  0  0
   10.2256   48.2748  131.6877 C   0  0  0  0  0  0  0  0  0  0  0  0
   10.3844   49.4734  132.3354 C   0  0  0  0  0  0  0  0  0  0  0  0
   10.5425   49.5104  133.7015 C   0  0  0  0  0  0  0  0  0  0  0  0
   10.5325   48.3047  134.3662 C   0  0  0  0  0  0  0  0  0  0  0  0
   10.3736   47.0981  133.7222 C   0  0  0  0  0  0  0  0  0  0  0  0
   10.7076   50.6932  134.4100 O   0  0  0  0  0  0  0  0  0  0  0  0
   11.8304   51.4949  134.2166 C   0  0  0  0  0  0  0  0  0  0  0  0
   12.8368   51.4429  135.3028 C   0  0  0  0  0  0  0  0  0  0  0  0
   13.0372   50.2231  135.9688 N   0  0  0  0  0  0  0  0  0  0  0  0
   13.4023   50.2429  137.3369 C   0  0  0  0  0  0  0  0  0  0  0  0
   13.6703   48.7728  137.6326 C   0  0  0  0  0  0  0  0  0  0  0  0
   14.4280   48.3707  136.3634 C   0  0  0  0  0  0  0  0  0  0  0  0
   13.6801   49.1646  135.2820 C   0  0  0  0  0  0  0  0  0  0  0  0
 13 14  1  0  0  0
 14 15  2  0  0  0
 15 16  1  0  0  0
 16 17  2  0  0  0
 17 18  1  0  0  0
 18 19  2  0  0  0
 17  1  1  0  0  0
  1  2  1  0  0  0
  2  3  1  0  0  0
  3  4  2  0  0  0
  4  5  1  0  0  0
  5  6  1  0  0  0
  5  7  2  0  0  0
  7  8  1  0  0  0
  8  9  2  0  0  0
  9 10  1  0  0  0
 10 11  1  0  0  0
 11 21  1  0  0  0
 21 22  2  0  0  0
 22 23  1  0  0  0
 23 24  2  0  0  0
 24 27  1  0  0  0
 27 28  1  0  0  0
 28 29  1  0  0  0
 29 30  1  0  0  0
 30 31  1  0  0  0
 31 32  1  0  0  0
 32 33  1  0  0  0
 33 34  1  0  0  0
 24 25  1  0  0  0
 25 26  2  0  0  0
 19 14  1  0  0  0
 11  1  1  0  0  0
 26 21  1  0  0  0
  9  3  1  0  0  0
 34 30  1  0  0  0
 13 20  1  0  0  0
  6 12  1  0  0  0
M  END
> <minimizedAffinity>
26.89647

> <CNNscore>
0.4362236559

> <CNNaffinity>
7.3729338646

> <CNN_VS>
3.2162482738

> <CNNaffinity_variance>
1.6040632725

$$$$
[H]Oc1c([H])c([H])c([C@]2([H])Sc3c([H])c(O[H])c([H])c([H])c3O[C@@]2([H])c2c([H])c([H])c(OC([H])([H])C([H])([H])N3C([H])([H])C([H])([H])C([H])([H])C3([H])[H])c([H])c2[H])c([H])c1[H]


 34 38  0  0  0  0  0  0  0  0999 V2000
    8.5682   43.1996  131.5858 C   0  0  0  0  0  0  0  0  0  0  0  0
   10.3498   42.8890  131.8690 S   0  0  0  0  0  0  0  0  0  0  0  0
   11.0687   44.4203  132.4282 C   0  0  0  0  0  0  0  0  0  0  0  0
   12.4087   44.5778  132.4433 C   0  0  0  0  0  0  0  0  0  0  0  0
   12.9673   45.7541  132.8772 C   0  0  0  0  0  0  0  0  0  0  0  0
   14.3506   45.9582  132.9088 O   0  0  0  0  0  0  0  0  0  0  0  0
   12.1744   46.7989  133.3062 C   0  0  0  0  0  0  0  0  0  0  0  0
   10.7993   46.6277  133.2867 C   0  0  0  0  0  0  0  0  0  0  0  0
   10.2638   45.4418  132.8484 C   0  0  0  0  0  0  0  0  0  0  0  0
    8.9182   45.2613  132.8238 O   0  0  0  0  0  0  0  0  0  0  0  0
    8.1845   44.5900  131.8215 C   0  0  0  0  0  0  0  0  0  0  0  0
   14.7676   46.8010  133.2194 H   0  0  0  0  0  0  0  0  0  0  0  0
    5.7560   39.8170  135.1860 O   0  0  0  0  0  0  0  0  0  0  0  0
    6.4707   40.6429  134.3391 C   0  0  0  0  0  0  0  0  0  0  0  0
    7.6897   41.1966  134.7130 C   0  0  0  0  0  0  0  0  0  0  0  0
    8.3645   42.0213  133.8183 C   0  0  0  0  0  0  0  0  0  0  0  0
    7.8540   42.3036  132.5683 C   0  0  0  0  0  0  0  0  0  0  0  0
    6.6441   41.7315  132.2448 C   0  0  0  0  0  0  0  0  0  0  0  0
    5.9500   40.9129  133.1020 C   0  0  0  0  0  0  0  0  0  0  0  0
    5.9081   38.8247  135.1697 H   0  0  0  0  0  0  0  0  0  0  0  0
    8.1683   45.5019  130.6489 C   0  0  0  0  0  0  0  0  0  0  0  0
    9.2576   46.3659  130.4617 C   0  0  0  0  0  0  0  0  0  0  0  0
    9.3300   47.2399  129.4071 C   0  0  0  0  0  0  0  0  0  0  0  0
    8.3149   47.2975  128.4802 C   0  0  0  0  0  0  0  0  0  0  0  0
    7.2474   46.4481  128.6668 C   0  0  0  0  0  0  0  0  0  0  0  0
    7.1685   45.5686  129.7232 C   0  0  0  0  0  0  0  0  0  0  0  0
    8.3338   48.1618  127.3936 O   0  0  0  0  0  0  0  0  0  0  0  0
    7.6280   49.3627  127.4195 C   0  0  0  0  0  0  0  0  0  0  0  0
    7.6463   50.0767  128.7176 C   0  0  0  0  0  0  0  0  0  0  0  0
    6.4205   50.4573  129.2871 N   0  0  0  0  0  0  0  0  0  0  0  0
    6.4108   51.4737  130.2731 C   0  0  0  0  0  0  0  0  0  0  0  0
    4.9591   51.4781  130.7344 C   0  0  0  0  0  0  0  0  0  0  0  0
    4.6855   49.9721  130.7956 C   0  0  0  0  0  0  0  0  0  0  0  0
    5.4569   49.4590  129.5706 C   0  0  0  0  0  0  0  0  0  0  0  0
 13 14  1  0  0  0
 14 15  2  0  0  0
 15 16  1  0  0  0
 16 17  2  0  0  0
 17 18  1  0  0  0
 18 19  2  0  0  0
 17  1  1  0  0  0
  1  2  1  0  0  0
  2  3  1  0  0  0
  3  4  2  0  0  0
  4  5  1  0  0  0
  5  6  1  0  0  0
  5  7  2  0  0  0
  7  8  1  0  0  0
  8  9  2  0  0  0
  9 10  1  0  0  0
 10 11  1  0  0  0
 11 21  1  0  0  0
 21 22  2  0  0  0
 22 23  1  0  0  0
 23 24  2  0  0  0
 24 27  1  0  0  0
 27 28  1  0  0  0
 28 29  1  0  0  0
 29 30  1  0  0  0
 30 31  1  0  0  0
 31 32  1  0  0  0
 32 33  1  0  0  0
 33 34  1  0  0  0
 24 25  1  0  0  0
 25 26  2  0  0  0
 19 14  1  0  0  0
 11  1  1  0  0  0
 26 21  1  0  0  0
  9  3  1  0  0  0
 34 30  1  0  0  0
 13 20  1  0  0  0
  6 12  1  0  0  0
M  END
> <minimizedAffinity>
23.31396

> <CNNscore>
0.4254941344

> <CNNaffinity>
7.3695945740

> <CNN_VS>
3.1357192993

> <CNNaffinity_variance>
2.3655753136

$$$$
[H]Oc1c([H])c([H])c([C@]2([H])Sc3c([H])c(O[H])c([H])c([H])c3O[C@@]2([H])c2c([H])c([H])c(OC([H])([H])C([H])([H])N3C([H])([H])C([H])([H])C([H])([H])C3([H])[H])c([H])c2[H])c([H])c1[H]


 34 38  0  0  0  0  0  0  0  0999 V2000
    8.2872   46.6404  130.1630 C   0  0  0  0  0  0  0  0  0  0  0  0
    8.0511   46.1676  131.9155 S   0  0  0  0  0  0  0  0  0  0  0  0
    9.6497   45.7144  132.5584 C   0  0  0  0  0  0  0  0  0  0  0  0
    9.7497   45.0528  133.7302 C   0  0  0  0  0  0  0  0  0  0  0  0
   10.9792   44.7052  134.2315 C   0  0  0  0  0  0  0  0  0  0  0  0
   11.1269   44.0195  135.4415 O   0  0  0  0  0  0  0  0  0  0  0  0
   12.1371   45.0230  133.5513 C   0  0  0  0  0  0  0  0  0  0  0  0
   12.0242   45.7024  132.3487 C   0  0  0  0  0  0  0  0  0  0  0  0
   10.7833   46.0393  131.8674 C   0  0  0  0  0  0  0  0  0  0  0  0
   10.6586   46.7045  130.6902 O   0  0  0  0  0  0  0  0  0  0  0  0
    9.6676   46.4852  129.7087 C   0  0  0  0  0  0  0  0  0  0  0  0
   12.0070   43.7625  135.8156 H   0  0  0  0  0  0  0  0  0  0  0  0
    6.7394   52.0949  129.7574 O   0  0  0  0  0  0  0  0  0  0  0  0
    7.1331   50.7771  129.8935 C   0  0  0  0  0  0  0  0  0  0  0  0
    7.8587   50.3399  130.9956 C   0  0  0  0  0  0  0  0  0  0  0  0
    8.2279   49.0009  131.0786 C   0  0  0  0  0  0  0  0  0  0  0  0
    7.8918   48.0955  130.0938 C   0  0  0  0  0  0  0  0  0  0  0  0
    7.1729   48.5769  129.0226 C   0  0  0  0  0  0  0  0  0  0  0  0
    6.7914   49.8913  128.9072 C   0  0  0  0  0  0  0  0  0  0  0  0
    5.8549   52.3973  130.1239 H   0  0  0  0  0  0  0  0  0  0  0  0
   10.0281   45.2063  129.0446 C   0  0  0  0  0  0  0  0  0  0  0  0
    9.0519   44.2024  128.9578 C   0  0  0  0  0  0  0  0  0  0  0  0
    9.2936   42.9914  128.3607 C   0  0  0  0  0  0  0  0  0  0  0  0
   10.5273   42.7180  127.8165 C   0  0  0  0  0  0  0  0  0  0  0  0
   11.4830   43.7054  127.9033 C   0  0  0  0  0  0  0  0  0  0  0  0
   11.2469   44.9229  128.5014 C   0  0  0  0  0  0  0  0  0  0  0  0
   10.8292   41.5108  127.2005 O   0  0  0  0  0  0  0  0  0  0  0  0
    9.8207   40.6782  126.7203 C   0  0  0  0  0  0  0  0  0  0  0  0
   10.1732   39.2411  126.6426 C   0  0  0  0  0  0  0  0  0  0  0  0
   11.3732   38.8819  126.0079 N   0  0  0  0  0  0  0  0  0  0  0  0
   12.4192   38.3287  126.7858 C   0  0  0  0  0  0  0  0  0  0  0  0
   13.5629   38.2281  125.7847 C   0  0  0  0  0  0  0  0  0  0  0  0
   13.4095   39.5670  125.0564 C   0  0  0  0  0  0  0  0  0  0  0  0
   11.8825   39.7152  124.9825 C   0  0  0  0  0  0  0  0  0  0  0  0
 13 14  1  0  0  0
 14 15  2  0  0  0
 15 16  1  0  0  0
 16 17  2  0  0  0
 17 18  1  0  0  0
 18 19  2  0  0  0
 17  1  1  0  0  0
  1  2  1  0  0  0
  2  3  1  0  0  0
  3  4  2  0  0  0
  4  5  1  0  0  0
  5  6  1  0  0  0
  5  7  2  0  0  0
  7  8  1  0  0  0
  8  9  2  0  0  0
  9 10  1  0  0  0
 10 11  1  0  0  0
 11 21  1  0  0  0
 21 22  2  0  0  0
 22 23  1  0  0  0
 23 24  2  0  0  0
 24 27  1  0  0  0
 27 28  1  0  0  0
 28 29  1  0  0  0
 29 30  1  0  0  0
 30 31  1  0  0  0
 31 32  1  0  0  0
 32 33  1  0  0  0
 33 34  1  0  0  0
 24 25  1  0  0  0
 25 26  2  0  0  0
 19 14  1  0  0  0
 11  1  1  0  0  0
 26 21  1  0  0  0
  9  3  1  0  0  0
 34 30  1  0  0  0
 13 20  1  0  0  0
  6 12  1  0  0  0
M  END
> <minimizedAffinity>
8.69033

> <CNNscore>
0.3985725641

> <CNNaffinity>
7.3388776779

> <CNN_VS>
2.9250752926

> <CNNaffinity_variance>
0.3514600396

$$$$
[H]Oc1c([H])c([H])c([C@]2([H])Sc3c([H])c(O[H])c([H])c([H])c3O[C@@]2([H])c2c([H])c([H])c(OC([H])([H])C([H])([H])N3C([H])([H])C([H])([H])C([H])([H])C3([H])[H])c([H])c2[H])c([H])c1[H]


 34 38  0  0  0  0  0  0  0  0999 V2000
    8.9948   43.6574  130.2852 C   0  0  0  0  0  0  0  0  0  0  0  0
    7.6477   44.6296  129.5164 S   0  0  0  0  0  0  0  0  0  0  0  0
    8.1927   46.3245  129.4514 C   0  0  0  0  0  0  0  0  0  0  0  0
    7.3102   47.3144  129.2021 C   0  0  0  0  0  0  0  0  0  0  0  0
    7.7261   48.6212  129.1469 C   0  0  0  0  0  0  0  0  0  0  0  0
    6.8445   49.6765  128.8913 O   0  0  0  0  0  0  0  0  0  0  0  0
    9.0513   48.9518  129.3444 C   0  0  0  0  0  0  0  0  0  0  0  0
    9.9500   47.9283  129.6001 C   0  0  0  0  0  0  0  0  0  0  0  0
    9.5103   46.6287  129.6505 C   0  0  0  0  0  0  0  0  0  0  0  0
   10.3803   45.6166  129.9006 O   0  0  0  0  0  0  0  0  0  0  0  0
   10.1302   44.4793  130.6991 C   0  0  0  0  0  0  0  0  0  0  0  0
    7.1301   50.6237  128.8482 H   0  0  0  0  0  0  0  0  0  0  0  0
   10.6509   39.8849  126.3689 O   0  0  0  0  0  0  0  0  0  0  0  0
   10.2517   40.8327  127.2922 C   0  0  0  0  0  0  0  0  0  0  0  0
   10.1785   42.1830  126.9703 C   0  0  0  0  0  0  0  0  0  0  0  0
    9.7699   43.0919  127.9414 C   0  0  0  0  0  0  0  0  0  0  0  0
    9.4353   42.6865  129.2167 C   0  0  0  0  0  0  0  0  0  0  0  0
    9.5238   41.3392  129.4864 C   0  0  0  0  0  0  0  0  0  0  0  0
    9.9230   40.4136  128.5534 C   0  0  0  0  0  0  0  0  0  0  0  0
    9.9715   39.4344  125.7828 H   0  0  0  0  0  0  0  0  0  0  0  0
   10.1505   44.9569  132.1056 C   0  0  0  0  0  0  0  0  0  0  0  0
    8.9722   44.8559  132.8605 C   0  0  0  0  0  0  0  0  0  0  0  0
    8.8981   45.2688  134.1665 C   0  0  0  0  0  0  0  0  0  0  0  0
   10.0006   45.8060  134.7899 C   0  0  0  0  0  0  0  0  0  0  0  0
   11.1553   45.9035  134.0463 C   0  0  0  0  0  0  0  0  0  0  0  0
   11.2364   45.4911  132.7352 C   0  0  0  0  0  0  0  0  0  0  0  0
    9.9844   46.2408  136.1086 O   0  0  0  0  0  0  0  0  0  0  0  0
    9.4152   47.4646  136.4538 C   0  0  0  0  0  0  0  0  0  0  0  0
    8.5532   48.0745  135.4144 C   0  0  0  0  0  0  0  0  0  0  0  0
    9.1195   48.3610  134.1618 N   0  0  0  0  0  0  0  0  0  0  0  0
   10.3147   49.1188  134.1089 C   0  0  0  0  0  0  0  0  0  0  0  0
   10.5058   49.3376  132.6136 C   0  0  0  0  0  0  0  0  0  0  0  0
    9.0647   49.6443  132.1942 C   0  0  0  0  0  0  0  0  0  0  0  0
    8.2638   48.6772  133.0786 C   0  0  0  0  0  0  0  0  0  0  0  0
 13 14  1  0  0  0
 14 15  2  0  0  0
 15 16  1  0  0  0
 16 17  2  0  0  0
 17 18  1  0  0  0
 18 19  2  0  0  0
 17  1  1  0  0  0
  1  2  1  0  0  0
  2  3  1  0  0  0
  3  4  2  0  0  0
  4  5  1  0  0  0
  5  6  1  0  0  0
  5  7  2  0  0  0
  7  8  1  0  0  0
  8  9  2  0  0  0
  9 10  1  0  0  0
 10 11  1  0  0  0
 11 21  1  0  0  0
 21 22  2  0  0  0
 22 23  1  0  0  0
 23 24  2  0  0  0
 24 27  1  0  0  0
 27 28  1  0  0  0
 28 29  1  0  0  0
 29 30  1  0  0  0
 30 31  1  0  0  0
 31 32  1  0  0  0
 32 33  1  0  0  0
 33 34  1  0  0  0
 24 25  1  0  0  0
 25 26  2  0  0  0
 19 14  1  0  0  0
 11  1  1  0  0  0
 26 21  1  0  0  0
  9  3  1  0  0  0
 34 30  1  0  0  0
 13 20  1  0  0  0
  6 12  1  0  0  0
M  END
> <minimizedAffinity>
13.91200

> <CNNscore>
0.3653942049

> <CNNaffinity>
7.4009461403

> <CNN_VS>
2.7042627335

> <CNNaffinity_variance>
0.8737418056

$$$$
[H]Oc1c([H])c([H])c([C@]2([H])Sc3c([H])c(O[H])c([H])c([H])c3O[C@@]2([H])c2c([H])c([H])c(OC([H])([H])C([H])([H])N3C([H])([H])C([H])([H])C([H])([H])C3([H])[H])c([H])c2[H])c([H])c1[H]


 34 38  0  0  0  0  0  0  0  0999 V2000
   10.6644   45.0568  130.0541 C   0  0  0  0  0  0  0  0  0  0  0  0
   12.3374   45.0140  130.7956 S   0  0  0  0  0  0  0  0  0  0  0  0
   12.1796   45.5637  132.4830 C   0  0  0  0  0  0  0  0  0  0  0  0
   13.2746   45.9092  133.1917 C   0  0  0  0  0  0  0  0  0  0  0  0
   13.1584   46.3292  134.4933 C   0  0  0  0  0  0  0  0  0  0  0  0
   14.2673   46.6962  135.2626 O   0  0  0  0  0  0  0  0  0  0  0  0
   11.9237   46.4077  135.1047 C   0  0  0  0  0  0  0  0  0  0  0  0
   10.8050   46.0510  134.3686 C   0  0  0  0  0  0  0  0  0  0  0  0
   10.9464   45.6339  133.0681 C   0  0  0  0  0  0  0  0  0  0  0  0
    9.8585   45.2821  132.3357 O   0  0  0  0  0  0  0  0  0  0  0  0
    9.6450   45.5662  130.9692 C   0  0  0  0  0  0  0  0  0  0  0  0
   14.1988   47.0007  136.2023 H   0  0  0  0  0  0  0  0  0  0  0  0
    9.5368   39.6120  128.8733 O   0  0  0  0  0  0  0  0  0  0  0  0
    9.8044   40.9453  129.1198 C   0  0  0  0  0  0  0  0  0  0  0  0
    9.7981   41.8934  128.1033 C   0  0  0  0  0  0  0  0  0  0  0  0
   10.0752   43.2218  128.4111 C   0  0  0  0  0  0  0  0  0  0  0  0
   10.3564   43.6220  129.7009 C   0  0  0  0  0  0  0  0  0  0  0  0
   10.3505   42.6461  130.6722 C   0  0  0  0  0  0  0  0  0  0  0  0
   10.0815   41.3259  130.4054 C   0  0  0  0  0  0  0  0  0  0  0  0
    8.5944   39.2692  128.9235 H   0  0  0  0  0  0  0  0  0  0  0  0
    9.3279   47.0158  130.8994 C   0  0  0  0  0  0  0  0  0  0  0  0
    8.3524   47.5270  131.7685 C   0  0  0  0  0  0  0  0  0  0  0  0
    7.9965   48.8516  131.7766 C   0  0  0  0  0  0  0  0  0  0  0  0
    8.5981   49.7390  130.9144 C   0  0  0  0  0  0  0  0  0  0  0  0
    9.5551   49.2341  130.0629 C   0  0  0  0  0  0  0  0  0  0  0  0
    9.9169   47.9057  130.0496 C   0  0  0  0  0  0  0  0  0  0  0  0
    8.2782   51.0897  130.8777 O   0  0  0  0  0  0  0  0  0  0  0  0
    7.1407   51.5400  130.2110 C   0  0  0  0  0  0  0  0  0  0  0  0
    6.9587   51.0035  128.8420 C   0  0  0  0  0  0  0  0  0  0  0  0
    6.2907   49.7778  128.6891 N   0  0  0  0  0  0  0  0  0  0  0  0
    5.4217   49.3396  129.7178 C   0  0  0  0  0  0  0  0  0  0  0  0
    5.0331   47.9416  129.2542 C   0  0  0  0  0  0  0  0  0  0  0  0
    6.3882   47.4310  128.7547 C   0  0  0  0  0  0  0  0  0  0  0  0
    6.9812   48.6891  128.1031 C   0  0  0  0  0  0  0  0  0  0  0  0
 13 14  1  0  0  0
 14 15  2  0  0  0
 15 16  1  0  0  0
 16 17  2  0  0  0
 17 18  1  0  0  0
 18 19  2  0  0  0
 17  1  1  0  0  0
  1  2  1  0  0  0
  2  3  1  0  0  0
  3  4  2  0  0  0
  4  5  1  0  0  0
  5  6  1  0  0  0
  5  7  2  0  0  0
  7  8  1  0  0  0
  8  9  2  0  0  0
  9 10  1  0  0  0
 10 11  1  0  0  0
 11 21  1  0  0  0
 21 22  2  0  0  0
 22 23  1  0  0  0
 23 24  2  0  0  0
 24 27  1  0  0  0
 27 28  1  0  0  0
 28 29  1  0  0  0
 29 30  1  0  0  0
 30 31  1  0  0  0
 31 32  1  0  0  0
 32 33  1  0  0  0
 33 34  1  0  0  0
 24 25  1  0  0  0
 25 26  2  0  0  0
 19 14  1  0  0  0
 11  1  1  0  0  0
 26 21  1  0  0  0
  9  3  1  0  0  0
 34 30  1  0  0  0
 13 20  1  0  0  0
  6 12  1  0  0  0
M  END
> <minimizedAffinity>
10.31464

> <CNNscore>
0.3453467190

> <CNNaffinity>
7.4029798508

> <CNN_VS>
2.5565948486

> <CNNaffinity_variance>
1.0309995413

$$$$
[H]Oc1c([H])c([H])c([C@]2([H])Sc3c([H])c(O[H])c([H])c([H])c3O[C@@]2([H])c2c([H])c([H])c(OC([H])([H])C([H])([H])N3C([H])([H])C([H])([H])C([H])([H])C3([H])[H])c([H])c2[H])c([H])c1[H]


 34 38  0  0  0  0  0  0  0  0999 V2000
    9.7737   47.9920  133.2737 C   0  0  0  0  0  0  0  0  0  0  0  0
    8.9960   49.1887  132.1274 S   0  0  0  0  0  0  0  0  0  0  0  0
    8.1605   48.2449  130.8683 C   0  0  0  0  0  0  0  0  0  0  0  0
    7.7413   48.8439  129.7341 C   0  0  0  0  0  0  0  0  0  0  0  0
    7.0935   48.1218  128.7631 C   0  0  0  0  0  0  0  0  0  0  0  0
    6.6431   48.7037  127.5737 O   0  0  0  0  0  0  0  0  0  0  0  0
    6.8569   46.7718  128.9236 C   0  0  0  0  0  0  0  0  0  0  0  0
    7.2914   46.1655  130.0917 C   0  0  0  0  0  0  0  0  0  0  0  0
    7.9373   46.9086  131.0486 C   0  0  0  0  0  0  0  0  0  0  0  0
    8.3685   46.3269  132.1972 O   0  0  0  0  0  0  0  0  0  0  0  0
    9.5803   46.6013  132.8678 C   0  0  0  0  0  0  0  0  0  0  0  0
    6.1742   48.1957  126.8647 H   0  0  0  0  0  0  0  0  0  0  0  0
    7.1551   49.0061  138.2160 O   0  0  0  0  0  0  0  0  0  0  0  0
    7.8148   48.7298  137.0334 C   0  0  0  0  0  0  0  0  0  0  0  0
    8.8293   47.7819  136.9652 C   0  0  0  0  0  0  0  0  0  0  0  0
    9.4582   47.5460  135.7466 C   0  0  0  0  0  0  0  0  0  0  0  0
    9.1002   48.2298  134.6034 C   0  0  0  0  0  0  0  0  0  0  0  0
    8.0903   49.1582  134.7222 C   0  0  0  0  0  0  0  0  0  0  0  0
    7.4473   49.4172  135.9079 C   0  0  0  0  0  0  0  0  0  0  0  0
    6.3280   48.4935  138.4636 H   0  0  0  0  0  0  0  0  0  0  0  0
   10.6497   45.9740  132.0495 C   0  0  0  0  0  0  0  0  0  0  0  0
   11.4067   44.9406  132.6216 C   0  0  0  0  0  0  0  0  0  0  0  0
   12.4119   44.3020  131.9409 C   0  0  0  0  0  0  0  0  0  0  0  0
   12.7153   44.6628  130.6484 C   0  0  0  0  0  0  0  0  0  0  0  0
   11.9704   45.6772  130.0900 C   0  0  0  0  0  0  0  0  0  0  0  0
   10.9602   46.3223  130.7676 C   0  0  0  0  0  0  0  0  0  0  0  0
   13.7214   44.0525  129.9114 O   0  0  0  0  0  0  0  0  0  0  0  0
   13.4841   43.5889  128.6192 C   0  0  0  0  0  0  0  0  0  0  0  0
   12.3590   44.2435  127.9114 C   0  0  0  0  0  0  0  0  0  0  0  0
   11.0723   43.7005  128.0579 N   0  0  0  0  0  0  0  0  0  0  0  0
    9.9507   44.5037  127.7381 C   0  0  0  0  0  0  0  0  0  0  0  0
    8.7799   43.6302  128.1702 C   0  0  0  0  0  0  0  0  0  0  0  0
    9.3192   43.0837  129.4958 C   0  0  0  0  0  0  0  0  0  0  0  0
   10.8036   42.8638  129.1684 C   0  0  0  0  0  0  0  0  0  0  0  0
 13 14  1  0  0  0
 14 15  2  0  0  0
 15 16  1  0  0  0
 16 17  2  0  0  0
 17 18  1  0  0  0
 18 19  2  0  0  0
 17  1  1  0  0  0
  1  2  1  0  0  0
  2  3  1  0  0  0
  3  4  2  0  0  0
  4  5  1  0  0  0
  5  6  1  0  0  0
  5  7  2  0  0  0
  7  8  1  0  0  0
  8  9  2  0  0  0
  9 10  1  0  0  0
 10 11  1  0  0  0
 11 21  1  0  0  0
 21 22  2  0  0  0
 22 23  1  0  0  0
 23 24  2  0  0  0
 24 27  1  0  0  0
 27 28  1  0  0  0
 28 29  1  0  0  0
 29 30  1  0  0  0
 30 31  1  0  0  0
 31 32  1  0  0  0
 32 33  1  0  0  0
 33 34  1  0  0  0
 24 25  1  0  0  0
 25 26  2  0  0  0
 19 14  1  0  0  0
 11  1  1  0  0  0
 26 21  1  0  0  0
  9  3  1  0  0  0
 34 30  1  0  0  0
 13 20  1  0  0  0
  6 12  1  0  0  0
M  END
> <minimizedAffinity>
16.40615

> <CNNscore>
0.3413026929

> <CNNaffinity>
7.4589486122

> <CNN_VS>
2.5457592010

> <CNNaffinity_variance>
0.7656537890

$$$$
[H]Oc1c([H])c([H])c([C@]2([H])Sc3c([H])c(O[H])c([H])c([H])c3O[C@@]2([H])c2c([H])c([H])c(OC([H])([H])C([H])([H])N3C([H])([H])C([H])([H])C([H])([H])C3([H])[H])c([H])c2[H])c([H])c1[H]


 34 38  0  0  0  0  0  0  0  0999 V2000
   10.8283   45.3330  131.9063 C   0  0  0  0  0  0  0  0  0  0  0  0
   11.4927   45.6326  133.5854 S   0  0  0  0  0  0  0  0  0  0  0  0
   10.1729   46.3316  134.5568 C   0  0  0  0  0  0  0  0  0  0  0  0
   10.4376   46.9188  135.7426 C   0  0  0  0  0  0  0  0  0  0  0  0
    9.4236   47.4549  136.4964 C   0  0  0  0  0  0  0  0  0  0  0  0
    9.6547   48.0720  137.7301 O   0  0  0  0  0  0  0  0  0  0  0  0
    8.1151   47.4062  136.0607 C   0  0  0  0  0  0  0  0  0  0  0  0
    7.8533   46.8014  134.8416 C   0  0  0  0  0  0  0  0  0  0  0  0
    8.8843   46.2722  134.1053 C   0  0  0  0  0  0  0  0  0  0  0  0
    8.6416   45.6774  132.9090 O   0  0  0  0  0  0  0  0  0  0  0  0
    9.4436   45.7740  131.7510 C   0  0  0  0  0  0  0  0  0  0  0  0
    8.9334   48.4627  138.2848 H   0  0  0  0  0  0  0  0  0  0  0  0
   11.0159   39.7127  131.0759 O   0  0  0  0  0  0  0  0  0  0  0  0
   10.9986   41.0749  131.3087 C   0  0  0  0  0  0  0  0  0  0  0  0
   11.7539   41.6542  132.3219 C   0  0  0  0  0  0  0  0  0  0  0  0
   11.6964   43.0316  132.5097 C   0  0  0  0  0  0  0  0  0  0  0  0
   10.9080   43.8378  131.7152 C   0  0  0  0  0  0  0  0  0  0  0  0
   10.1790   43.2172  130.7256 C   0  0  0  0  0  0  0  0  0  0  0  0
   10.2109   41.8609  130.5112 C   0  0  0  0  0  0  0  0  0  0  0  0
   11.6837   39.3186  130.4381 H   0  0  0  0  0  0  0  0  0  0  0  0
    9.2185   47.1401  131.2126 C   0  0  0  0  0  0  0  0  0  0  0  0
    8.3499   47.9952  131.9073 C   0  0  0  0  0  0  0  0  0  0  0  0
    8.0840   49.2733  131.4863 C   0  0  0  0  0  0  0  0  0  0  0  0
    8.6736   49.7669  130.3455 C   0  0  0  0  0  0  0  0  0  0  0  0
    9.5256   48.9252  129.6662 C   0  0  0  0  0  0  0  0  0  0  0  0
    9.7967   47.6413  130.0832 C   0  0  0  0  0  0  0  0  0  0  0  0
    8.4418   51.0514  129.8718 O   0  0  0  0  0  0  0  0  0  0  0  0
    7.2068   51.4057  129.3332 C   0  0  0  0  0  0  0  0  0  0  0  0
    6.5776   50.3789  128.4699 C   0  0  0  0  0  0  0  0  0  0  0  0
    6.2956   49.1209  129.0266 N   0  0  0  0  0  0  0  0  0  0  0  0
    6.7814   47.9608  128.3758 C   0  0  0  0  0  0  0  0  0  0  0  0
    6.1462   46.8349  129.1815 C   0  0  0  0  0  0  0  0  0  0  0  0
    4.7356   47.3993  129.3779 C   0  0  0  0  0  0  0  0  0  0  0  0
    5.0185   48.8932  129.5945 C   0  0  0  0  0  0  0  0  0  0  0  0
 13 14  1  0  0  0
 14 15  2  0  0  0
 15 16  1  0  0  0
 16 17  2  0  0  0
 17 18  1  0  0  0
 18 19  2  0  0  0
 17  1  1  0  0  0
  1  2  1  0  0  0
  2  3  1  0  0  0
  3  4  2  0  0  0
  4  5  1  0  0  0
  5  6  1  0  0  0
  5  7  2  0  0  0
  7  8  1  0  0  0
  8  9  2  0  0  0
  9 10  1  0  0  0
 10 11  1  0  0  0
 11 21  1  0  0  0
 21 22  2  0  0  0
 22 23  1  0  0  0
 23 24  2  0  0  0
 24 27  1  0  0  0
 27 28  1  0  0  0
 28 29  1  0  0  0
 29 30  1  0  0  0
 30 31  1  0  0  0
 31 32  1  0  0  0
 32 33  1  0  0  0
 33 34  1  0  0  0
 24 25  1  0  0  0
 25 26  2  0  0  0
 19 14  1  0  0  0
 11  1  1  0  0  0
 26 21  1  0  0  0
  9  3  1  0  0  0
 34 30  1  0  0  0
 13 20  1  0  0  0
  6 12  1  0  0  0
M  END
> <minimizedAffinity>
10.39691

> <CNNscore>
0.3367208540

> <CNNaffinity>
7.4448714256

> <CNN_VS>
2.5068435669

> <CNNaffinity_variance>
1.1071956158

$$$$
[H]Oc1c([H])c([H])c([C@]2([H])Sc3c([H])c(O[H])c([H])c([H])c3O[C@@]2([H])c2c([H])c([H])c(OC([H])([H])C([H])([H])N3C([H])([H])C([H])([H])C([H])([H])C3([H])[H])c([H])c2[H])c([H])c1[H]


 34 38  0  0  0  0  0  0  0  0999 V2000
    8.4871   44.1987  132.2348 C   0  0  0  0  0  0  0  0  0  0  0  0
    9.3761   43.5391  130.7769 S   0  0  0  0  0  0  0  0  0  0  0  0
   11.0896   43.9930  130.9555 C   0  0  0  0  0  0  0  0  0  0  0  0
   11.9324   43.8963  129.9061 C   0  0  0  0  0  0  0  0  0  0  0  0
   13.2543   44.2409  130.0399 C   0  0  0  0  0  0  0  0  0  0  0  0
   14.1606   44.1555  128.9781 O   0  0  0  0  0  0  0  0  0  0  0  0
   13.7499   44.6925  131.2461 C   0  0  0  0  0  0  0  0  0  0  0  0
   12.8766   44.7887  132.3178 C   0  0  0  0  0  0  0  0  0  0  0  0
   11.5585   44.4382  132.1596 C   0  0  0  0  0  0  0  0  0  0  0  0
   10.6923   44.5282  133.2013 O   0  0  0  0  0  0  0  0  0  0  0  0
    9.3499   44.9606  133.1355 C   0  0  0  0  0  0  0  0  0  0  0  0
   15.1166   44.4002  129.0599 H   0  0  0  0  0  0  0  0  0  0  0  0
    6.3544   39.6211  134.8443 O   0  0  0  0  0  0  0  0  0  0  0  0
    6.9057   40.7332  134.2363 C   0  0  0  0  0  0  0  0  0  0  0  0
    8.0884   41.3051  134.6907 C   0  0  0  0  0  0  0  0  0  0  0  0
    8.5963   42.4245  134.0388 C   0  0  0  0  0  0  0  0  0  0  0  0
    7.9551   42.9818  132.9521 C   0  0  0  0  0  0  0  0  0  0  0  0
    6.7875   42.3794  132.5402 C   0  0  0  0  0  0  0  0  0  0  0  0
    6.2568   41.2739  133.1590 C   0  0  0  0  0  0  0  0  0  0  0  0
    6.6061   38.7000  134.5340 H   0  0  0  0  0  0  0  0  0  0  0  0
    9.4051   46.4328  132.9450 C   0  0  0  0  0  0  0  0  0  0  0  0
    8.2725   47.1907  133.2784 C   0  0  0  0  0  0  0  0  0  0  0  0
    8.2331   48.5546  133.1381 C   0  0  0  0  0  0  0  0  0  0  0  0
    9.3266   49.2362  132.6559 C   0  0  0  0  0  0  0  0  0  0  0  0
   10.4364   48.4895  132.3298 C   0  0  0  0  0  0  0  0  0  0  0  0
   10.4825   47.1203  132.4681 C   0  0  0  0  0  0  0  0  0  0  0  0
    9.3441   50.6150  132.4925 O   0  0  0  0  0  0  0  0  0  0  0  0
    9.0279   51.1965  131.2666 C   0  0  0  0  0  0  0  0  0  0  0  0
    7.7739   50.7118  130.6438 C   0  0  0  0  0  0  0  0  0  0  0  0
    7.8348   49.5801  129.8147 N   0  0  0  0  0  0  0  0  0  0  0  0
    6.9430   48.5068  130.0562 C   0  0  0  0  0  0  0  0  0  0  0  0
    7.4233   47.4459  129.0742 C   0  0  0  0  0  0  0  0  0  0  0  0
    8.9400   47.5894  129.2344 C   0  0  0  0  0  0  0  0  0  0  0  0
    9.1007   49.1090  129.3896 C   0  0  0  0  0  0  0  0  0  0  0  0
 13 14  1  0  0  0
 14 15  2  0  0  0
 15 16  1  0  0  0
 16 17  2  0  0  0
 17 18  1  0  0  0
 18 19  2  0  0  0
 17  1  1  0  0  0
  1  2  1  0  0  0
  2  3  1  0  0  0
  3  4  2  0  0  0
  4  5  1  0  0  0
  5  6  1  0  0  0
  5  7  2  0  0  0
  7  8  1  0  0  0
  8  9  2  0  0  0
  9 10  1  0  0  0
 10 11  1  0  0  0
 11 21  1  0  0  0
 21 22  2  0  0  0
 22 23  1  0  0  0
 23 24  2  0  0  0
 24 27  1  0  0  0
 27 28  1  0  0  0
 28 29  1  0  0  0
 29 30  1  0  0  0
 30 31  1  0  0  0
 31 32  1  0  0  0
 32 33  1  0  0  0
 33 34  1  0  0  0
 24 25  1  0  0  0
 25 26  2  0  0  0
 19 14  1  0  0  0
 11  1  1  0  0  0
 26 21  1  0  0  0
  9  3  1  0  0  0
 34 30  1  0  0  0
 13 20  1  0  0  0
  6 12  1  0  0  0
M  END
> <minimizedAffinity>
13.36376

> <CNNscore>
0.3355544806

> <CNNaffinity>
7.3870339394

> <CNN_VS>
2.4787523746

> <CNNaffinity_variance>
1.0735225677

$$$$
[H]Oc1c([H])c([H])c(C2=C(c3c([H])c([H])c(OC([H])([H])C([H])([H])N4C([H])([H])C([H])([H])C([H])([H])C([H])([H])C4([H])[H])c([H])c3[H])c3c([H])c([H])c(O[H])c([H])c3C2([H])[H])c([H])c1[H]


 34 38  0  0  0  0  0  0  0  0999 V2000
   10.1363   48.1883  132.7693 C   0  0  0  0  0  0  0  0  0  0  0  0
   10.8745   47.1789  133.1242 C   0  0  0  0  0  0  0  0  0  0  0  0
   11.8239   47.5565  134.2053 C   0  0  0  0  0  0  0  0  0  0  0  0
   12.7840   46.8544  134.8948 C   0  0  0  0  0  0  0  0  0  0  0  0
   13.5204   47.5265  135.8754 C   0  0  0  0  0  0  0  0  0  0  0  0
   13.2967   48.8559  136.1494 C   0  0  0  0  0  0  0  0  0  0  0  0
   14.0573   49.4946  137.1409 O   0  0  0  0  0  0  0  0  0  0  0  0
   12.3389   49.5526  135.4601 C   0  0  0  0  0  0  0  0  0  0  0  0
   11.6150   48.8712  134.4886 C   0  0  0  0  0  0  0  0  0  0  0  0
   10.5574   49.3734  133.6278 C   0  0  0  0  0  0  0  0  0  0  0  0
   13.7580   49.5142  138.1028 H   0  0  0  0  0  0  0  0  0  0  0  0
    6.0510   49.1275  128.9230 O   0  0  0  0  0  0  0  0  0  0  0  0
    7.0516   48.8956  129.8528 C   0  0  0  0  0  0  0  0  0  0  0  0
    7.1091   47.6903  130.5113 C   0  0  0  0  0  0  0  0  0  0  0  0
    8.1136   47.4363  131.4551 C   0  0  0  0  0  0  0  0  0  0  0  0
    9.0697   48.3442  131.7712 C   0  0  0  0  0  0  0  0  0  0  0  0
    8.9967   49.5761  131.0858 C   0  0  0  0  0  0  0  0  0  0  0  0
    8.0157   49.8275  130.1614 C   0  0  0  0  0  0  0  0  0  0  0  0
    6.0061   50.0164  128.4346 H   0  0  0  0  0  0  0  0  0  0  0  0
   10.8896   45.8186  132.6338 C   0  0  0  0  0  0  0  0  0  0  0  0
   11.7317   45.3220  131.7075 C   0  0  0  0  0  0  0  0  0  0  0  0
   11.6745   44.0210  131.2568 C   0  0  0  0  0  0  0  0  0  0  0  0
   10.7059   43.1357  131.7636 C   0  0  0  0  0  0  0  0  0  0  0  0
    9.8424   43.6383  132.7114 C   0  0  0  0  0  0  0  0  0  0  0  0
    9.9202   44.9521  133.1485 C   0  0  0  0  0  0  0  0  0  0  0  0
   10.6997   41.8685  131.2781 O   0  0  0  0  0  0  0  0  0  0  0  0
   10.0086   41.2851  130.2408 C   0  0  0  0  0  0  0  0  0  0  0  0
    8.7989   42.0424  129.7382 C   0  0  0  0  0  0  0  0  0  0  0  0
    9.2471   43.2847  129.2070 N   0  0  0  0  0  0  0  0  0  0  0  0
    9.9977   43.2434  128.0098 C   0  0  0  0  0  0  0  0  0  0  0  0
   10.8696   44.4273  127.7676 C   0  0  0  0  0  0  0  0  0  0  0  0
   10.3902   45.6507  128.5022 C   0  0  0  0  0  0  0  0  0  0  0  0
    8.9062   45.6594  128.7342 C   0  0  0  0  0  0  0  0  0  0  0  0
    8.4054   44.4063  129.4152 C   0  0  0  0  0  0  0  0  0  0  0  0
 12 13  1  0  0  0
 13 14  2  0  0  0
 14 15  1  0  0  0
 15 16  2  0  0  0
 16 17  1  0  0  0
 17 18  2  0  0  0
 16  1  1  0  0  0
  1  2  2  0  0  0
  2  3  1  0  0  0
  3  4  2  0  0  0
  4  5  1  0  0  0
  5  6  2  0  0  0
  6  7  1  0  0  0
  6  8  1  0  0  0
  8  9  2  0  0  0
  9 10  1  0  0  0
  2 20  1  0  0  0
 20 21  2  0  0  0
 21 22  1  0  0  0
 22 23  2  0  0  0
 23 26  1  0  0  0
 26 27  1  0  0  0
 27 28  1  0  0  0
 28 29  1  0  0  0
 29 30  1  0  0  0
 30 31  1  0  0  0
 31 32  1  0  0  0
 32 33  1  0  0  0
 33 34  1  0  0  0
 23 24  1  0  0  0
 24 25  2  0  0  0
 18 13  1  0  0  0
 10  1  1  0  0  0
 25 20  1  0  0  0
  9  3  1  0  0  0
 34 29  1  0  0  0
 12 19  1  0  0  0
  7 11  1  0  0  0
M  END
> <minimizedAffinity>
8.97858

> <CNNscore>
0.4574669600

> <CNNaffinity>
7.8416318893

> <CNN_VS>
3.5872874260

> <CNNaffinity_variance>
0.6074431539

$$$$
[H]Oc1c([H])c([H])c(C2=C(c3c([H])c([H])c(OC([H])([H])C([H])([H])N4C([H])([H])C([H])([H])C([H])([H])C([H])([H])C4([H])[H])c([H])c3[H])c3c([H])c([H])c(O[H])c([H])c3C2([H])[H])c([H])c1[H]


 34 38  0  0  0  0  0  0  0  0999 V2000
   10.3567   43.4063  131.4742 C   0  0  0  0  0  0  0  0  0  0  0  0
   10.7201   44.6270  131.2139 C   0  0  0  0  0  0  0  0  0  0  0  0
   12.0531   44.6657  130.5548 C   0  0  0  0  0  0  0  0  0  0  0  0
   12.8413   45.6953  130.0978 C   0  0  0  0  0  0  0  0  0  0  0  0
   14.0713   45.3790  129.5125 C   0  0  0  0  0  0  0  0  0  0  0  0
   14.4899   44.0739  129.3932 C   0  0  0  0  0  0  0  0  0  0  0  0
   15.7313   43.7979  128.8000 O   0  0  0  0  0  0  0  0  0  0  0  0
   13.7016   43.0503  129.8499 C   0  0  0  0  0  0  0  0  0  0  0  0
   12.4818   43.3801  130.4291 C   0  0  0  0  0  0  0  0  0  0  0  0
   11.4734   42.4938  130.9852 C   0  0  0  0  0  0  0  0  0  0  0  0
   15.8179   43.6430  127.8082 H   0  0  0  0  0  0  0  0  0  0  0  0
    5.9143   41.0815  134.1623 O   0  0  0  0  0  0  0  0  0  0  0  0
    6.9930   41.6563  133.5100 C   0  0  0  0  0  0  0  0  0  0  0  0
    6.9116   41.9359  132.1665 C   0  0  0  0  0  0  0  0  0  0  0  0
    7.9916   42.5174  131.4886 C   0  0  0  0  0  0  0  0  0  0  0  0
    9.1589   42.8326  132.1022 C   0  0  0  0  0  0  0  0  0  0  0  0
    9.2258   42.5398  133.4814 C   0  0  0  0  0  0  0  0  0  0  0  0
    8.1707   41.9715  134.1477 C   0  0  0  0  0  0  0  0  0  0  0  0
    5.9711   40.8743  135.1546 H   0  0  0  0  0  0  0  0  0  0  0  0
   10.0363   45.8758  131.4663 C   0  0  0  0  0  0  0  0  0  0  0  0
    9.2688   46.1539  132.5375 C   0  0  0  0  0  0  0  0  0  0  0  0
    8.6153   47.3555  132.7053 C   0  0  0  0  0  0  0  0  0  0  0  0
    8.7299   48.3679  131.7352 C   0  0  0  0  0  0  0  0  0  0  0  0
    9.5139   48.0888  130.6379 C   0  0  0  0  0  0  0  0  0  0  0  0
   10.1612   46.8711  130.4920 C   0  0  0  0  0  0  0  0  0  0  0  0
    8.0606   49.5273  131.9572 O   0  0  0  0  0  0  0  0  0  0  0  0
    7.9160   50.6650  131.1965 C   0  0  0  0  0  0  0  0  0  0  0  0
    6.6811   50.7297  130.3245 C   0  0  0  0  0  0  0  0  0  0  0  0
    6.5287   49.4680  129.6835 N   0  0  0  0  0  0  0  0  0  0  0  0
    5.2182   48.9476  129.5822 C   0  0  0  0  0  0  0  0  0  0  0  0
    5.1352   47.4704  129.4051 C   0  0  0  0  0  0  0  0  0  0  0  0
    6.3941   46.8932  128.8152 C   0  0  0  0  0  0  0  0  0  0  0  0
    7.1387   47.8629  127.9425 C   0  0  0  0  0  0  0  0  0  0  0  0
    7.4339   49.1751  128.6323 C   0  0  0  0  0  0  0  0  0  0  0  0
 12 13  1  0  0  0
 13 14  2  0  0  0
 14 15  1  0  0  0
 15 16  2  0  0  0
 16 17  1  0  0  0
 17 18  2  0  0  0
 16  1  1  0  0  0
  1  2  2  0  0  0
  2  3  1  0  0  0
  3  4  2  0  0  0
  4  5  1  0  0  0
  5  6  2  0  0  0
  6  7  1  0  0  0
  6  8  1  0  0  0
  8  9  2  0  0  0
  9 10  1  0  0  0
  2 20  1  0  0  0
 20 21  2  0  0  0
 21 22  1  0  0  0
 22 23  2  0  0  0
 23 26  1  0  0  0
 26 27  1  0  0  0
 27 28  1  0  0  0
 28 29  1  0  0  0
 29 30  1  0  0  0
 30 31  1  0  0  0
 31 32  1  0  0  0
 32 33  1  0  0  0
 33 34  1  0  0  0
 23 24  1  0  0  0
 24 25  2  0  0  0
 18 13  1  0  0  0
 10  1  1  0  0  0
 25 20  1  0  0  0
  9  3  1  0  0  0
 34 29  1  0  0  0
 12 19  1  0  0  0
  7 11  1  0  0  0
M  END
> <minimizedAffinity>
12.37993

> <CNNscore>
0.4134899080

> <CNNaffinity>
7.5217523575

> <CNN_VS>
3.1101686954

> <CNNaffinity_variance>
1.3262584209

$$$$
[H]Oc1c([H])c([H])c(C2=C(c3c([H])c([H])c(OC([H])([H])C([H])([H])N4C([H])([H])C([H])([H])C([H])([H])C([H])([H])C4([H])[H])c([H])c3[H])c3c([H])c([H])c(O[H])c([H])c3C2([H])[H])c([H])c1[H]


 34 38  0  0  0  0  0  0  0  0999 V2000
   11.5322   45.0734  132.1003 C   0  0  0  0  0  0  0  0  0  0  0  0
   10.7768   46.0601  132.4821 C   0  0  0  0  0  0  0  0  0  0  0  0
   10.4359   45.9532  133.9261 C   0  0  0  0  0  0  0  0  0  0  0  0
    9.6834   46.7351  134.7702 C   0  0  0  0  0  0  0  0  0  0  0  0
    9.5620   46.3412  136.1065 C   0  0  0  0  0  0  0  0  0  0  0  0
   10.1761   45.2019  136.5729 C   0  0  0  0  0  0  0  0  0  0  0  0
   10.0296   44.8403  137.9209 O   0  0  0  0  0  0  0  0  0  0  0  0
   10.9253   44.4249  135.7286 C   0  0  0  0  0  0  0  0  0  0  0  0
   11.0370   44.8292  134.4033 C   0  0  0  0  0  0  0  0  0  0  0  0
   11.7638   44.1905  133.3192 C   0  0  0  0  0  0  0  0  0  0  0  0
   10.6738   45.1629  138.6253 H   0  0  0  0  0  0  0  0  0  0  0  0
   14.1546   43.8199  127.2098 O   0  0  0  0  0  0  0  0  0  0  0  0
   13.5159   44.1160  128.4030 C   0  0  0  0  0  0  0  0  0  0  0  0
   12.1436   44.1853  128.4469 C   0  0  0  0  0  0  0  0  0  0  0  0
   11.4788   44.4832  129.6441 C   0  0  0  0  0  0  0  0  0  0  0  0
   12.1336   44.7173  130.8081 C   0  0  0  0  0  0  0  0  0  0  0  0
   13.5417   44.6416  130.7461 C   0  0  0  0  0  0  0  0  0  0  0  0
   14.1952   44.3499  129.5765 C   0  0  0  0  0  0  0  0  0  0  0  0
   15.1679   43.7675  127.1742 H   0  0  0  0  0  0  0  0  0  0  0  0
   10.2578   47.1805  131.7296 C   0  0  0  0  0  0  0  0  0  0  0  0
   10.0081   47.1958  130.4063 C   0  0  0  0  0  0  0  0  0  0  0  0
    9.5429   48.3085  129.7395 C   0  0  0  0  0  0  0  0  0  0  0  0
    9.3029   49.5060  130.4375 C   0  0  0  0  0  0  0  0  0  0  0  0
    9.5563   49.4958  131.7911 C   0  0  0  0  0  0  0  0  0  0  0  0
   10.0246   48.3627  132.4392 C   0  0  0  0  0  0  0  0  0  0  0  0
    8.8475   50.5668  129.7243 O   0  0  0  0  0  0  0  0  0  0  0  0
    7.6428   50.8085  129.1044 C   0  0  0  0  0  0  0  0  0  0  0  0
    6.4089   50.3340  129.8406 C   0  0  0  0  0  0  0  0  0  0  0  0
    6.3410   48.9175  129.7178 N   0  0  0  0  0  0  0  0  0  0  0  0
    6.4801   48.1579  130.9019 C   0  0  0  0  0  0  0  0  0  0  0  0
    6.9226   46.7491  130.7023 C   0  0  0  0  0  0  0  0  0  0  0  0
    6.6014   46.2383  129.3232 C   0  0  0  0  0  0  0  0  0  0  0  0
    5.3982   46.8979  128.7121 C   0  0  0  0  0  0  0  0  0  0  0  0
    5.4879   48.4067  128.7071 C   0  0  0  0  0  0  0  0  0  0  0  0
 12 13  1  0  0  0
 13 14  2  0  0  0
 14 15  1  0  0  0
 15 16  2  0  0  0
 16 17  1  0  0  0
 17 18  2  0  0  0
 16  1  1  0  0  0
  1  2  2  0  0  0
  2  3  1  0  0  0
  3  4  2  0  0  0
  4  5  1  0  0  0
  5  6  2  0  0  0
  6  7  1  0  0  0
  6  8  1  0  0  0
  8  9  2  0  0  0
  9 10  1  0  0  0
  2 20  1  0  0  0
 20 21  2  0  0  0
 21 22  1  0  0  0
 22 23  2  0  0  0
 23 26  1  0  0  0
 26 27  1  0  0  0
 27 28  1  0  0  0
 28 29  1  0  0  0
 29 30  1  0  0  0
 30 31  1  0  0  0
 31 32  1  0  0  0
 32 33  1  0  0  0
 33 34  1  0  0  0
 23 24  1  0  0  0
 24 25  2  0  0  0
 18 13  1  0  0  0
 10  1  1  0  0  0
 25 20  1  0  0  0
  9  3  1  0  0  0
 34 29  1  0  0  0
 12 19  1  0  0  0
  7 11  1  0  0  0
M  END
> <minimizedAffinity>
7.26899

> <CNNscore>
0.3973948956

> <CNNaffinity>
7.8380355835

> <CNN_VS>
3.1147954464

> <CNNaffinity_variance>
1.6345294714

$$$$
[H]Oc1c([H])c([H])c(C2=C(c3c([H])c([H])c(OC([H])([H])C([H])([H])N4C([H])([H])C([H])([H])C([H])([H])C([H])([H])C4([H])[H])c([H])c3[H])c3c([H])c([H])c(O[H])c([H])c3C2([H])[H])c([H])c1[H]


 34 38  0  0  0  0  0  0  0  0999 V2000
    8.6119   47.0082  129.2952 C   0  0  0  0  0  0  0  0  0  0  0  0
    9.3849   46.4217  130.1603 C   0  0  0  0  0  0  0  0  0  0  0  0
   10.3566   45.5159  129.4910 C   0  0  0  0  0  0  0  0  0  0  0  0
   11.3539   44.6978  129.9666 C   0  0  0  0  0  0  0  0  0  0  0  0
   12.1032   43.9609  129.0440 C   0  0  0  0  0  0  0  0  0  0  0  0
   11.8553   44.0461  127.6935 C   0  0  0  0  0  0  0  0  0  0  0  0
   12.6292   43.2900  126.7998 O   0  0  0  0  0  0  0  0  0  0  0  0
   10.8603   44.8625  127.2231 C   0  0  0  0  0  0  0  0  0  0  0  0
   10.1242   45.5888  128.1519 C   0  0  0  0  0  0  0  0  0  0  0  0
    9.0290   46.5144  127.9165 C   0  0  0  0  0  0  0  0  0  0  0  0
   13.4805   43.6542  126.4025 H   0  0  0  0  0  0  0  0  0  0  0  0
    4.1667   50.5435  129.6229 O   0  0  0  0  0  0  0  0  0  0  0  0
    5.2477   49.6799  129.5520 C   0  0  0  0  0  0  0  0  0  0  0  0
    6.5094   50.1353  129.8529 C   0  0  0  0  0  0  0  0  0  0  0  0
    7.6158   49.2774  129.7875 C   0  0  0  0  0  0  0  0  0  0  0  0
    7.5128   47.9736  129.4302 C   0  0  0  0  0  0  0  0  0  0  0  0
    6.2107   47.5218  129.1253 C   0  0  0  0  0  0  0  0  0  0  0  0
    5.1261   48.3584  129.1889 C   0  0  0  0  0  0  0  0  0  0  0  0
    3.2336   50.2100  129.4018 H   0  0  0  0  0  0  0  0  0  0  0  0
    9.4202   46.5310  131.6017 C   0  0  0  0  0  0  0  0  0  0  0  0
   10.3488   47.1890  132.3218 C   0  0  0  0  0  0  0  0  0  0  0  0
   10.3457   47.2294  133.6992 C   0  0  0  0  0  0  0  0  0  0  0  0
    9.3412   46.5658  134.4270 C   0  0  0  0  0  0  0  0  0  0  0  0
    8.3889   45.8915  133.6955 C   0  0  0  0  0  0  0  0  0  0  0  0
    8.4141   45.8656  132.3092 C   0  0  0  0  0  0  0  0  0  0  0  0
    9.3944   46.6412  135.7808 O   0  0  0  0  0  0  0  0  0  0  0  0
   10.1553   45.9685  136.7096 C   0  0  0  0  0  0  0  0  0  0  0  0
   10.2019   44.4628  136.5666 C   0  0  0  0  0  0  0  0  0  0  0  0
   10.7317   44.1593  135.2808 N   0  0  0  0  0  0  0  0  0  0  0  0
   12.1390   44.1369  135.1495 C   0  0  0  0  0  0  0  0  0  0  0  0
   12.6492   44.3395  133.7642 C   0  0  0  0  0  0  0  0  0  0  0  0
   11.6295   43.9723  132.7195 C   0  0  0  0  0  0  0  0  0  0  0  0
   10.6664   42.9145  133.1771 C   0  0  0  0  0  0  0  0  0  0  0  0
    9.9838   43.2585  134.4812 C   0  0  0  0  0  0  0  0  0  0  0  0
 12 13  1  0  0  0
 13 14  2  0  0  0
 14 15  1  0  0  0
 15 16  2  0  0  0
 16 17  1  0  0  0
 17 18  2  0  0  0
 16  1  1  0  0  0
  1  2  2  0  0  0
  2  3  1  0  0  0
  3  4  2  0  0  0
  4  5  1  0  0  0
  5  6  2  0  0  0
  6  7  1  0  0  0
  6  8  1  0  0  0
  8  9  2  0  0  0
  9 10  1  0  0  0
  2 20  1  0  0  0
 20 21  2  0  0  0
 21 22  1  0  0  0
 22 23  2  0  0  0
 23 26  1  0  0  0
 26 27  1  0  0  0
 27 28  1  0  0  0
 28 29  1  0  0  0
 29 30  1  0  0  0
 30 31  1  0  0  0
 31 32  1  0  0  0
 32 33  1  0  0  0
 33 34  1  0  0  0
 23 24  1  0  0  0
 24 25  2  0  0  0
 18 13  1  0  0  0
 10  1  1  0  0  0
 25 20  1  0  0  0
  9  3  1  0  0  0
 34 29  1  0  0  0
 12 19  1  0  0  0
  7 11  1  0  0  0
M  END
> <minimizedAffinity>
4.36001

> <CNNscore>
0.3956280649

> <CNNaffinity>
7.8782515526

> <CNN_VS>
3.1168575287

> <CNNaffinity_variance>
1.0992561579

$$$$
[H]Oc1c([H])c([H])c(C2=C(c3c([H])c([H])c(OC([H])([H])C([H])([H])N4C([H])([H])C([H])([H])C([H])([H])C([H])([H])C4([H])[H])c([H])c3[H])c3c([H])c([H])c(O[H])c([H])c3C2([H])[H])c([H])c1[H]


 34 38  0  0  0  0  0  0  0  0999 V2000
   10.3520   45.6029  129.2851 C   0  0  0  0  0  0  0  0  0  0  0  0
   11.0820   45.2620  130.3052 C   0  0  0  0  0  0  0  0  0  0  0  0
   12.3685   44.6545  129.8710 C   0  0  0  0  0  0  0  0  0  0  0  0
   13.4450   44.1496  130.5613 C   0  0  0  0  0  0  0  0  0  0  0  0
   14.5222   43.6404  129.8292 C   0  0  0  0  0  0  0  0  0  0  0  0
   14.5133   43.6404  128.4536 C   0  0  0  0  0  0  0  0  0  0  0  0
   15.6137   43.1199  127.7554 O   0  0  0  0  0  0  0  0  0  0  0  0
   13.4386   44.1445  127.7689 C   0  0  0  0  0  0  0  0  0  0  0  0
   12.3755   44.6472  128.5100 C   0  0  0  0  0  0  0  0  0  0  0  0
   11.1334   45.2306  128.0322 C   0  0  0  0  0  0  0  0  0  0  0  0
   16.3926   43.7020  127.4912 H   0  0  0  0  0  0  0  0  0  0  0  0
    5.3750   48.3217  128.8342 O   0  0  0  0  0  0  0  0  0  0  0  0
    6.5864   47.6569  128.9349 C   0  0  0  0  0  0  0  0  0  0  0  0
    6.6179   46.3514  129.3644 C   0  0  0  0  0  0  0  0  0  0  0  0
    7.8330   45.6615  129.4728 C   0  0  0  0  0  0  0  0  0  0  0  0
    9.0271   46.2269  129.1684 C   0  0  0  0  0  0  0  0  0  0  0  0
    8.9772   47.5673  128.7284 C   0  0  0  0  0  0  0  0  0  0  0  0
    7.7900   48.2448  128.6207 C   0  0  0  0  0  0  0  0  0  0  0  0
    5.3484   49.2858  128.5169 H   0  0  0  0  0  0  0  0  0  0  0  0
   10.8207   45.3907  131.7216 C   0  0  0  0  0  0  0  0  0  0  0  0
   11.6382   45.9606  132.6273 C   0  0  0  0  0  0  0  0  0  0  0  0
   11.3459   46.0238  133.9725 C   0  0  0  0  0  0  0  0  0  0  0  0
   10.1456   45.4799  134.4649 C   0  0  0  0  0  0  0  0  0  0  0  0
    9.3057   44.8961  133.5428 C   0  0  0  0  0  0  0  0  0  0  0  0
    9.6229   44.8449  132.1937 C   0  0  0  0  0  0  0  0  0  0  0  0
    9.9167   45.5717  135.7993 O   0  0  0  0  0  0  0  0  0  0  0  0
    9.5140   46.6216  136.5926 C   0  0  0  0  0  0  0  0  0  0  0  0
    8.4297   47.5092  136.0214 C   0  0  0  0  0  0  0  0  0  0  0  0
    8.8668   47.9742  134.7491 N   0  0  0  0  0  0  0  0  0  0  0  0
    7.8807   48.1551  133.7524 C   0  0  0  0  0  0  0  0  0  0  0  0
    8.3842   48.1249  132.3503 C   0  0  0  0  0  0  0  0  0  0  0  0
    9.8467   48.4700  132.2600 C   0  0  0  0  0  0  0  0  0  0  0  0
   10.3107   49.3785  133.3625 C   0  0  0  0  0  0  0  0  0  0  0  0
    9.9771   48.8558  134.7411 C   0  0  0  0  0  0  0  0  0  0  0  0
 12 13  1  0  0  0
 13 14  2  0  0  0
 14 15  1  0  0  0
 15 16  2  0  0  0
 16 17  1  0  0  0
 17 18  2  0  0  0
 16  1  1  0  0  0
  1  2  2  0  0  0
  2  3  1  0  0  0
  3  4  2  0  0  0
  4  5  1  0  0  0
  5  6  2  0  0  0
  6  7  1  0  0  0
  6  8  1  0  0  0
  8  9  2  0  0  0
  9 10  1  0  0  0
  2 20  1  0  0  0
 20 21  2  0  0  0
 21 22  1  0  0  0
 22 23  2  0  0  0
 23 26  1  0  0  0
 26 27  1  0  0  0
 27 28  1  0  0  0
 28 29  1  0  0  0
 29 30  1  0  0  0
 30 31  1  0  0  0
 31 32  1  0  0  0
 32 33  1  0  0  0
 33 34  1  0  0  0
 23 24  1  0  0  0
 24 25  2  0  0  0
 18 13  1  0  0  0
 10  1  1  0  0  0
 25 20  1  0  0  0
  9  3  1  0  0  0
 34 29  1  0  0  0
 12 19  1  0  0  0
  7 11  1  0  0  0
M  END
> <minimizedAffinity>
9.73120

> <CNNscore>
0.3872928321

> <CNNaffinity>
7.6581220627

> <CNN_VS>
2.9659357071

> <CNNaffinity_variance>
1.1825435162

$$$$
[H]Oc1c([H])c([H])c(C2=C(c3c([H])c([H])c(OC([H])([H])C([H])([H])N4C([H])([H])C([H])([H])C([H])([H])C([H])([H])C4([H])[H])c([H])c3[H])c3c([H])c([H])c(O[H])c([H])c3C2([H])[H])c([H])c1[H]


 34 38  0  0  0  0  0  0  0  0999 V2000
    9.6817   43.9038  131.4703 C   0  0  0  0  0  0  0  0  0  0  0  0
    9.1898   44.5826  132.4639 C   0  0  0  0  0  0  0  0  0  0  0  0
    8.1943   43.7820  133.2259 C   0  0  0  0  0  0  0  0  0  0  0  0
    7.4223   44.0547  134.3303 C   0  0  0  0  0  0  0  0  0  0  0  0
    6.5680   43.0546  134.8053 C   0  0  0  0  0  0  0  0  0  0  0  0
    6.4953   41.8267  134.1891 C   0  0  0  0  0  0  0  0  0  0  0  0
    5.6250   40.8496  134.6962 O   0  0  0  0  0  0  0  0  0  0  0  0
    7.2663   41.5585  133.0884 C   0  0  0  0  0  0  0  0  0  0  0  0
    8.1106   42.5621  132.6281 C   0  0  0  0  0  0  0  0  0  0  0  0
    9.0197   42.5327  131.4948 C   0  0  0  0  0  0  0  0  0  0  0  0
    5.9248   40.1900  135.3964 H   0  0  0  0  0  0  0  0  0  0  0  0
   13.3231   45.3936  127.3611 O   0  0  0  0  0  0  0  0  0  0  0  0
   12.4422   45.0345  128.3683 C   0  0  0  0  0  0  0  0  0  0  0  0
   12.5277   43.7878  128.9411 C   0  0  0  0  0  0  0  0  0  0  0  0
   11.6460   43.4057  129.9613 C   0  0  0  0  0  0  0  0  0  0  0  0
   10.6745   44.2238  130.4358 C   0  0  0  0  0  0  0  0  0  0  0  0
   10.6007   45.5002  129.8376 C   0  0  0  0  0  0  0  0  0  0  0  0
   11.4621   45.8773  128.8396 C   0  0  0  0  0  0  0  0  0  0  0  0
   13.2629   46.3139  126.9364 H   0  0  0  0  0  0  0  0  0  0  0  0
    9.4699   45.9332  132.8979 C   0  0  0  0  0  0  0  0  0  0  0  0
   10.4651   46.3072  133.7246 C   0  0  0  0  0  0  0  0  0  0  0  0
   10.6608   47.6103  134.1278 C   0  0  0  0  0  0  0  0  0  0  0  0
    9.8033   48.6299  133.6764 C   0  0  0  0  0  0  0  0  0  0  0  0
    8.7840   48.2530  132.8305 C   0  0  0  0  0  0  0  0  0  0  0  0
    8.6078   46.9343  132.4394 C   0  0  0  0  0  0  0  0  0  0  0  0
   10.0470   49.8921  134.1110 O   0  0  0  0  0  0  0  0  0  0  0  0
   10.0484   51.1043  133.4593 C   0  0  0  0  0  0  0  0  0  0  0  0
    9.9947   52.3333  134.3403 C   0  0  0  0  0  0  0  0  0  0  0  0
   11.3229   52.8209  134.4963 N   0  0  0  0  0  0  0  0  0  0  0  0
   12.3629   52.0654  133.9082 C   0  0  0  0  0  0  0  0  0  0  0  0
   13.7135   52.2783  134.5007 C   0  0  0  0  0  0  0  0  0  0  0  0
   13.8318   53.6106  135.1914 C   0  0  0  0  0  0  0  0  0  0  0  0
   12.9288   54.6614  134.6113 C   0  0  0  0  0  0  0  0  0  0  0  0
   11.4819   54.2289  134.5457 C   0  0  0  0  0  0  0  0  0  0  0  0
 12 13  1  0  0  0
 13 14  2  0  0  0
 14 15  1  0  0  0
 15 16  2  0  0  0
 16 17  1  0  0  0
 17 18  2  0  0  0
 16  1  1  0  0  0
  1  2  2  0  0  0
  2  3  1  0  0  0
  3  4  2  0  0  0
  4  5  1  0  0  0
  5  6  2  0  0  0
  6  7  1  0  0  0
  6  8  1  0  0  0
  8  9  2  0  0  0
  9 10  1  0  0  0
  2 20  1  0  0  0
 20 21  2  0  0  0
 21 22  1  0  0  0
 22 23  2  0  0  0
 23 26  1  0  0  0
 26 27  1  0  0  0
 27 28  1  0  0  0
 28 29  1  0  0  0
 29 30  1  0  0  0
 30 31  1  0  0  0
 31 32  1  0  0  0
 32 33  1  0  0  0
 33 34  1  0  0  0
 23 24  1  0  0  0
 24 25  2  0  0  0
 18 13  1  0  0  0
 10  1  1  0  0  0
 25 20  1  0  0  0
  9  3  1  0  0  0
 34 29  1  0  0  0
 12 19  1  0  0  0
  7 11  1  0  0  0
M  END
> <minimizedAffinity>
40.04820

> <CNNscore>
0.3836361766

> <CNNaffinity>
7.0121202469

> <CNN_VS>
2.6901030540

> <CNNaffinity_variance>
2.5882172585

$$$$
[H]Oc1c([H])c([H])c(C2=C(c3c([H])c([H])c(OC([H])([H])C([H])([H])N4C([H])([H])C([H])([H])C([H])([H])C([H])([H])C4([H])[H])c([H])c3[H])c3c([H])c([H])c(O[H])c([H])c3C2([H])[H])c([H])c1[H]


 34 38  0  0  0  0  0  0  0  0999 V2000
    8.5963   47.0206  129.4608 C   0  0  0  0  0  0  0  0  0  0  0  0
    9.0204   46.1620  130.3399 C   0  0  0  0  0  0  0  0  0  0  0  0
    9.3765   44.8661  129.7025 C   0  0  0  0  0  0  0  0  0  0  0  0
    9.8593   43.6794  130.2014 C   0  0  0  0  0  0  0  0  0  0  0  0
   10.0933   42.6305  129.3066 C   0  0  0  0  0  0  0  0  0  0  0  0
    9.8492   42.7735  127.9603 C   0  0  0  0  0  0  0  0  0  0  0  0
   10.0965   41.6968  127.0949 O   0  0  0  0  0  0  0  0  0  0  0  0
    9.3679   43.9577  127.4666 C   0  0  0  0  0  0  0  0  0  0  0  0
    9.1403   44.9912  128.3679 C   0  0  0  0  0  0  0  0  0  0  0  0
    8.6390   46.3294  128.1046 C   0  0  0  0  0  0  0  0  0  0  0  0
   10.9938   41.5713  126.6540 H   0  0  0  0  0  0  0  0  0  0  0  0
    6.6966   52.3825  129.5394 O   0  0  0  0  0  0  0  0  0  0  0  0
    7.1517   51.0741  129.5255 C   0  0  0  0  0  0  0  0  0  0  0  0
    8.0386   50.6469  130.4851 C   0  0  0  0  0  0  0  0  0  0  0  0
    8.5106   49.3273  130.4884 C   0  0  0  0  0  0  0  0  0  0  0  0
    8.1308   48.4101  129.5648 C   0  0  0  0  0  0  0  0  0  0  0  0
    7.2196   48.8646  128.5872 C   0  0  0  0  0  0  0  0  0  0  0  0
    6.7555   50.1548  128.5816 C   0  0  0  0  0  0  0  0  0  0  0  0
    6.0411   52.7009  128.8324 H   0  0  0  0  0  0  0  0  0  0  0  0
    9.1818   46.2970  131.7705 C   0  0  0  0  0  0  0  0  0  0  0  0
   10.1891   46.9364  132.3952 C   0  0  0  0  0  0  0  0  0  0  0  0
   10.3045   47.0027  133.7668 C   0  0  0  0  0  0  0  0  0  0  0  0
    9.3447   46.3875  134.5909 C   0  0  0  0  0  0  0  0  0  0  0  0
    8.3122   45.7325  133.9573 C   0  0  0  0  0  0  0  0  0  0  0  0
    8.2185   45.6797  132.5747 C   0  0  0  0  0  0  0  0  0  0  0  0
    9.5153   46.4865  135.9335 O   0  0  0  0  0  0  0  0  0  0  0  0
   10.2740   45.7564  136.8198 C   0  0  0  0  0  0  0  0  0  0  0  0
   10.3483   44.2672  136.5624 C   0  0  0  0  0  0  0  0  0  0  0  0
   10.9170   44.0717  135.2723 N   0  0  0  0  0  0  0  0  0  0  0  0
   12.3244   44.1518  135.1666 C   0  0  0  0  0  0  0  0  0  0  0  0
   12.8406   44.4647  133.8042 C   0  0  0  0  0  0  0  0  0  0  0  0
   11.8644   44.0877  132.7220 C   0  0  0  0  0  0  0  0  0  0  0  0
   10.9691   42.9435  133.1034 C   0  0  0  0  0  0  0  0  0  0  0  0
   10.2449   43.1680  134.4111 C   0  0  0  0  0  0  0  0  0  0  0  0
 12 13  1  0  0  0
 13 14  2  0  0  0
 14 15  1  0  0  0
 15 16  2  0  0  0
 16 17  1  0  0  0
 17 18  2  0  0  0
 16  1  1  0  0  0
  1  2  2  0  0  0
  2  3  1  0  0  0
  3  4  2  0  0  0
  4  5  1  0  0  0
  5  6  2  0  0  0
  6  7  1  0  0  0
  6  8  1  0  0  0
  8  9  2  0  0  0
  9 10  1  0  0  0
  2 20  1  0  0  0
 20 21  2  0  0  0
 21 22  1  0  0  0
 22 23  2  0  0  0
 23 26  1  0  0  0
 26 27  1  0  0  0
 27 28  1  0  0  0
 28 29  1  0  0  0
 29 30  1  0  0  0
 30 31  1  0  0  0
 31 32  1  0  0  0
 32 33  1  0  0  0
 33 34  1  0  0  0
 23 24  1  0  0  0
 24 25  2  0  0  0
 18 13  1  0  0  0
 10  1  1  0  0  0
 25 20  1  0  0  0
  9  3  1  0  0  0
 34 29  1  0  0  0
 12 19  1  0  0  0
  7 11  1  0  0  0
M  END
> <minimizedAffinity>
2.56463

> <CNNscore>
0.3755713999

> <CNNaffinity>
7.8811392784

> <CNN_VS>
2.9599304199

> <CNNaffinity_variance>
0.9133383036

$$$$
[H]Oc1c([H])c([H])c(C2=C(c3c([H])c([H])c(OC([H])([H])C([H])([H])N4C([H])([H])C([H])([H])C([H])([H])C([H])([H])C4([H])[H])c([H])c3[H])c3c([H])c([H])c(O[H])c([H])c3C2([H])[H])c([H])c1[H]


 34 38  0  0  0  0  0  0  0  0999 V2000
    9.6887   48.4907  131.4544 C   0  0  0  0  0  0  0  0  0  0  0  0
    9.1417   47.9972  130.3833 C   0  0  0  0  0  0  0  0  0  0  0  0
    8.3033   49.0103  129.6881 C   0  0  0  0  0  0  0  0  0  0  0  0
    7.5427   48.9692  128.5435 C   0  0  0  0  0  0  0  0  0  0  0  0
    6.8620   50.1283  128.1580 C   0  0  0  0  0  0  0  0  0  0  0  0
    6.9453   51.2843  128.8992 C   0  0  0  0  0  0  0  0  0  0  0  0
    6.2466   52.4264  128.4790 O   0  0  0  0  0  0  0  0  0  0  0  0
    7.7043   51.3215  130.0395 C   0  0  0  0  0  0  0  0  0  0  0  0
    8.3752   50.1619  130.4099 C   0  0  0  0  0  0  0  0  0  0  0  0
    9.2348   49.9404  131.5604 C   0  0  0  0  0  0  0  0  0  0  0  0
    6.6659   53.1018  127.8597 H   0  0  0  0  0  0  0  0  0  0  0  0
   13.1548   46.5944  135.5478 O   0  0  0  0  0  0  0  0  0  0  0  0
   12.3036   47.0512  134.5547 C   0  0  0  0  0  0  0  0  0  0  0  0
   12.2127   46.3707  133.3636 C   0  0  0  0  0  0  0  0  0  0  0  0
   11.3574   46.8165  132.3468 C   0  0  0  0  0  0  0  0  0  0  0  0
   10.5839   47.9231  132.4716 C   0  0  0  0  0  0  0  0  0  0  0  0
   10.6885   48.6097  133.7005 C   0  0  0  0  0  0  0  0  0  0  0  0
   11.5239   48.1759  134.6975 C   0  0  0  0  0  0  0  0  0  0  0  0
   13.2238   47.0945  136.4287 H   0  0  0  0  0  0  0  0  0  0  0  0
    9.2385   46.6711  129.8150 C   0  0  0  0  0  0  0  0  0  0  0  0
   10.2787   46.1882  129.1089 C   0  0  0  0  0  0  0  0  0  0  0  0
   10.2974   44.9225  128.5640 C   0  0  0  0  0  0  0  0  0  0  0  0
    9.1980   44.0610  128.7311 C   0  0  0  0  0  0  0  0  0  0  0  0
    8.1317   44.5498  129.4527 C   0  0  0  0  0  0  0  0  0  0  0  0
    8.1369   45.8278  129.9908 C   0  0  0  0  0  0  0  0  0  0  0  0
    9.2763   42.8284  128.1688 O   0  0  0  0  0  0  0  0  0  0  0  0
    9.7162   41.6204  128.6600 C   0  0  0  0  0  0  0  0  0  0  0  0
    9.1029   41.1713  129.9683 C   0  0  0  0  0  0  0  0  0  0  0  0
    9.6465   41.9769  131.0084 N   0  0  0  0  0  0  0  0  0  0  0  0
   10.9283   42.5330  130.7934 C   0  0  0  0  0  0  0  0  0  0  0  0
   11.6726   42.9054  132.0294 C   0  0  0  0  0  0  0  0  0  0  0  0
   10.7553   43.1518  133.1973 C   0  0  0  0  0  0  0  0  0  0  0  0
    9.3922   43.6330  132.7893 C   0  0  0  0  0  0  0  0  0  0  0  0
    8.7242   42.7319  131.7761 C   0  0  0  0  0  0  0  0  0  0  0  0
 12 13  1  0  0  0
 13 14  2  0  0  0
 14 15  1  0  0  0
 15 16  2  0  0  0
 16 17  1  0  0  0
 17 18  2  0  0  0
 16  1  1  0  0  0
  1  2  2  0  0  0
  2  3  1  0  0  0
  3  4  2  0  0  0
  4  5  1  0  0  0
  5  6  2  0  0  0
  6  7  1  0  0  0
  6  8  1  0  0  0
  8  9  2  0  0  0
  9 10  1  0  0  0
  2 20  1  0  0  0
 20 21  2  0  0  0
 21 22  1  0  0  0
 22 23  2  0  0  0
 23 26  1  0  0  0
 26 27  1  0  0  0
 27 28  1  0  0  0
 28 29  1  0  0  0
 29 30  1  0  0  0
 30 31  1  0  0  0
 31 32  1  0  0  0
 32 33  1  0  0  0
 33 34  1  0  0  0
 23 24  1  0  0  0
 24 25  2  0  0  0
 18 13  1  0  0  0
 10  1  1  0  0  0
 25 20  1  0  0  0
  9  3  1  0  0  0
 34 29  1  0  0  0
 12 19  1  0  0  0
  7 11  1  0  0  0
M  END
> <minimizedAffinity>
5.15510

> <CNNscore>
0.3623609841

> <CNNaffinity>
7.6716260910

> <CNN_VS>
2.7798979282

> <CNNaffinity_variance>
0.8874071836

$$$$
[H]Oc1c([H])c([H])c(C2=C(c3c([H])c([H])c(OC([H])([H])C([H])([H])N4C([H])([H])C([H])([H])C([H])([H])C([H])([H])C4([H])[H])c([H])c3[H])c3c([H])c([H])c(O[H])c([H])c3C2([H])[H])c([H])c1[H]


 34 38  0  0  0  0  0  0  0  0999 V2000
    9.4123   45.6599  131.4214 C   0  0  0  0  0  0  0  0  0  0  0  0
    9.0141   46.8547  131.7436 C   0  0  0  0  0  0  0  0  0  0  0  0
    9.0670   47.0642  133.2153 C   0  0  0  0  0  0  0  0  0  0  0  0
    8.7552   48.1345  134.0199 C   0  0  0  0  0  0  0  0  0  0  0  0
    8.9247   47.9970  135.4012 C   0  0  0  0  0  0  0  0  0  0  0  0
    9.3905   46.8244  135.9494 C   0  0  0  0  0  0  0  0  0  0  0  0
    9.5463   46.7261  137.3406 O   0  0  0  0  0  0  0  0  0  0  0  0
    9.7001   45.7596  135.1444 C   0  0  0  0  0  0  0  0  0  0  0  0
    9.5268   45.9112  133.7736 C   0  0  0  0  0  0  0  0  0  0  0  0
    9.7786   44.9469  132.7161 C   0  0  0  0  0  0  0  0  0  0  0  0
   10.4113   46.9768  137.7924 H   0  0  0  0  0  0  0  0  0  0  0  0
    9.7579   42.7150  126.5662 O   0  0  0  0  0  0  0  0  0  0  0  0
    9.6676   43.4381  127.7445 C   0  0  0  0  0  0  0  0  0  0  0  0
   10.5565   44.4569  127.9931 C   0  0  0  0  0  0  0  0  0  0  0  0
   10.4816   45.2002  129.1789 C   0  0  0  0  0  0  0  0  0  0  0  0
    9.5486   44.9652  130.1342 C   0  0  0  0  0  0  0  0  0  0  0  0
    8.6433   43.9166  129.8632 C   0  0  0  0  0  0  0  0  0  0  0  0
    8.7136   43.1878  128.7038 C   0  0  0  0  0  0  0  0  0  0  0  0
    9.1026   41.9624  126.3794 H   0  0  0  0  0  0  0  0  0  0  0  0
    8.5553   47.9406  130.9061 C   0  0  0  0  0  0  0  0  0  0  0  0
    9.1621   49.1335  130.7561 C   0  0  0  0  0  0  0  0  0  0  0  0
    8.6563   50.1427  129.9657 C   0  0  0  0  0  0  0  0  0  0  0  0
    7.4513   49.9586  129.2635 C   0  0  0  0  0  0  0  0  0  0  0  0
    6.8268   48.7403  129.4130 C   0  0  0  0  0  0  0  0  0  0  0  0
    7.3562   47.7405  130.2150 C   0  0  0  0  0  0  0  0  0  0  0  0
    7.0045   50.9906  128.5041 O   0  0  0  0  0  0  0  0  0  0  0  0
    7.4902   52.2628  128.3049 C   0  0  0  0  0  0  0  0  0  0  0  0
    6.4924   53.2854  127.8066 C   0  0  0  0  0  0  0  0  0  0  0  0
    6.9554   53.7775  126.5537 N   0  0  0  0  0  0  0  0  0  0  0  0
    6.0729   54.5981  125.8147 C   0  0  0  0  0  0  0  0  0  0  0  0
    6.3426   54.6607  124.3506 C   0  0  0  0  0  0  0  0  0  0  0  0
    7.7719   54.3259  124.0172 C   0  0  0  0  0  0  0  0  0  0  0  0
    8.7321   54.6584  125.1233 C   0  0  0  0  0  0  0  0  0  0  0  0
    8.3435   54.0463  126.4496 C   0  0  0  0  0  0  0  0  0  0  0  0
 12 13  1  0  0  0
 13 14  2  0  0  0
 14 15  1  0  0  0
 15 16  2  0  0  0
 16 17  1  0  0  0
 17 18  2  0  0  0
 16  1  1  0  0  0
  1  2  2  0  0  0
  2  3  1  0  0  0
  3  4  2  0  0  0
  4  5  1  0  0  0
  5  6  2  0  0  0
  6  7  1  0  0  0
  6  8  1  0  0  0
  8  9  2  0  0  0
  9 10  1  0  0  0
  2 20  1  0  0  0
 20 21  2  0  0  0
 21 22  1  0  0  0
 22 23  2  0  0  0
 23 26  1  0  0  0
 26 27  1  0  0  0
 27 28  1  0  0  0
 28 29  1  0  0  0
 29 30  1  0  0  0
 30 31  1  0  0  0
 31 32  1  0  0  0
 32 33  1  0  0  0
 33 34  1  0  0  0
 23 24  1  0  0  0
 24 25  2  0  0  0
 18 13  1  0  0  0
 10  1  1  0  0  0
 25 20  1  0  0  0
  9  3  1  0  0  0
 34 29  1  0  0  0
 12 19  1  0  0  0
  7 11  1  0  0  0
M  END
> <minimizedAffinity>
1.84238

> <CNNscore>
0.3614148796

> <CNNaffinity>
7.3941283226

> <CNN_VS>
2.6723480225

> <CNNaffinity_variance>
1.3255195618

$$$$
[H]Oc1c([H])c([H])c([C@]2([H])Oc3c([H])c([H])c(O[H])c([H])c3[C@@]3([H])C([H])([H])C([H])([H])C([H])([H])[C@@]32[H])c([H])c1[H]


 23 26  0  0  0  0  0  0  0  0999 V2000
    9.8512   47.8232  131.4461 C   0  0  0  0  0  0  0  0  0  0  0  0
   10.4470   46.8528  130.5979 O   0  0  0  0  0  0  0  0  0  0  0  0
   10.6059   45.5103  130.9874 C   0  0  0  0  0  0  0  0  0  0  0  0
   11.4543   44.7281  130.2291 C   0  0  0  0  0  0  0  0  0  0  0  0
   11.6456   43.4125  130.5644 C   0  0  0  0  0  0  0  0  0  0  0  0
   10.9880   42.8762  131.6599 C   0  0  0  0  0  0  0  0  0  0  0  0
   11.1813   41.5538  131.9958 O   0  0  0  0  0  0  0  0  0  0  0  0
   10.1413   43.6799  132.4065 C   0  0  0  0  0  0  0  0  0  0  0  0
    9.9437   44.9939  132.0802 C   0  0  0  0  0  0  0  0  0  0  0  0
    9.0607   45.9258  132.8178 C   0  0  0  0  0  0  0  0  0  0  0  0
    9.0175   45.6541  134.3046 C   0  0  0  0  0  0  0  0  0  0  0  0
    8.9444   47.0288  134.9722 C   0  0  0  0  0  0  0  0  0  0  0  0
    8.9447   48.0289  133.8058 C   0  0  0  0  0  0  0  0  0  0  0  0
    9.7487   47.2701  132.8000 C   0  0  0  0  0  0  0  0  0  0  0  0
   10.5659   40.8456  131.5909 H   0  0  0  0  0  0  0  0  0  0  0  0
    5.0925   49.7035  129.0420 O   0  0  0  0  0  0  0  0  0  0  0  0
    6.2554   49.2133  129.6260 C   0  0  0  0  0  0  0  0  0  0  0  0
    7.0840   50.0936  130.2976 C   0  0  0  0  0  0  0  0  0  0  0  0
    8.2410   49.6146  130.8805 C   0  0  0  0  0  0  0  0  0  0  0  0
    8.6047   48.2774  130.8172 C   0  0  0  0  0  0  0  0  0  0  0  0
    7.7506   47.4360  130.1381 C   0  0  0  0  0  0  0  0  0  0  0  0
    6.5874   47.8792  129.5444 C   0  0  0  0  0  0  0  0  0  0  0  0
    4.4831   49.0691  128.5508 H   0  0  0  0  0  0  0  0  0  0  0  0
 16 17  1  0  0  0
 17 18  2  0  0  0
 18 19  1  0  0  0
 19 20  2  0  0  0
 20 21  1  0  0  0
 21 22  2  0  0  0
 20  1  1  0  0  0
  1  2  1  0  0  0
  2  3  1  0  0  0
  3  4  2  0  0  0
  4  5  1  0  0  0
  5  6  2  0  0  0
  6  7  1  0  0  0
  6  8  1  0  0  0
  8  9  2  0  0  0
  9 10  1  0  0  0
 10 11  1  0  0  0
 11 12  1  0  0  0
 12 13  1  0  0  0
 13 14  1  0  0  0
 22 17  1  0  0  0
 14  1  1  0  0  0
  9  3  1  0  0  0
 14 10  1  0  0  0
 16 23  1  0  0  0
  7 15  1  0  0  0
M  END
> <minimizedAffinity>
-9.59677

> <CNNscore>
0.6742647886

> <CNNaffinity>
7.2899627686

> <CNN_VS>
4.9153652191

> <CNNaffinity_variance>
0.3975847363

$$$$
[H]Oc1c([H])c([H])c([C@]2([H])Oc3c([H])c([H])c(O[H])c([H])c3[C@@]3([H])C([H])([H])C([H])([H])C([H])([H])[C@@]32[H])c([H])c1[H]


 23 26  0  0  0  0  0  0  0  0999 V2000
    7.9200   45.4624  130.9184 C   0  0  0  0  0  0  0  0  0  0  0  0
    8.3829   45.5632  132.2569 O   0  0  0  0  0  0  0  0  0  0  0  0
    9.6324   45.0576  132.6601 C   0  0  0  0  0  0  0  0  0  0  0  0
    9.8568   44.9347  134.0170 C   0  0  0  0  0  0  0  0  0  0  0  0
   11.0574   44.4473  134.4649 C   0  0  0  0  0  0  0  0  0  0  0  0
   12.0369   44.0815  133.5556 C   0  0  0  0  0  0  0  0  0  0  0  0
   13.2432   43.5917  134.0073 O   0  0  0  0  0  0  0  0  0  0  0  0
   11.7898   44.2133  132.1985 C   0  0  0  0  0  0  0  0  0  0  0  0
   10.5949   44.6987  131.7413 C   0  0  0  0  0  0  0  0  0  0  0  0
   10.2427   44.8736  130.3139 C   0  0  0  0  0  0  0  0  0  0  0  0
   10.8576   43.8239  129.4159 C   0  0  0  0  0  0  0  0  0  0  0  0
    9.8003   43.5217  128.3522 C   0  0  0  0  0  0  0  0  0  0  0  0
    8.6186   44.4378  128.7061 C   0  0  0  0  0  0  0  0  0  0  0  0
    8.7788   44.5238  130.1895 C   0  0  0  0  0  0  0  0  0  0  0  0
   14.0058   44.2468  134.1902 H   0  0  0  0  0  0  0  0  0  0  0  0
    7.3401   50.6606  128.7729 O   0  0  0  0  0  0  0  0  0  0  0  0
    7.5092   49.3898  129.3116 C   0  0  0  0  0  0  0  0  0  0  0  0
    6.5571   48.4228  129.0450 C   0  0  0  0  0  0  0  0  0  0  0  0
    6.7178   47.1579  129.5762 C   0  0  0  0  0  0  0  0  0  0  0  0
    7.8034   46.8196  130.3709 C   0  0  0  0  0  0  0  0  0  0  0  0
    8.7271   47.8134  130.6111 C   0  0  0  0  0  0  0  0  0  0  0  0
    8.5991   49.0868  130.0971 C   0  0  0  0  0  0  0  0  0  0  0  0
    8.0290   51.3711  128.9622 H   0  0  0  0  0  0  0  0  0  0  0  0
 16 17  1  0  0  0
 17 18  2  0  0  0
 18 19  1  0  0  0
 19 20  2  0  0  0
 20 21  1  0  0  0
 21 22  2  0  0  0
 20  1  1  0  0  0
  1  2  1  0  0  0
  2  3  1  0  0  0
  3  4  2  0  0  0
  4  5  1  0  0  0
  5  6  2  0  0  0
  6  7  1  0  0  0
  6  8  1  0  0  0
  8  9  2  0  0  0
  9 10  1  0  0  0
 10 11  1  0  0  0
 11 12  1  0  0  0
 12 13  1  0  0  0
 13 14  1  0  0  0
 22 17  1  0  0  0
 14  1  1  0  0  0
  9  3  1  0  0  0
 14 10  1  0  0  0
 16 23  1  0  0  0
  7 15  1  0  0  0
M  END
> <minimizedAffinity>
-10.03052

> <CNNscore>
0.6491494179

> <CNNaffinity>
7.4513349533

> <CNN_VS>
4.8370299339

> <CNNaffinity_variance>
1.0335346460

$$$$
[H]Oc1c([H])c([H])c([C@]2([H])Oc3c([H])c([H])c(O[H])c([H])c3[C@@]3([H])C([H])([H])C([H])([H])C([H])([H])[C@@]32[H])c([H])c1[H]


 23 26  0  0  0  0  0  0  0  0999 V2000
    8.0804   45.6147  132.6100 C   0  0  0  0  0  0  0  0  0  0  0  0
    7.3036   45.7709  131.4317 O   0  0  0  0  0  0  0  0  0  0  0  0
    7.3671   46.9308  130.6380 C   0  0  0  0  0  0  0  0  0  0  0  0
    6.3694   47.1108  129.7005 C   0  0  0  0  0  0  0  0  0  0  0  0
    6.3829   48.2240  128.9003 C   0  0  0  0  0  0  0  0  0  0  0  0
    7.3953   49.1604  129.0364 C   0  0  0  0  0  0  0  0  0  0  0  0
    7.4075   50.2788  128.2315 O   0  0  0  0  0  0  0  0  0  0  0  0
    8.3861   48.9591  129.9840 C   0  0  0  0  0  0  0  0  0  0  0  0
    8.3817   47.8514  130.7873 C   0  0  0  0  0  0  0  0  0  0  0  0
    9.3956   47.5538  131.8244 C   0  0  0  0  0  0  0  0  0  0  0  0
    9.9395   48.7932  132.4985 C   0  0  0  0  0  0  0  0  0  0  0  0
   10.1385   48.4096  133.9662 C   0  0  0  0  0  0  0  0  0  0  0  0
    9.6930   46.9415  134.0491 C   0  0  0  0  0  0  0  0  0  0  0  0
    8.6549   46.9135  132.9743 C   0  0  0  0  0  0  0  0  0  0  0  0
    7.9009   50.2395  127.3375 H   0  0  0  0  0  0  0  0  0  0  0  0
   11.6772   41.3097  131.9101 O   0  0  0  0  0  0  0  0  0  0  0  0
   10.7956   42.3755  132.0535 C   0  0  0  0  0  0  0  0  0  0  0  0
   10.3175   42.6773  133.3157 C   0  0  0  0  0  0  0  0  0  0  0  0
    9.4414   43.7345  133.4666 C   0  0  0  0  0  0  0  0  0  0  0  0
    9.0211   44.5083  132.3947 C   0  0  0  0  0  0  0  0  0  0  0  0
    9.5217   44.1722  131.1558 C   0  0  0  0  0  0  0  0  0  0  0  0
   10.3980   43.1239  130.9679 C   0  0  0  0  0  0  0  0  0  0  0  0
   12.0304   41.0828  130.9942 H   0  0  0  0  0  0  0  0  0  0  0  0
 16 17  1  0  0  0
 17 18  2  0  0  0
 18 19  1  0  0  0
 19 20  2  0  0  0
 20 21  1  0  0  0
 21 22  2  0  0  0
 20  1  1  0  0  0
  1  2  1  0  0  0
  2  3  1  0  0  0
  3  4  2  0  0  0
  4  5  1  0  0  0
  5  6  2  0  0  0
  6  7  1  0  0  0
  6  8  1  0  0  0
  8  9  2  0  0  0
  9 10  1  0  0  0
 10 11  1  0  0  0
 11 12  1  0  0  0
 12 13  1  0  0  0
 13 14  1  0  0  0
 22 17  1  0  0  0
 14  1  1  0  0  0
  9  3  1  0  0  0
 14 10  1  0  0  0
 16 23  1  0  0  0
  7 15  1  0  0  0
M  END
> <minimizedAffinity>
-8.59609

> <CNNscore>
0.6121425033

> <CNNaffinity>
7.2188467979

> <CNN_VS>
4.4189629555

> <CNNaffinity_variance>
0.6486077309

$$$$
[H]Oc1c([H])c([H])c([C@]2([H])Oc3c([H])c([H])c(O[H])c([H])c3[C@@]3([H])C([H])([H])C([H])([H])C([H])([H])[C@@]32[H])c([H])c1[H]


 23 26  0  0  0  0  0  0  0  0999 V2000
    9.7521   48.0546  130.1689 C   0  0  0  0  0  0  0  0  0  0  0  0
    9.9594   46.8114  129.5151 O   0  0  0  0  0  0  0  0  0  0  0  0
   10.2404   45.6280  130.2222 C   0  0  0  0  0  0  0  0  0  0  0  0
   10.7176   44.5553  129.4955 C   0  0  0  0  0  0  0  0  0  0  0  0
   11.0078   43.3777  130.1348 C   0  0  0  0  0  0  0  0  0  0  0  0
   10.8210   43.2706  131.5036 C   0  0  0  0  0  0  0  0  0  0  0  0
   11.1131   42.0863  132.1449 O   0  0  0  0  0  0  0  0  0  0  0  0
   10.3410   44.3600  132.2128 C   0  0  0  0  0  0  0  0  0  0  0  0
   10.0485   45.5396  131.5841 C   0  0  0  0  0  0  0  0  0  0  0  0
    9.5332   46.7530  132.2581 C   0  0  0  0  0  0  0  0  0  0  0  0
   10.0679   46.9270  133.6618 C   0  0  0  0  0  0  0  0  0  0  0  0
   10.2771   48.4322  133.8388 C   0  0  0  0  0  0  0  0  0  0  0  0
    9.8365   49.0468  132.5013 C   0  0  0  0  0  0  0  0  0  0  0  0
   10.1769   47.9314  131.5667 C   0  0  0  0  0  0  0  0  0  0  0  0
   10.3799   41.3807  132.2388 H   0  0  0  0  0  0  0  0  0  0  0  0
    4.4499   49.7939  129.2626 O   0  0  0  0  0  0  0  0  0  0  0  0
    5.7459   49.3384  129.4787 C   0  0  0  0  0  0  0  0  0  0  0  0
    6.6911   50.2265  129.9588 C   0  0  0  0  0  0  0  0  0  0  0  0
    7.9807   49.7819  130.1761 C   0  0  0  0  0  0  0  0  0  0  0  0
    8.3650   48.4719  129.9297 C   0  0  0  0  0  0  0  0  0  0  0  0
    7.3917   47.6216  129.4520 C   0  0  0  0  0  0  0  0  0  0  0  0
    6.0946   48.0308  129.2235 C   0  0  0  0  0  0  0  0  0  0  0  0
    3.7549   49.1537  128.9130 H   0  0  0  0  0  0  0  0  0  0  0  0
 16 17  1  0  0  0
 17 18  2  0  0  0
 18 19  1  0  0  0
 19 20  2  0  0  0
 20 21  1  0  0  0
 21 22  2  0  0  0
 20  1  1  0  0  0
  1  2  1  0  0  0
  2  3  1  0  0  0
  3  4  2  0  0  0
  4  5  1  0  0  0
  5  6  2  0  0  0
  6  7  1  0  0  0
  6  8  1  0  0  0
  8  9  2  0  0  0
  9 10  1  0  0  0
 10 11  1  0  0  0
 11 12  1  0  0  0
 12 13  1  0  0  0
 13 14  1  0  0  0
 22 17  1  0  0  0
 14  1  1  0  0  0
  9  3  1  0  0  0
 14 10  1  0  0  0
 16 23  1  0  0  0
  7 15  1  0  0  0
M  END
> <minimizedAffinity>
-9.80170

> <CNNscore>
0.6040815115

> <CNNaffinity>
7.0573945045

> <CNN_VS>
4.2632417679

> <CNNaffinity_variance>
0.4126344621

$$$$
[H]Oc1c([H])c([H])c([C@]2([H])Oc3c([H])c([H])c(O[H])c([H])c3[C@@]3([H])C([H])([H])C([H])([H])C([H])([H])[C@@]32[H])c([H])c1[H]


 23 26  0  0  0  0  0  0  0  0999 V2000
    8.8222   45.4021  130.9860 C   0  0  0  0  0  0  0  0  0  0  0  0
    8.3271   46.0627  129.8307 O   0  0  0  0  0  0  0  0  0  0  0  0
    7.9647   47.4221  129.8396 C   0  0  0  0  0  0  0  0  0  0  0  0
    7.2227   47.8856  128.7713 C   0  0  0  0  0  0  0  0  0  0  0  0
    6.8426   49.2023  128.7294 C   0  0  0  0  0  0  0  0  0  0  0  0
    7.2042   50.0586  129.7571 C   0  0  0  0  0  0  0  0  0  0  0  0
    6.8213   51.3817  129.7137 O   0  0  0  0  0  0  0  0  0  0  0  0
    7.9489   49.5715  130.8193 C   0  0  0  0  0  0  0  0  0  0  0  0
    8.3332   48.2593  130.8703 C   0  0  0  0  0  0  0  0  0  0  0  0
    9.1273   47.6517  131.9623 C   0  0  0  0  0  0  0  0  0  0  0  0
    8.8342   48.2540  133.3180 C   0  0  0  0  0  0  0  0  0  0  0  0
    8.8961   47.0891  134.3079 C   0  0  0  0  0  0  0  0  0  0  0  0
    9.2329   45.8626  133.4459 C   0  0  0  0  0  0  0  0  0  0  0  0
    8.5880   46.2543  132.1558 C   0  0  0  0  0  0  0  0  0  0  0  0
    7.4380   52.0606  129.2629 H   0  0  0  0  0  0  0  0  0  0  0  0
   14.1609   43.9236  129.8580 O   0  0  0  0  0  0  0  0  0  0  0  0
   12.8502   44.2747  130.1622 C   0  0  0  0  0  0  0  0  0  0  0  0
   12.0784   44.8740  129.1835 C   0  0  0  0  0  0  0  0  0  0  0  0
   10.7755   45.2257  129.4777 C   0  0  0  0  0  0  0  0  0  0  0  0
   10.2094   44.9993  130.7237 C   0  0  0  0  0  0  0  0  0  0  0  0
   11.0139   44.4005  131.6686 C   0  0  0  0  0  0  0  0  0  0  0  0
   12.3186   44.0358  131.4101 C   0  0  0  0  0  0  0  0  0  0  0  0
   14.7302   43.4866  130.5652 H   0  0  0  0  0  0  0  0  0  0  0  0
 16 17  1  0  0  0
 17 18  2  0  0  0
 18 19  1  0  0  0
 19 20  2  0  0  0
 20 21  1  0  0  0
 21 22  2  0  0  0
 20  1  1  0  0  0
  1  2  1  0  0  0
  2  3  1  0  0  0
  3  4  2  0  0  0
  4  5  1  0  0  0
  5  6  2  0  0  0
  6  7  1  0  0  0
  6  8  1  0  0  0
  8  9  2  0  0  0
  9 10  1  0  0  0
 10 11  1  0  0  0
 11 12  1  0  0  0
 12 13  1  0  0  0
 13 14  1  0  0  0
 22 17  1  0  0  0
 14  1  1  0  0  0
  9  3  1  0  0  0
 14 10  1  0  0  0
 16 23  1  0  0  0
  7 15  1  0  0  0
M  END
> <minimizedAffinity>
-9.63138

> <CNNscore>
0.5981219411

> <CNNaffinity>
7.1879296303

> <CNN_VS>
4.2992582321

> <CNNaffinity_variance>
0.6448885798

$$$$
[H]Oc1c([H])c([H])c([C@]2([H])Oc3c([H])c([H])c(O[H])c([H])c3[C@@]3([H])C([H])([H])C([H])([H])C([H])([H])[C@@]32[H])c([H])c1[H]


 23 26  0  0  0  0  0  0  0  0999 V2000
   11.0916   46.1411  130.8886 C   0  0  0  0  0  0  0  0  0  0  0  0
   10.3326   47.3229  131.0968 O   0  0  0  0  0  0  0  0  0  0  0  0
    9.0820   47.5302  130.4865 C   0  0  0  0  0  0  0  0  0  0  0  0
    8.5727   48.8134  130.5084 C   0  0  0  0  0  0  0  0  0  0  0  0
    7.3575   49.0713  129.9282 C   0  0  0  0  0  0  0  0  0  0  0  0
    6.6488   48.0451  129.3242 C   0  0  0  0  0  0  0  0  0  0  0  0
    5.4276   48.3058  128.7413 O   0  0  0  0  0  0  0  0  0  0  0  0
    7.1793   46.7650  129.3141 C   0  0  0  0  0  0  0  0  0  0  0  0
    8.3911   46.4974  129.8904 C   0  0  0  0  0  0  0  0  0  0  0  0
    9.0349   45.1646  129.9275 C   0  0  0  0  0  0  0  0  0  0  0  0
    8.7460   44.3294  128.7006 C   0  0  0  0  0  0  0  0  0  0  0  0
   10.0398   43.5672  128.4075 C   0  0  0  0  0  0  0  0  0  0  0  0
   11.0136   44.0147  129.5085 C   0  0  0  0  0  0  0  0  0  0  0  0
   10.5171   45.4017  129.7603 C   0  0  0  0  0  0  0  0  0  0  0  0
    4.5813   48.2242  129.3084 H   0  0  0  0  0  0  0  0  0  0  0  0
   11.6031   43.3635  135.7859 O   0  0  0  0  0  0  0  0  0  0  0  0
   11.4511   44.0572  134.5903 C   0  0  0  0  0  0  0  0  0  0  0  0
   12.3999   43.8882  133.5985 C   0  0  0  0  0  0  0  0  0  0  0  0
   12.2561   44.5737  132.4080 C   0  0  0  0  0  0  0  0  0  0  0  0
   11.1907   45.4292  132.1687 C   0  0  0  0  0  0  0  0  0  0  0  0
   10.2694   45.5681  133.1840 C   0  0  0  0  0  0  0  0  0  0  0  0
   10.3810   44.8995  134.3851 C   0  0  0  0  0  0  0  0  0  0  0  0
   10.9165   43.4808  136.5138 H   0  0  0  0  0  0  0  0  0  0  0  0
 16 17  1  0  0  0
 17 18  2  0  0  0
 18 19  1  0  0  0
 19 20  2  0  0  0
 20 21  1  0  0  0
 21 22  2  0  0  0
 20  1  1  0  0  0
  1  2  1  0  0  0
  2  3  1  0  0  0
  3  4  2  0  0  0
  4  5  1  0  0  0
  5  6  2  0  0  0
  6  7  1  0  0  0
  6  8  1  0  0  0
  8  9  2  0  0  0
  9 10  1  0  0  0
 10 11  1  0  0  0
 11 12  1  0  0  0
 12 13  1  0  0  0
 13 14  1  0  0  0
 22 17  1  0  0  0
 14  1  1  0  0  0
  9  3  1  0  0  0
 14 10  1  0  0  0
 16 23  1  0  0  0
  7 15  1  0  0  0
M  END
> <minimizedAffinity>
-9.11186

> <CNNscore>
0.5685608983

> <CNNaffinity>
7.2896947861

> <CNN_VS>
4.1446352005

> <CNNaffinity_variance>
0.9299230576

$$$$
[H]Oc1c([H])c([H])c([C@]2([H])Oc3c([H])c([H])c(O[H])c([H])c3[C@@]3([H])C([H])([H])C([H])([H])C([H])([H])[C@@]32[H])c([H])c1[H]


 23 26  0  0  0  0  0  0  0  0999 V2000
   10.5932   46.1203  130.8949 C   0  0  0  0  0  0  0  0  0  0  0  0
   10.1672   47.3339  131.4964 O   0  0  0  0  0  0  0  0  0  0  0  0
    9.2345   48.1900  130.8827 C   0  0  0  0  0  0  0  0  0  0  0  0
    9.1169   49.4673  131.3938 C   0  0  0  0  0  0  0  0  0  0  0  0
    8.2230   50.3428  130.8334 C   0  0  0  0  0  0  0  0  0  0  0  0
    7.4442   49.9421  129.7596 C   0  0  0  0  0  0  0  0  0  0  0  0
    6.5462   50.8232  129.1972 O   0  0  0  0  0  0  0  0  0  0  0  0
    7.5791   48.6554  129.2631 C   0  0  0  0  0  0  0  0  0  0  0  0
    8.4683   47.7741  129.8154 C   0  0  0  0  0  0  0  0  0  0  0  0
    8.6804   46.3838  129.3526 C   0  0  0  0  0  0  0  0  0  0  0  0
    8.5085   46.2205  127.8592 C   0  0  0  0  0  0  0  0  0  0  0  0
    9.5675   45.2023  127.4320 C   0  0  0  0  0  0  0  0  0  0  0  0
   10.2966   44.8295  128.7320 C   0  0  0  0  0  0  0  0  0  0  0  0
   10.1583   46.1073  129.4948 C   0  0  0  0  0  0  0  0  0  0  0  0
    5.5914   50.8553  129.5601 H   0  0  0  0  0  0  0  0  0  0  0  0
    8.9959   41.8113  134.1875 O   0  0  0  0  0  0  0  0  0  0  0  0
    9.3603   42.8783  133.3736 C   0  0  0  0  0  0  0  0  0  0  0  0
   10.6965   43.0497  133.0609 C   0  0  0  0  0  0  0  0  0  0  0  0
   11.0667   44.1071  132.2530 C   0  0  0  0  0  0  0  0  0  0  0  0
   10.1441   45.0078  131.7410 C   0  0  0  0  0  0  0  0  0  0  0  0
    8.8244   44.7996  132.0781 C   0  0  0  0  0  0  0  0  0  0  0  0
    8.4187   43.7548  132.8819 C   0  0  0  0  0  0  0  0  0  0  0  0
    8.0246   41.6790  134.4203 H   0  0  0  0  0  0  0  0  0  0  0  0
 16 17  1  0  0  0
 17 18  2  0  0  0
 18 19  1  0  0  0
 19 20  2  0  0  0
 20 21  1  0  0  0
 21 22  2  0  0  0
 20  1  1  0  0  0
  1  2  1  0  0  0
  2  3  1  0  0  0
  3  4  2  0  0  0
  4  5  1  0  0  0
  5  6  2  0  0  0
  6  7  1  0  0  0
  6  8  1  0  0  0
  8  9  2  0  0  0
  9 10  1  0  0  0
 10 11  1  0  0  0
 11 12  1  0  0  0
 12 13  1  0  0  0
 13 14  1  0  0  0
 22 17  1  0  0  0
 14  1  1  0  0  0
  9  3  1  0  0  0
 14 10  1  0  0  0
 16 23  1  0  0  0
  7 15  1  0  0  0
M  END
> <minimizedAffinity>
-3.86014

> <CNNscore>
0.4266386628

> <CNNaffinity>
6.9983649254

> <CNN_VS>
2.9857730865

> <CNNaffinity_variance>
0.8840610385

$$$$
[H]Oc1c([H])c([H])c([C@]2([H])Oc3c([H])c([H])c(O[H])c([H])c3[C@@]3([H])C([H])([H])C([H])([H])C([H])([H])[C@@]32[H])c([H])c1[H]


 23 26  0  0  0  0  0  0  0  0999 V2000
    7.6646   45.8526  131.1630 C   0  0  0  0  0  0  0  0  0  0  0  0
    6.7260   46.5252  130.3367 O   0  0  0  0  0  0  0  0  0  0  0  0
    6.8165   47.9024  130.0637 C   0  0  0  0  0  0  0  0  0  0  0  0
    5.7078   48.5114  129.5099 C   0  0  0  0  0  0  0  0  0  0  0  0
    5.7417   49.8518  129.2238 C   0  0  0  0  0  0  0  0  0  0  0  0
    6.8858   50.5865  129.4912 C   0  0  0  0  0  0  0  0  0  0  0  0
    6.9184   51.9337  129.2031 O   0  0  0  0  0  0  0  0  0  0  0  0
    7.9866   49.9545  130.0472 C   0  0  0  0  0  0  0  0  0  0  0  0
    7.9627   48.6173  130.3364 C   0  0  0  0  0  0  0  0  0  0  0  0
    9.0877   47.8594  130.9299 C   0  0  0  0  0  0  0  0  0  0  0  0
    9.9117   48.6777  131.8983 C   0  0  0  0  0  0  0  0  0  0  0  0
   10.3047   47.7145  133.0202 C   0  0  0  0  0  0  0  0  0  0  0  0
    9.6749   46.3716  132.6194 C   0  0  0  0  0  0  0  0  0  0  0  0
    8.4733   46.8501  131.8705 C   0  0  0  0  0  0  0  0  0  0  0  0
    7.2389   52.2346  128.2807 H   0  0  0  0  0  0  0  0  0  0  0  0
   10.4946   42.2002  127.9056 O   0  0  0  0  0  0  0  0  0  0  0  0
    9.7904   43.0761  128.7245 C   0  0  0  0  0  0  0  0  0  0  0  0
    9.6948   44.4041  128.3504 C   0  0  0  0  0  0  0  0  0  0  0  0
    8.9970   45.2806  129.1582 C   0  0  0  0  0  0  0  0  0  0  0  0
    8.3857   44.8769  130.3363 C   0  0  0  0  0  0  0  0  0  0  0  0
    8.5065   43.5457  130.6707 C   0  0  0  0  0  0  0  0  0  0  0  0
    9.1951   42.6426  129.8882 C   0  0  0  0  0  0  0  0  0  0  0  0
   10.5693   41.2310  128.1706 H   0  0  0  0  0  0  0  0  0  0  0  0
 16 17  1  0  0  0
 17 18  2  0  0  0
 18 19  1  0  0  0
 19 20  2  0  0  0
 20 21  1  0  0  0
 21 22  2  0  0  0
 20  1  1  0  0  0
  1  2  1  0  0  0
  2  3  1  0  0  0
  3  4  2  0  0  0
  4  5  1  0  0  0
  5  6  2  0  0  0
  6  7  1  0  0  0
  6  8  1  0  0  0
  8  9  2  0  0  0
  9 10  1  0  0  0
 10 11  1  0  0  0
 11 12  1  0  0  0
 12 13  1  0  0  0
 13 14  1  0  0  0
 22 17  1  0  0  0
 14  1  1  0  0  0
  9  3  1  0  0  0
 14 10  1  0  0  0
 16 23  1  0  0  0
  7 15  1  0  0  0
M  END
> <minimizedAffinity>
-7.38655

> <CNNscore>
0.4005473256

> <CNNaffinity>
6.8751540184

> <CNN_VS>
2.7538244724

> <CNNaffinity_variance>
0.4980750978

$$$$
[H]Oc1c([H])c([H])c([C@]2([H])Oc3c([H])c([H])c(O[H])c([H])c3[C@@]3([H])C([H])([H])C([H])([H])C([H])([H])[C@@]32[H])c([H])c1[H]


 23 26  0  0  0  0  0  0  0  0999 V2000
   11.0178   46.1010  131.5175 C   0  0  0  0  0  0  0  0  0  0  0  0
   10.3151   47.2538  131.9572 O   0  0  0  0  0  0  0  0  0  0  0  0
    9.4850   48.0000  131.1009 C   0  0  0  0  0  0  0  0  0  0  0  0
    9.0943   49.2523  131.5320 C   0  0  0  0  0  0  0  0  0  0  0  0
    8.2851   50.0220  130.7367 C   0  0  0  0  0  0  0  0  0  0  0  0
    7.8648   49.5403  129.5073 C   0  0  0  0  0  0  0  0  0  0  0  0
    7.0516   50.3151  128.7089 O   0  0  0  0  0  0  0  0  0  0  0  0
    8.2693   48.2807  129.0949 C   0  0  0  0  0  0  0  0  0  0  0  0
    9.0766   47.5047  129.8813 C   0  0  0  0  0  0  0  0  0  0  0  0
    9.5580   46.1509  129.5242 C   0  0  0  0  0  0  0  0  0  0  0  0
    9.8024   45.9775  128.0421 C   0  0  0  0  0  0  0  0  0  0  0  0
   11.0442   45.0909  127.9307 C   0  0  0  0  0  0  0  0  0  0  0  0
   11.4450   44.7972  129.3846 C   0  0  0  0  0  0  0  0  0  0  0  0
   10.9687   46.0460  130.0532 C   0  0  0  0  0  0  0  0  0  0  0  0
    6.0379   50.2347  128.8096 H   0  0  0  0  0  0  0  0  0  0  0  0
    8.8768   41.6323  134.2391 O   0  0  0  0  0  0  0  0  0  0  0  0
    9.4291   42.7276  133.5841 C   0  0  0  0  0  0  0  0  0  0  0  0
    8.6220   43.4796  132.7501 C   0  0  0  0  0  0  0  0  0  0  0  0
    9.1629   44.5692  132.0958 C   0  0  0  0  0  0  0  0  0  0  0  0
   10.4916   44.9392  132.2446 C   0  0  0  0  0  0  0  0  0  0  0  0
   11.2593   44.1620  133.0844 C   0  0  0  0  0  0  0  0  0  0  0  0
   10.7528   43.0677  133.7538 C   0  0  0  0  0  0  0  0  0  0  0  0
    9.4577   41.0789  134.8486 H   0  0  0  0  0  0  0  0  0  0  0  0
 16 17  1  0  0  0
 17 18  2  0  0  0
 18 19  1  0  0  0
 19 20  2  0  0  0
 20 21  1  0  0  0
 21 22  2  0  0  0
 20  1  1  0  0  0
  1  2  1  0  0  0
  2  3  1  0  0  0
  3  4  2  0  0  0
  4  5  1  0  0  0
  5  6  2  0  0  0
  6  7  1  0  0  0
  6  8  1  0  0  0
  8  9  2  0  0  0
  9 10  1  0  0  0
 10 11  1  0  0  0
 11 12  1  0  0  0
 12 13  1  0  0  0
 13 14  1  0  0  0
 22 17  1  0  0  0
 14  1  1  0  0  0
  9  3  1  0  0  0
 14 10  1  0  0  0
 16 23  1  0  0  0
  7 15  1  0  0  0
M  END
> <minimizedAffinity>
-6.61975

> <CNNscore>
0.3593476117

> <CNNaffinity>
6.9339203835

> <CNN_VS>
2.4916877747

> <CNNaffinity_variance>
0.5144524574

$$$$
[H]Oc1c([H])c([H])c([C@@]2([H])Sc3c([H])c(O[H])c([H])c([H])c3O[C@]2([H])c2c([H])c([H])c(OC([H])([H])C([H])([H])N3C([H])([H])C([H])([H])C([H])([H])C3([H])[H])c([H])c2[H])c([H])c1[H]


 34 38  0  0  0  0  0  0  0  0999 V2000
   10.4537   45.1561  131.7980 C   0  0  0  0  0  0  0  0  0  0  0  0
   12.1387   45.0722  132.4808 S   0  0  0  0  0  0  0  0  0  0  0  0
   12.2609   46.4291  133.6383 C   0  0  0  0  0  0  0  0  0  0  0  0
   13.3304   46.6040  134.4581 C   0  0  0  0  0  0  0  0  0  0  0  0
   13.3826   47.6728  135.3432 C   0  0  0  0  0  0  0  0  0  0  0  0
   14.4809   47.8478  136.1820 O   0  0  0  0  0  0  0  0  0  0  0  0
   12.3520   48.6005  135.4271 C   0  0  0  0  0  0  0  0  0  0  0  0
   11.2688   48.4171  134.5919 C   0  0  0  0  0  0  0  0  0  0  0  0
   11.2338   47.3454  133.7154 C   0  0  0  0  0  0  0  0  0  0  0  0
   10.1185   47.2195  132.9050 O   0  0  0  0  0  0  0  0  0  0  0  0
   10.1539   46.6328  131.6287 C   0  0  0  0  0  0  0  0  0  0  0  0
   15.2597   47.1906  136.1542 H   0  0  0  0  0  0  0  0  0  0  0  0
    9.8576   42.2365  126.9574 O   0  0  0  0  0  0  0  0  0  0  0  0
    9.9951   42.9484  128.1619 C   0  0  0  0  0  0  0  0  0  0  0  0
    9.3859   42.5189  129.3200 C   0  0  0  0  0  0  0  0  0  0  0  0
    9.5304   43.2320  130.5037 C   0  0  0  0  0  0  0  0  0  0  0  0
   10.2779   44.3837  130.5730 C   0  0  0  0  0  0  0  0  0  0  0  0
   10.8803   44.8000  129.4073 C   0  0  0  0  0  0  0  0  0  0  0  0
   10.7467   44.1010  128.2187 C   0  0  0  0  0  0  0  0  0  0  0  0
    9.3247   41.4030  126.8808 H   0  0  0  0  0  0  0  0  0  0  0  0
    8.8604   46.8667  130.9536 C   0  0  0  0  0  0  0  0  0  0  0  0
    7.7561   46.0650  131.1499 C   0  0  0  0  0  0  0  0  0  0  0  0
    6.5677   46.3200  130.4983 C   0  0  0  0  0  0  0  0  0  0  0  0
    6.4223   47.3806  129.6240 C   0  0  0  0  0  0  0  0  0  0  0  0
    7.5239   48.1844  129.4251 C   0  0  0  0  0  0  0  0  0  0  0  0
    8.7227   47.9273  130.0823 C   0  0  0  0  0  0  0  0  0  0  0  0
    5.2113   47.6232  128.9733 O   0  0  0  0  0  0  0  0  0  0  0  0
    4.1062   46.7321  129.1335 C   0  0  0  0  0  0  0  0  0  0  0  0
    3.5256   46.8146  130.5066 C   0  0  0  0  0  0  0  0  0  0  0  0
    2.1497   46.4474  130.5845 N   0  0  0  0  0  0  0  0  0  0  0  0
    1.3203   46.9847  129.5589 C   0  0  0  0  0  0  0  0  0  0  0  0
    0.7395   45.7964  128.8222 C   0  0  0  0  0  0  0  0  0  0  0  0
    0.6411   44.7586  129.9235 C   0  0  0  0  0  0  0  0  0  0  0  0
    1.8902   45.0524  130.7411 C   0  0  0  0  0  0  0  0  0  0  0  0
 13 14  1  0  0  0
 14 15  2  0  0  0
 15 16  1  0  0  0
 16 17  2  0  0  0
 17 18  1  0  0  0
 18 19  2  0  0  0
 17  1  1  0  0  0
  1  2  1  0  0  0
  2  3  1  0  0  0
  3  4  2  0  0  0
  4  5  1  0  0  0
  5  6  1  0  0  0
  5  7  2  0  0  0
  7  8  1  0  0  0
  8  9  2  0  0  0
  9 10  1  0  0  0
 10 11  1  0  0  0
 11 21  1  0  0  0
 21 22  2  0  0  0
 22 23  1  0  0  0
 23 24  2  0  0  0
 24 27  1  0  0  0
 27 28  1  0  0  0
 28 29  1  0  0  0
 29 30  1  0  0  0
 30 31  1  0  0  0
 31 32  1  0  0  0
 32 33  1  0  0  0
 33 34  1  0  0  0
 24 25  1  0  0  0
 25 26  2  0  0  0
 19 14  1  0  0  0
 11  1  1  0  0  0
 26 21  1  0  0  0
  9  3  1  0  0  0
 34 30  1  0  0  0
 13 20  1  0  0  0
  6 12  1  0  0  0
M  END
> <minimizedAffinity>
17.30589

> <CNNscore>
0.4120790362

> <CNNaffinity>
7.3739266396

> <CNN_VS>
3.0386404991

> <CNNaffinity_variance>
1.3757116795

$$$$
[H]Oc1c([H])c([H])c([C@@]2([H])Sc3c([H])c(O[H])c([H])c([H])c3O[C@]2([H])c2c([H])c([H])c(OC([H])([H])C([H])([H])N3C([H])([H])C([H])([H])C([H])([H])C3([H])[H])c([H])c2[H])c([H])c1[H]


 34 38  0  0  0  0  0  0  0  0999 V2000
    8.9280   45.9869  129.4760 C   0  0  0  0  0  0  0  0  0  0  0  0
    9.7088   45.6203  127.8735 S   0  0  0  0  0  0  0  0  0  0  0  0
   11.3030   44.9107  128.2620 C   0  0  0  0  0  0  0  0  0  0  0  0
   12.1200   44.3734  127.3183 C   0  0  0  0  0  0  0  0  0  0  0  0
   13.3505   43.8317  127.6658 C   0  0  0  0  0  0  0  0  0  0  0  0
   14.1845   43.2817  126.6950 O   0  0  0  0  0  0  0  0  0  0  0  0
   13.7945   43.8164  128.9820 C   0  0  0  0  0  0  0  0  0  0  0  0
   12.9602   44.3635  129.9354 C   0  0  0  0  0  0  0  0  0  0  0  0
   11.7363   44.8994  129.5707 C   0  0  0  0  0  0  0  0  0  0  0  0
   10.9476   45.4327  130.5757 O   0  0  0  0  0  0  0  0  0  0  0  0
   10.0450   46.4897  130.3699 C   0  0  0  0  0  0  0  0  0  0  0  0
   13.8984   43.2713  125.7165 H   0  0  0  0  0  0  0  0  0  0  0  0
    4.6251   49.6797  129.0759 O   0  0  0  0  0  0  0  0  0  0  0  0
    5.6790   48.7548  129.1787 C   0  0  0  0  0  0  0  0  0  0  0  0
    5.4402   47.4255  129.4483 C   0  0  0  0  0  0  0  0  0  0  0  0
    6.4911   46.5221  129.5470 C   0  0  0  0  0  0  0  0  0  0  0  0
    7.8003   46.9077  129.3823 C   0  0  0  0  0  0  0  0  0  0  0  0
    8.0228   48.2394  129.1134 C   0  0  0  0  0  0  0  0  0  0  0  0
    6.9866   49.1533  129.0117 C   0  0  0  0  0  0  0  0  0  0  0  0
    3.6723   49.4272  129.1898 H   0  0  0  0  0  0  0  0  0  0  0  0
    9.5449   46.9595  131.6787 C   0  0  0  0  0  0  0  0  0  0  0  0
    9.8769   48.1868  132.2118 C   0  0  0  0  0  0  0  0  0  0  0  0
    9.3871   48.5852  133.4379 C   0  0  0  0  0  0  0  0  0  0  0  0
    8.5471   47.7845  134.1886 C   0  0  0  0  0  0  0  0  0  0  0  0
    8.2129   46.5568  133.6591 C   0  0  0  0  0  0  0  0  0  0  0  0
    8.7068   46.1549  132.4224 C   0  0  0  0  0  0  0  0  0  0  0  0
    8.0611   48.2047  135.4280 O   0  0  0  0  0  0  0  0  0  0  0  0
    8.5703   47.6436  136.6391 C   0  0  0  0  0  0  0  0  0  0  0  0
    9.9577   47.1205  136.4641 C   0  0  0  0  0  0  0  0  0  0  0  0
   10.0859   46.1262  135.4499 N   0  0  0  0  0  0  0  0  0  0  0  0
   11.1940   46.2962  134.5713 C   0  0  0  0  0  0  0  0  0  0  0  0
   12.0513   45.0588  134.7314 C   0  0  0  0  0  0  0  0  0  0  0  0
   11.0171   43.9961  135.0486 C   0  0  0  0  0  0  0  0  0  0  0  0
   10.0233   44.7728  135.8997 C   0  0  0  0  0  0  0  0  0  0  0  0
 13 14  1  0  0  0
 14 15  2  0  0  0
 15 16  1  0  0  0
 16 17  2  0  0  0
 17 18  1  0  0  0
 18 19  2  0  0  0
 17  1  1  0  0  0
  1  2  1  0  0  0
  2  3  1  0  0  0
  3  4  2  0  0  0
  4  5  1  0  0  0
  5  6  1  0  0  0
  5  7  2  0  0  0
  7  8  1  0  0  0
  8  9  2  0  0  0
  9 10  1  0  0  0
 10 11  1  0  0  0
 11 21  1  0  0  0
 21 22  2  0  0  0
 22 23  1  0  0  0
 23 24  2  0  0  0
 24 27  1  0  0  0
 27 28  1  0  0  0
 28 29  1  0  0  0
 29 30  1  0  0  0
 30 31  1  0  0  0
 31 32  1  0  0  0
 32 33  1  0  0  0
 33 34  1  0  0  0
 24 25  1  0  0  0
 25 26  2  0  0  0
 19 14  1  0  0  0
 11  1  1  0  0  0
 26 21  1  0  0  0
  9  3  1  0  0  0
 34 30  1  0  0  0
 13 20  1  0  0  0
  6 12  1  0  0  0
M  END
> <minimizedAffinity>
12.13488

> <CNNscore>
0.4097721577

> <CNNaffinity>
7.5635743141

> <CNN_VS>
3.0993421078

> <CNNaffinity_variance>
1.3925453424

$$$$
[H]Oc1c([H])c([H])c([C@@]2([H])Sc3c([H])c(O[H])c([H])c([H])c3O[C@]2([H])c2c([H])c([H])c(OC([H])([H])C([H])([H])N3C([H])([H])C([H])([H])C([H])([H])C3([H])[H])c([H])c2[H])c([H])c1[H]


 34 38  0  0  0  0  0  0  0  0999 V2000
    9.2322   44.5258  130.3204 C   0  0  0  0  0  0  0  0  0  0  0  0
    9.8138   42.8227  130.5918 S   0  0  0  0  0  0  0  0  0  0  0  0
    9.6665   42.5344  132.3500 C   0  0  0  0  0  0  0  0  0  0  0  0
    9.8707   41.3163  132.9164 C   0  0  0  0  0  0  0  0  0  0  0  0
    9.7443   41.1378  134.2878 C   0  0  0  0  0  0  0  0  0  0  0  0
    9.9543   39.8870  134.8640 O   0  0  0  0  0  0  0  0  0  0  0  0
    9.4065   42.1885  135.1314 C   0  0  0  0  0  0  0  0  0  0  0  0
    9.2005   43.4229  134.5499 C   0  0  0  0  0  0  0  0  0  0  0  0
    9.3309   43.5825  133.1803 C   0  0  0  0  0  0  0  0  0  0  0  0
    9.1109   44.8468  132.6609 O   0  0  0  0  0  0  0  0  0  0  0  0
    9.7446   45.3262  131.5021 C   0  0  0  0  0  0  0  0  0  0  0  0
   10.2035   39.0877  134.2824 H   0  0  0  0  0  0  0  0  0  0  0  0
   10.6947   46.8118  125.3258 O   0  0  0  0  0  0  0  0  0  0  0  0
   10.3402   46.2328  126.5569 C   0  0  0  0  0  0  0  0  0  0  0  0
   10.7484   44.9612  126.8931 C   0  0  0  0  0  0  0  0  0  0  0  0
   10.3911   44.4011  128.1134 C   0  0  0  0  0  0  0  0  0  0  0  0
    9.6239   45.0809  129.0295 C   0  0  0  0  0  0  0  0  0  0  0  0
    9.2237   46.3505  128.6789 C   0  0  0  0  0  0  0  0  0  0  0  0
    9.5711   46.9239  127.4666 C   0  0  0  0  0  0  0  0  0  0  0  0
   11.2475   46.3431  124.6481 H   0  0  0  0  0  0  0  0  0  0  0  0
    9.4659   46.7707  131.3617 C   0  0  0  0  0  0  0  0  0  0  0  0
   10.3958   47.6714  130.8876 C   0  0  0  0  0  0  0  0  0  0  0  0
   10.0929   49.0119  130.7731 C   0  0  0  0  0  0  0  0  0  0  0  0
    8.8552   49.5177  131.1234 C   0  0  0  0  0  0  0  0  0  0  0  0
    7.9229   48.6205  131.5978 C   0  0  0  0  0  0  0  0  0  0  0  0
    8.2283   47.2683  131.7133 C   0  0  0  0  0  0  0  0  0  0  0  0
    8.5667   50.8780  131.0006 O   0  0  0  0  0  0  0  0  0  0  0  0
    7.4991   51.3242  130.1628 C   0  0  0  0  0  0  0  0  0  0  0  0
    7.4776   50.5939  128.8607 C   0  0  0  0  0  0  0  0  0  0  0  0
    6.2735   49.8707  128.6137 N   0  0  0  0  0  0  0  0  0  0  0  0
    6.4443   48.6107  127.9720 C   0  0  0  0  0  0  0  0  0  0  0  0
    5.8926   47.5740  128.9275 C   0  0  0  0  0  0  0  0  0  0  0  0
    4.7875   48.3431  129.6252 C   0  0  0  0  0  0  0  0  0  0  0  0
    5.3944   49.7344  129.7301 C   0  0  0  0  0  0  0  0  0  0  0  0
 13 14  1  0  0  0
 14 15  2  0  0  0
 15 16  1  0  0  0
 16 17  2  0  0  0
 17 18  1  0  0  0
 18 19  2  0  0  0
 17  1  1  0  0  0
  1  2  1  0  0  0
  2  3  1  0  0  0
  3  4  2  0  0  0
  4  5  1  0  0  0
  5  6  1  0  0  0
  5  7  2  0  0  0
  7  8  1  0  0  0
  8  9  2  0  0  0
  9 10  1  0  0  0
 10 11  1  0  0  0
 11 21  1  0  0  0
 21 22  2  0  0  0
 22 23  1  0  0  0
 23 24  2  0  0  0
 24 27  1  0  0  0
 27 28  1  0  0  0
 28 29  1  0  0  0
 29 30  1  0  0  0
 30 31  1  0  0  0
 31 32  1  0  0  0
 32 33  1  0  0  0
 33 34  1  0  0  0
 24 25  1  0  0  0
 25 26  2  0  0  0
 19 14  1  0  0  0
 11  1  1  0  0  0
 26 21  1  0  0  0
  9  3  1  0  0  0
 34 30  1  0  0  0
 13 20  1  0  0  0
  6 12  1  0  0  0
M  END
> <minimizedAffinity>
20.00672

> <CNNscore>
0.3959924877

> <CNNaffinity>
7.3318748474

> <CNN_VS>
2.9033672810

> <CNNaffinity_variance>
0.9837059975

$$$$
[H]Oc1c([H])c([H])c([C@@]2([H])Sc3c([H])c(O[H])c([H])c([H])c3O[C@]2([H])c2c([H])c([H])c(OC([H])([H])C([H])([H])N3C([H])([H])C([H])([H])C([H])([H])C3([H])[H])c([H])c2[H])c([H])c1[H]


 34 38  0  0  0  0  0  0  0  0999 V2000
    9.1088   45.7792  131.3745 C   0  0  0  0  0  0  0  0  0  0  0  0
   10.0477   46.7770  130.1765 S   0  0  0  0  0  0  0  0  0  0  0  0
   10.0018   45.8617  128.6416 C   0  0  0  0  0  0  0  0  0  0  0  0
   10.4743   46.3633  127.4704 C   0  0  0  0  0  0  0  0  0  0  0  0
   10.4173   45.6168  126.3008 C   0  0  0  0  0  0  0  0  0  0  0  0
   10.9025   46.1353  125.1024 O   0  0  0  0  0  0  0  0  0  0  0  0
    9.8793   44.3362  126.2792 C   0  0  0  0  0  0  0  0  0  0  0  0
    9.4012   43.8327  127.4718 C   0  0  0  0  0  0  0  0  0  0  0  0
    9.4662   44.5915  128.6286 C   0  0  0  0  0  0  0  0  0  0  0  0
    8.9695   44.0273  129.7911 O   0  0  0  0  0  0  0  0  0  0  0  0
    9.4616   44.3361  131.0705 C   0  0  0  0  0  0  0  0  0  0  0  0
   11.3055   47.0713  125.0722 H   0  0  0  0  0  0  0  0  0  0  0  0
    9.8947   47.2122  136.8188 O   0  0  0  0  0  0  0  0  0  0  0  0
    9.7157   46.8611  135.4692 C   0  0  0  0  0  0  0  0  0  0  0  0
   10.7700   46.8657  134.5831 C   0  0  0  0  0  0  0  0  0  0  0  0
   10.5790   46.5162  133.2520 C   0  0  0  0  0  0  0  0  0  0  0  0
    9.3457   46.1545  132.7642 C   0  0  0  0  0  0  0  0  0  0  0  0
    8.3021   46.1548  133.6620 C   0  0  0  0  0  0  0  0  0  0  0  0
    8.4751   46.5004  134.9923 C   0  0  0  0  0  0  0  0  0  0  0  0
   10.7737   47.4762  137.1958 H   0  0  0  0  0  0  0  0  0  0  0  0
    8.8767   43.3990  132.0521 C   0  0  0  0  0  0  0  0  0  0  0  0
    9.5185   43.0357  133.2169 C   0  0  0  0  0  0  0  0  0  0  0  0
    8.9353   42.1570  134.1055 C   0  0  0  0  0  0  0  0  0  0  0  0
    7.6907   41.6004  133.8782 C   0  0  0  0  0  0  0  0  0  0  0  0
    7.0459   41.9611  132.7148 C   0  0  0  0  0  0  0  0  0  0  0  0
    7.6341   42.8474  131.8185 C   0  0  0  0  0  0  0  0  0  0  0  0
    7.1161   40.7125  134.7893 O   0  0  0  0  0  0  0  0  0  0  0  0
    5.7565   40.8671  135.1997 C   0  0  0  0  0  0  0  0  0  0  0  0
    5.6550   41.2495  136.6394 C   0  0  0  0  0  0  0  0  0  0  0  0
    5.3822   42.6316  136.8613 N   0  0  0  0  0  0  0  0  0  0  0  0
    4.8676   43.3359  135.7354 C   0  0  0  0  0  0  0  0  0  0  0  0
    3.5062   43.8531  136.1492 C   0  0  0  0  0  0  0  0  0  0  0  0
    3.6953   44.0877  137.6354 C   0  0  0  0  0  0  0  0  0  0  0  0
    4.6042   42.9298  138.0205 C   0  0  0  0  0  0  0  0  0  0  0  0
 13 14  1  0  0  0
 14 15  2  0  0  0
 15 16  1  0  0  0
 16 17  2  0  0  0
 17 18  1  0  0  0
 18 19  2  0  0  0
 17  1  1  0  0  0
  1  2  1  0  0  0
  2  3  1  0  0  0
  3  4  2  0  0  0
  4  5  1  0  0  0
  5  6  1  0  0  0
  5  7  2  0  0  0
  7  8  1  0  0  0
  8  9  2  0  0  0
  9 10  1  0  0  0
 10 11  1  0  0  0
 11 21  1  0  0  0
 21 22  2  0  0  0
 22 23  1  0  0  0
 23 24  2  0  0  0
 24 27  1  0  0  0
 27 28  1  0  0  0
 28 29  1  0  0  0
 29 30  1  0  0  0
 30 31  1  0  0  0
 31 32  1  0  0  0
 32 33  1  0  0  0
 33 34  1  0  0  0
 24 25  1  0  0  0
 25 26  2  0  0  0
 19 14  1  0  0  0
 11  1  1  0  0  0
 26 21  1  0  0  0
  9  3  1  0  0  0
 34 30  1  0  0  0
 13 20  1  0  0  0
  6 12  1  0  0  0
M  END
> <minimizedAffinity>
38.15765

> <CNNscore>
0.3927951455

> <CNNaffinity>
6.8658165932

> <CNN_VS>
2.6968593597

> <CNNaffinity_variance>
1.0090334415

$$$$
[H]Oc1c([H])c([H])c([C@@]2([H])Sc3c([H])c(O[H])c([H])c([H])c3O[C@]2([H])c2c([H])c([H])c(OC([H])([H])C([H])([H])N3C([H])([H])C([H])([H])C([H])([H])C3([H])[H])c([H])c2[H])c([H])c1[H]


 34 38  0  0  0  0  0  0  0  0999 V2000
    9.1008   45.7734  131.1971 C   0  0  0  0  0  0  0  0  0  0  0  0
   10.1215   44.7329  132.2870 S   0  0  0  0  0  0  0  0  0  0  0  0
    9.8663   45.3655  133.9395 C   0  0  0  0  0  0  0  0  0  0  0  0
   10.3530   44.7483  135.0480 C   0  0  0  0  0  0  0  0  0  0  0  0
   10.1295   45.2752  136.3132 C   0  0  0  0  0  0  0  0  0  0  0  0
   10.6301   44.6388  137.4467 O   0  0  0  0  0  0  0  0  0  0  0  0
    9.4048   46.4460  136.4974 C   0  0  0  0  0  0  0  0  0  0  0  0
    8.9133   47.0678  135.3678 C   0  0  0  0  0  0  0  0  0  0  0  0
    9.1459   46.5280  134.1138 C   0  0  0  0  0  0  0  0  0  0  0  0
    8.6254   47.2014  133.0219 O   0  0  0  0  0  0  0  0  0  0  0  0
    9.2181   47.1812  131.7481 C   0  0  0  0  0  0  0  0  0  0  0  0
   11.1672   43.7769  137.3580 H   0  0  0  0  0  0  0  0  0  0  0  0
   10.4073   45.2543  125.6894 O   0  0  0  0  0  0  0  0  0  0  0  0
   10.0931   45.3959  127.0524 C   0  0  0  0  0  0  0  0  0  0  0  0
   10.5405   46.4755  127.7810 C   0  0  0  0  0  0  0  0  0  0  0  0
   10.2223   46.6032  129.1275 C   0  0  0  0  0  0  0  0  0  0  0  0
    9.4566   45.6706  129.7861 C   0  0  0  0  0  0  0  0  0  0  0  0
    9.0171   44.5974  129.0443 C   0  0  0  0  0  0  0  0  0  0  0  0
    9.3250   44.4548  127.7012 C   0  0  0  0  0  0  0  0  0  0  0  0
   10.9571   45.9129  125.1909 H   0  0  0  0  0  0  0  0  0  0  0  0
    8.5459   48.1763  130.8868 C   0  0  0  0  0  0  0  0  0  0  0  0
    7.4694   47.8672  130.0829 C   0  0  0  0  0  0  0  0  0  0  0  0
    6.8722   48.8279  129.2942 C   0  0  0  0  0  0  0  0  0  0  0  0
    7.3160   50.1366  129.2681 C   0  0  0  0  0  0  0  0  0  0  0  0
    8.3920   50.4497  130.0703 C   0  0  0  0  0  0  0  0  0  0  0  0
    8.9944   49.4807  130.8660 C   0  0  0  0  0  0  0  0  0  0  0  0
    6.6988   51.0957  128.4631 O   0  0  0  0  0  0  0  0  0  0  0  0
    7.4713   52.0991  127.8017 C   0  0  0  0  0  0  0  0  0  0  0  0
    6.8099   53.4362  127.8663 C   0  0  0  0  0  0  0  0  0  0  0  0
    7.1782   54.3241  126.8128 N   0  0  0  0  0  0  0  0  0  0  0  0
    8.4259   54.0383  126.1881 C   0  0  0  0  0  0  0  0  0  0  0  0
    8.1144   53.7663  124.7317 C   0  0  0  0  0  0  0  0  0  0  0  0
    6.9127   54.6599  124.4930 C   0  0  0  0  0  0  0  0  0  0  0  0
    6.1777   54.5553  125.8212 C   0  0  0  0  0  0  0  0  0  0  0  0
 13 14  1  0  0  0
 14 15  2  0  0  0
 15 16  1  0  0  0
 16 17  2  0  0  0
 17 18  1  0  0  0
 18 19  2  0  0  0
 17  1  1  0  0  0
  1  2  1  0  0  0
  2  3  1  0  0  0
  3  4  2  0  0  0
  4  5  1  0  0  0
  5  6  1  0  0  0
  5  7  2  0  0  0
  7  8  1  0  0  0
  8  9  2  0  0  0
  9 10  1  0  0  0
 10 11  1  0  0  0
 11 21  1  0  0  0
 21 22  2  0  0  0
 22 23  1  0  0  0
 23 24  2  0  0  0
 24 27  1  0  0  0
 27 28  1  0  0  0
 28 29  1  0  0  0
 29 30  1  0  0  0
 30 31  1  0  0  0
 31 32  1  0  0  0
 32 33  1  0  0  0
 33 34  1  0  0  0
 24 25  1  0  0  0
 25 26  2  0  0  0
 19 14  1  0  0  0
 11  1  1  0  0  0
 26 21  1  0  0  0
  9  3  1  0  0  0
 34 30  1  0  0  0
 13 20  1  0  0  0
  6 12  1  0  0  0
M  END
> <minimizedAffinity>
5.79054

> <CNNscore>
0.3897828758

> <CNNaffinity>
7.0838251114

> <CNN_VS>
2.7611536980

> <CNNaffinity_variance>
1.1022508144

$$$$
[H]Oc1c([H])c([H])c([C@@]2([H])Sc3c([H])c(O[H])c([H])c([H])c3O[C@]2([H])c2c([H])c([H])c(OC([H])([H])C([H])([H])N3C([H])([H])C([H])([H])C([H])([H])C3([H])[H])c([H])c2[H])c([H])c1[H]


 34 38  0  0  0  0  0  0  0  0999 V2000
    9.7873   44.4371  131.5587 C   0  0  0  0  0  0  0  0  0  0  0  0
   10.8671   43.4583  132.6489 S   0  0  0  0  0  0  0  0  0  0  0  0
   10.6198   44.1153  134.2930 C   0  0  0  0  0  0  0  0  0  0  0  0
   11.1505   43.5399  135.4038 C   0  0  0  0  0  0  0  0  0  0  0  0
   10.9314   44.0844  136.6624 C   0  0  0  0  0  0  0  0  0  0  0  0
   11.4772   43.4908  137.7983 O   0  0  0  0  0  0  0  0  0  0  0  0
   10.1667   45.2309  136.8374 C   0  0  0  0  0  0  0  0  0  0  0  0
    9.6307   45.8103  135.7054 C   0  0  0  0  0  0  0  0  0  0  0  0
    9.8596   45.2534  134.4581 C   0  0  0  0  0  0  0  0  0  0  0  0
    9.2933   45.8841  133.3635 O   0  0  0  0  0  0  0  0  0  0  0  0
    9.8619   45.8595  132.0789 C   0  0  0  0  0  0  0  0  0  0  0  0
   12.0446   42.6478  137.7163 H   0  0  0  0  0  0  0  0  0  0  0  0
   11.2080   44.0386  126.0693 O   0  0  0  0  0  0  0  0  0  0  0  0
   10.8427   44.1300  127.4238 C   0  0  0  0  0  0  0  0  0  0  0  0
    9.6657   43.5839  127.8855 C   0  0  0  0  0  0  0  0  0  0  0  0
    9.3171   43.6811  129.2270 C   0  0  0  0  0  0  0  0  0  0  0  0
   10.1198   44.3183  130.1432 C   0  0  0  0  0  0  0  0  0  0  0  0
   11.2926   44.8589  129.6665 C   0  0  0  0  0  0  0  0  0  0  0  0
   11.6554   44.7708  128.3324 C   0  0  0  0  0  0  0  0  0  0  0  0
   10.6473   43.5841  125.3884 H   0  0  0  0  0  0  0  0  0  0  0  0
    9.1364   46.8106  131.2113 C   0  0  0  0  0  0  0  0  0  0  0  0
    9.6861   47.9973  130.7749 C   0  0  0  0  0  0  0  0  0  0  0  0
    8.9724   48.8562  129.9658 C   0  0  0  0  0  0  0  0  0  0  0  0
    7.6831   48.5762  129.5540 C   0  0  0  0  0  0  0  0  0  0  0  0
    7.1300   47.3909  129.9881 C   0  0  0  0  0  0  0  0  0  0  0  0
    7.8498   46.5245  130.8042 C   0  0  0  0  0  0  0  0  0  0  0  0
    6.9759   49.4580  128.7347 O   0  0  0  0  0  0  0  0  0  0  0  0
    6.4700   50.6890  129.2538 C   0  0  0  0  0  0  0  0  0  0  0  0
    7.3683   51.8360  128.9271 C   0  0  0  0  0  0  0  0  0  0  0  0
    6.9061   52.6561  127.8558 N   0  0  0  0  0  0  0  0  0  0  0  0
    6.9355   54.0573  128.1092 C   0  0  0  0  0  0  0  0  0  0  0  0
    7.8585   54.6537  127.0679 C   0  0  0  0  0  0  0  0  0  0  0  0
    7.6453   53.7259  125.8875 C   0  0  0  0  0  0  0  0  0  0  0  0
    7.4751   52.3798  126.5760 C   0  0  0  0  0  0  0  0  0  0  0  0
 13 14  1  0  0  0
 14 15  2  0  0  0
 15 16  1  0  0  0
 16 17  2  0  0  0
 17 18  1  0  0  0
 18 19  2  0  0  0
 17  1  1  0  0  0
  1  2  1  0  0  0
  2  3  1  0  0  0
  3  4  2  0  0  0
  4  5  1  0  0  0
  5  6  1  0  0  0
  5  7  2  0  0  0
  7  8  1  0  0  0
  8  9  2  0  0  0
  9 10  1  0  0  0
 10 11  1  0  0  0
 11 21  1  0  0  0
 21 22  2  0  0  0
 22 23  1  0  0  0
 23 24  2  0  0  0
 24 27  1  0  0  0
 27 28  1  0  0  0
 28 29  1  0  0  0
 29 30  1  0  0  0
 30 31  1  0  0  0
 31 32  1  0  0  0
 32 33  1  0  0  0
 33 34  1  0  0  0
 24 25  1  0  0  0
 25 26  2  0  0  0
 19 14  1  0  0  0
 11  1  1  0  0  0
 26 21  1  0  0  0
  9  3  1  0  0  0
 34 30  1  0  0  0
 13 20  1  0  0  0
  6 12  1  0  0  0
M  END
> <minimizedAffinity>
9.34609

> <CNNscore>
0.3880416453

> <CNNaffinity>
7.4431943893

> <CNN_VS>
2.8882694244

> <CNNaffinity_variance>
1.8650079966

$$$$
[H]Oc1c([H])c([H])c([C@@]2([H])Sc3c([H])c(O[H])c([H])c([H])c3O[C@]2([H])c2c([H])c([H])c(OC([H])([H])C([H])([H])N3C([H])([H])C([H])([H])C([H])([H])C3([H])[H])c([H])c2[H])c([H])c1[H]


 34 38  0  0  0  0  0  0  0  0999 V2000
    9.6769   43.7098  131.3199 C   0  0  0  0  0  0  0  0  0  0  0  0
    9.5553   42.0197  131.9842 S   0  0  0  0  0  0  0  0  0  0  0  0
    8.1661   42.0399  133.1093 C   0  0  0  0  0  0  0  0  0  0  0  0
    7.6729   40.9152  133.6910 C   0  0  0  0  0  0  0  0  0  0  0  0
    6.5905   40.9776  134.5588 C   0  0  0  0  0  0  0  0  0  0  0  0
    6.0880   39.8219  135.1524 O   0  0  0  0  0  0  0  0  0  0  0  0
    5.9716   42.1827  134.8662 C   0  0  0  0  0  0  0  0  0  0  0  0
    6.4773   43.3210  134.2723 C   0  0  0  0  0  0  0  0  0  0  0  0
    7.5574   43.2399  133.4093 C   0  0  0  0  0  0  0  0  0  0  0  0
    8.0159   44.4192  132.8474 O   0  0  0  0  0  0  0  0  0  0  0  0
    9.3560   44.6301  132.4816 C   0  0  0  0  0  0  0  0  0  0  0  0
    6.5115   38.9159  134.9547 H   0  0  0  0  0  0  0  0  0  0  0  0
   14.7347   44.8187  128.9747 O   0  0  0  0  0  0  0  0  0  0  0  0
   13.4767   44.5470  129.5406 C   0  0  0  0  0  0  0  0  0  0  0  0
   12.3345   44.5325  128.7713 C   0  0  0  0  0  0  0  0  0  0  0  0
   11.0976   44.2621  129.3435 C   0  0  0  0  0  0  0  0  0  0  0  0
   10.9582   44.0002  130.6858 C   0  0  0  0  0  0  0  0  0  0  0  0
   12.1088   44.0183  131.4413 C   0  0  0  0  0  0  0  0  0  0  0  0
   13.3499   44.2859  130.8868 C   0  0  0  0  0  0  0  0  0  0  0  0
   14.8624   45.0102  128.0095 H   0  0  0  0  0  0  0  0  0  0  0  0
    9.5436   46.0542  132.1347 C   0  0  0  0  0  0  0  0  0  0  0  0
    9.8074   47.0269  133.0754 C   0  0  0  0  0  0  0  0  0  0  0  0
    9.9753   48.3452  132.7070 C   0  0  0  0  0  0  0  0  0  0  0  0
    9.8891   48.7565  131.3902 C   0  0  0  0  0  0  0  0  0  0  0  0
    9.6254   47.7872  130.4468 C   0  0  0  0  0  0  0  0  0  0  0  0
    9.4561   46.4574  130.8183 C   0  0  0  0  0  0  0  0  0  0  0  0
   10.0619   50.0958  131.0361 O   0  0  0  0  0  0  0  0  0  0  0  0
    8.9822   50.8482  130.4803 C   0  0  0  0  0  0  0  0  0  0  0  0
    7.6604   50.2255  130.7874 C   0  0  0  0  0  0  0  0  0  0  0  0
    6.8950   49.8764  129.6358 N   0  0  0  0  0  0  0  0  0  0  0  0
    7.5794   49.0828  128.6712 C   0  0  0  0  0  0  0  0  0  0  0  0
    6.7983   47.7908  128.5591 C   0  0  0  0  0  0  0  0  0  0  0  0
    5.3811   48.2525  128.8380 C   0  0  0  0  0  0  0  0  0  0  0  0
    5.6047   49.3234  129.8955 C   0  0  0  0  0  0  0  0  0  0  0  0
 13 14  1  0  0  0
 14 15  2  0  0  0
 15 16  1  0  0  0
 16 17  2  0  0  0
 17 18  1  0  0  0
 18 19  2  0  0  0
 17  1  1  0  0  0
  1  2  1  0  0  0
  2  3  1  0  0  0
  3  4  2  0  0  0
  4  5  1  0  0  0
  5  6  1  0  0  0
  5  7  2  0  0  0
  7  8  1  0  0  0
  8  9  2  0  0  0
  9 10  1  0  0  0
 10 11  1  0  0  0
 11 21  1  0  0  0
 21 22  2  0  0  0
 22 23  1  0  0  0
 23 24  2  0  0  0
 24 27  1  0  0  0
 27 28  1  0  0  0
 28 29  1  0  0  0
 29 30  1  0  0  0
 30 31  1  0  0  0
 31 32  1  0  0  0
 32 33  1  0  0  0
 33 34  1  0  0  0
 24 25  1  0  0  0
 25 26  2  0  0  0
 19 14  1  0  0  0
 11  1  1  0  0  0
 26 21  1  0  0  0
  9  3  1  0  0  0
 34 30  1  0  0  0
 13 20  1  0  0  0
  6 12  1  0  0  0
M  END
> <minimizedAffinity>
14.76414

> <CNNscore>
0.3864240944

> <CNNaffinity>
7.6118750572

> <CNN_VS>
2.9414119720

> <CNNaffinity_variance>
1.0007959604

$$$$
[H]Oc1c([H])c([H])c([C@@]2([H])Sc3c([H])c(O[H])c([H])c([H])c3O[C@]2([H])c2c([H])c([H])c(OC([H])([H])C([H])([H])N3C([H])([H])C([H])([H])C([H])([H])C3([H])[H])c([H])c2[H])c([H])c1[H]


 34 38  0  0  0  0  0  0  0  0999 V2000
    8.1317   47.7780  132.5288 C   0  0  0  0  0  0  0  0  0  0  0  0
    7.9352   49.5862  132.4629 S   0  0  0  0  0  0  0  0  0  0  0  0
    7.6570   49.9812  130.7417 C   0  0  0  0  0  0  0  0  0  0  0  0
    7.3198   51.2272  130.3169 C   0  0  0  0  0  0  0  0  0  0  0  0
    7.1120   51.4887  128.9691 C   0  0  0  0  0  0  0  0  0  0  0  0
    6.7660   52.7675  128.5383 O   0  0  0  0  0  0  0  0  0  0  0  0
    7.2391   50.4957  128.0060 C   0  0  0  0  0  0  0  0  0  0  0  0
    7.5817   49.2326  128.4438 C   0  0  0  0  0  0  0  0  0  0  0  0
    7.7851   48.9900  129.7921 C   0  0  0  0  0  0  0  0  0  0  0  0
    8.1270   47.7012  130.1646 O   0  0  0  0  0  0  0  0  0  0  0  0
    8.9190   47.4065  131.2872 C   0  0  0  0  0  0  0  0  0  0  0  0
    6.6615   53.5264  129.2110 H   0  0  0  0  0  0  0  0  0  0  0  0
   10.4000   45.8015  137.3516 O   0  0  0  0  0  0  0  0  0  0  0  0
    9.8496   46.3023  136.1588 C   0  0  0  0  0  0  0  0  0  0  0  0
   10.3976   47.3930  135.5209 C   0  0  0  0  0  0  0  0  0  0  0  0
    9.8437   47.8773  134.3423 C   0  0  0  0  0  0  0  0  0  0  0  0
    8.7380   47.2985  133.7659 C   0  0  0  0  0  0  0  0  0  0  0  0
    8.2018   46.2095  134.4153 C   0  0  0  0  0  0  0  0  0  0  0  0
    8.7416   45.7137  135.5910 C   0  0  0  0  0  0  0  0  0  0  0  0
   11.1972   46.2004  137.7874 H   0  0  0  0  0  0  0  0  0  0  0  0
    9.2789   45.9735  131.2617 C   0  0  0  0  0  0  0  0  0  0  0  0
    8.3492   44.9695  131.0929 C   0  0  0  0  0  0  0  0  0  0  0  0
    8.7295   43.6441  131.0756 C   0  0  0  0  0  0  0  0  0  0  0  0
   10.0478   43.2563  131.2247 C   0  0  0  0  0  0  0  0  0  0  0  0
   10.9802   44.2569  131.3937 C   0  0  0  0  0  0  0  0  0  0  0  0
   10.5966   45.5939  131.4111 C   0  0  0  0  0  0  0  0  0  0  0  0
   10.4141   41.9093  131.2046 O   0  0  0  0  0  0  0  0  0  0  0  0
   10.3551   41.1557  129.9924 C   0  0  0  0  0  0  0  0  0  0  0  0
    9.4005   41.7575  129.0146 C   0  0  0  0  0  0  0  0  0  0  0  0
   10.0056   42.6391  128.0710 N   0  0  0  0  0  0  0  0  0  0  0  0
    9.1322   43.6097  127.5021 C   0  0  0  0  0  0  0  0  0  0  0  0
    9.7010   44.9606  127.8807 C   0  0  0  0  0  0  0  0  0  0  0  0
   11.1895   44.6747  127.9296 C   0  0  0  0  0  0  0  0  0  0  0  0
   11.2171   43.2629  128.4965 C   0  0  0  0  0  0  0  0  0  0  0  0
 13 14  1  0  0  0
 14 15  2  0  0  0
 15 16  1  0  0  0
 16 17  2  0  0  0
 17 18  1  0  0  0
 18 19  2  0  0  0
 17  1  1  0  0  0
  1  2  1  0  0  0
  2  3  1  0  0  0
  3  4  2  0  0  0
  4  5  1  0  0  0
  5  6  1  0  0  0
  5  7  2  0  0  0
  7  8  1  0  0  0
  8  9  2  0  0  0
  9 10  1  0  0  0
 10 11  1  0  0  0
 11 21  1  0  0  0
 21 22  2  0  0  0
 22 23  1  0  0  0
 23 24  2  0  0  0
 24 27  1  0  0  0
 27 28  1  0  0  0
 28 29  1  0  0  0
 29 30  1  0  0  0
 30 31  1  0  0  0
 31 32  1  0  0  0
 32 33  1  0  0  0
 33 34  1  0  0  0
 24 25  1  0  0  0
 25 26  2  0  0  0
 19 14  1  0  0  0
 11  1  1  0  0  0
 26 21  1  0  0  0
  9  3  1  0  0  0
 34 30  1  0  0  0
 13 20  1  0  0  0
  6 12  1  0  0  0
M  END
> <minimizedAffinity>
8.68041

> <CNNscore>
0.3825175166

> <CNNaffinity>
7.3680152893

> <CNN_VS>
2.8183948994

> <CNNaffinity_variance>
1.2711265087

$$$$
[H]Oc1c([H])c([H])c([C@@]2([H])Sc3c([H])c(O[H])c([H])c([H])c3O[C@]2([H])c2c([H])c([H])c(OC([H])([H])C([H])([H])N3C([H])([H])C([H])([H])C([H])([H])C3([H])[H])c([H])c2[H])c([H])c1[H]


 34 38  0  0  0  0  0  0  0  0999 V2000
    9.2506   46.5147  131.4936 C   0  0  0  0  0  0  0  0  0  0  0  0
    9.2324   48.2914  131.8881 S   0  0  0  0  0  0  0  0  0  0  0  0
    8.2684   49.0649  130.5964 C   0  0  0  0  0  0  0  0  0  0  0  0
    7.9091   50.3750  130.6296 C   0  0  0  0  0  0  0  0  0  0  0  0
    7.1583   50.9342  129.6039 C   0  0  0  0  0  0  0  0  0  0  0  0
    6.7919   52.2777  129.6424 O   0  0  0  0  0  0  0  0  0  0  0  0
    6.7463   50.1840  128.5098 C   0  0  0  0  0  0  0  0  0  0  0  0
    7.1144   48.8543  128.4822 C   0  0  0  0  0  0  0  0  0  0  0  0
    7.8635   48.3134  129.5139 C   0  0  0  0  0  0  0  0  0  0  0  0
    8.1996   46.9734  129.4247 O   0  0  0  0  0  0  0  0  0  0  0  0
    9.3693   46.4320  129.9841 C   0  0  0  0  0  0  0  0  0  0  0  0
    7.0723   52.8654  130.4268 H   0  0  0  0  0  0  0  0  0  0  0  0
   13.1831   43.5401  134.3216 O   0  0  0  0  0  0  0  0  0  0  0  0
   12.2221   44.2827  133.6136 C   0  0  0  0  0  0  0  0  0  0  0  0
   12.5828   45.1164  132.5784 C   0  0  0  0  0  0  0  0  0  0  0  0
   11.6225   45.8445  131.8867 C   0  0  0  0  0  0  0  0  0  0  0  0
   10.2860   45.7676  132.1993 C   0  0  0  0  0  0  0  0  0  0  0  0
    9.9414   44.9302  133.2361 C   0  0  0  0  0  0  0  0  0  0  0  0
   10.8859   44.1973  133.9360 C   0  0  0  0  0  0  0  0  0  0  0  0
   14.1531   43.5772  134.1158 H   0  0  0  0  0  0  0  0  0  0  0  0
    9.5317   45.0413  129.5117 C   0  0  0  0  0  0  0  0  0  0  0  0
   10.4402   44.6807  128.5394 C   0  0  0  0  0  0  0  0  0  0  0  0
   10.5583   43.3697  128.1280 C   0  0  0  0  0  0  0  0  0  0  0  0
    9.7812   42.3593  128.6626 C   0  0  0  0  0  0  0  0  0  0  0  0
    8.8718   42.7157  129.6348 C   0  0  0  0  0  0  0  0  0  0  0  0
    8.7526   44.0381  130.0498 C   0  0  0  0  0  0  0  0  0  0  0  0
    9.9148   41.0376  128.2335 O   0  0  0  0  0  0  0  0  0  0  0  0
   10.4527   40.7405  126.9438 C   0  0  0  0  0  0  0  0  0  0  0  0
   10.3281   39.2894  126.6152 C   0  0  0  0  0  0  0  0  0  0  0  0
   11.4023   38.7708  125.8335 N   0  0  0  0  0  0  0  0  0  0  0  0
   12.0074   39.7020  124.9418 C   0  0  0  0  0  0  0  0  0  0  0  0
   13.4584   39.8041  125.3613 C   0  0  0  0  0  0  0  0  0  0  0  0
   13.7330   38.4106  125.8926 C   0  0  0  0  0  0  0  0  0  0  0  0
   12.4093   38.0645  126.5583 C   0  0  0  0  0  0  0  0  0  0  0  0
 13 14  1  0  0  0
 14 15  2  0  0  0
 15 16  1  0  0  0
 16 17  2  0  0  0
 17 18  1  0  0  0
 18 19  2  0  0  0
 17  1  1  0  0  0
  1  2  1  0  0  0
  2  3  1  0  0  0
  3  4  2  0  0  0
  4  5  1  0  0  0
  5  6  1  0  0  0
  5  7  2  0  0  0
  7  8  1  0  0  0
  8  9  2  0  0  0
  9 10  1  0  0  0
 10 11  1  0  0  0
 11 21  1  0  0  0
 21 22  2  0  0  0
 22 23  1  0  0  0
 23 24  2  0  0  0
 24 27  1  0  0  0
 27 28  1  0  0  0
 28 29  1  0  0  0
 29 30  1  0  0  0
 30 31  1  0  0  0
 31 32  1  0  0  0
 32 33  1  0  0  0
 33 34  1  0  0  0
 24 25  1  0  0  0
 25 26  2  0  0  0
 19 14  1  0  0  0
 11  1  1  0  0  0
 26 21  1  0  0  0
  9  3  1  0  0  0
 34 30  1  0  0  0
 13 20  1  0  0  0
  6 12  1  0  0  0
M  END
> <minimizedAffinity>
7.32969

> <CNNscore>
0.3811500371

> <CNNaffinity>
7.5658707619

> <CNN_VS>
2.8837318420

> <CNNaffinity_variance>
0.7669908404

$$$$
[H]c1c2c(c3c(nnn3[H])c1[H])C([H])([H])C1(C([H])([H])C([H])([H])C([H])([H])C([H])([H])[H])C2=C(Br)C(=O)C([H])([H])C1([H])[H]


 23 26  0  0  0  0  0  0  0  0999 V2000
   10.6766   46.0310  132.4429 C   0  0  0  0  0  0  0  0  0  0  0  0
   10.0163   47.3688  132.5864 C   0  0  0  0  0  0  0  0  0  0  0  0
    9.0108   47.3914  131.4706 C   0  0  0  0  0  0  0  0  0  0  0  0
    8.7439   46.0884  131.1216 C   0  0  0  0  0  0  0  0  0  0  0  0
    7.8355   45.7993  130.0961 C   0  0  0  0  0  0  0  0  0  0  0  0
    7.2225   46.8787  129.4546 C   0  0  0  0  0  0  0  0  0  0  0  0
    7.4960   48.1839  129.8114 C   0  0  0  0  0  0  0  0  0  0  0  0
    7.0449   49.3481  129.3540 N   0  0  0  0  0  0  0  0  0  0  0  0
    7.6369   50.3179  130.0530 N   0  0  0  0  0  0  0  0  0  0  0  0
    8.4510   49.7802  130.9402 N   0  0  0  0  0  0  0  0  0  0  0  0
    8.4098   48.4447  130.8414 C   0  0  0  0  0  0  0  0  0  0  0  0
    9.5194   45.1812  131.9525 C   0  0  0  0  0  0  0  0  0  0  0  0
    9.3835   43.9112  132.2860 C   0  0  0  0  0  0  0  0  0  0  0  0
    7.9074   42.8581  131.6520 Br  0  0  0  0  0  0  0  0  0  0  0  0
   10.3490   43.2429  133.1472 C   0  0  0  0  0  0  0  0  0  0  0  0
   10.2743   42.0077  133.3648 O   0  0  0  0  0  0  0  0  0  0  0  0
   11.4231   44.0652  133.7592 C   0  0  0  0  0  0  0  0  0  0  0  0
   10.9358   45.4846  133.8433 C   0  0  0  0  0  0  0  0  0  0  0  0
    9.0301   50.3434  131.6088 H   0  0  0  0  0  0  0  0  0  0  0  0
   11.8084   45.9113  131.5356 C   0  0  0  0  0  0  0  0  0  0  0  0
   12.0210   44.8548  130.5741 C   0  0  0  0  0  0  0  0  0  0  0  0
   10.6849   43.9619  128.6852 C   0  0  0  0  0  0  0  0  0  0  0  0
   11.7212   45.0428  129.1226 C   0  0  0  0  0  0  0  0  0  0  0  0
 22 23  1  0  0  0
 23 21  1  0  0  0
 21 20  1  0  0  0
 20  1  1  0  0  0
  1  2  1  0  0  0
  2  3  1  0  0  0
  3  4  2  0  0  0
  4  5  1  0  0  0
  5  6  2  0  0  0
  6  7  1  0  0  0
  7  8  1  0  0  0
  8  9  2  0  0  0
  9 10  1  0  0  0
 10 11  1  0  0  0
  4 12  1  0  0  0
 12 13  2  0  0  0
 13 14  1  0  0  0
 13 15  1  0  0  0
 15 16  2  0  0  0
 15 17  1  0  0  0
 17 18  1  0  0  0
 12  1  1  0  0  0
 18  1  1  0  0  0
 11  3  1  0  0  0
 11  7  2  0  0  0
 10 19  1  0  0  0
M  END
> <minimizedAffinity>
-8.01056

> <CNNscore>
0.8131771684

> <CNNaffinity>
7.9351530075

> <CNN_VS>
6.4526853561

> <CNNaffinity_variance>
0.1682730019

$$$$
[H]c1c2c(c3c(nnn3[H])c1[H])C([H])([H])C1(C([H])([H])C([H])([H])C([H])([H])C([H])([H])[H])C2=C(Br)C(=O)C([H])([H])C1([H])[H]


 23 26  0  0  0  0  0  0  0  0999 V2000
    8.7814   44.5214  132.3959 C   0  0  0  0  0  0  0  0  0  0  0  0
    7.5503   44.6828  131.5565 C   0  0  0  0  0  0  0  0  0  0  0  0
    7.9178   45.7731  130.5908 C   0  0  0  0  0  0  0  0  0  0  0  0
    9.2900   45.8182  130.5133 C   0  0  0  0  0  0  0  0  0  0  0  0
    9.9246   46.7503  129.6833 C   0  0  0  0  0  0  0  0  0  0  0  0
    9.1120   47.6180  128.9491 C   0  0  0  0  0  0  0  0  0  0  0  0
    7.7351   47.5659  129.0326 C   0  0  0  0  0  0  0  0  0  0  0  0
    6.7771   48.2737  128.4417 N   0  0  0  0  0  0  0  0  0  0  0  0
    5.6029   47.8130  128.8758 N   0  0  0  0  0  0  0  0  0  0  0  0
    5.8099   46.8287  129.7286 N   0  0  0  0  0  0  0  0  0  0  0  0
    7.1260   46.6230  129.8716 C   0  0  0  0  0  0  0  0  0  0  0  0
    9.8715   44.8051  131.3796 C   0  0  0  0  0  0  0  0  0  0  0  0
   11.0407   44.1930  131.4071 C   0  0  0  0  0  0  0  0  0  0  0  0
   12.4034   44.5701  130.1066 Br  0  0  0  0  0  0  0  0  0  0  0  0
   11.3586   43.2047  132.4282 C   0  0  0  0  0  0  0  0  0  0  0  0
   12.5118   42.7134  132.5151 O   0  0  0  0  0  0  0  0  0  0  0  0
   10.2794   42.7961  133.3624 C   0  0  0  0  0  0  0  0  0  0  0  0
    8.9588   43.0342  132.6851 C   0  0  0  0  0  0  0  0  0  0  0  0
    5.0365   46.3057  130.2060 H   0  0  0  0  0  0  0  0  0  0  0  0
    8.9433   45.3802  133.5599 C   0  0  0  0  0  0  0  0  0  0  0  0
    9.7011   46.6085  133.6132 C   0  0  0  0  0  0  0  0  0  0  0  0
    9.9735   48.8889  132.6774 C   0  0  0  0  0  0  0  0  0  0  0  0
    9.0408   47.9435  133.4958 C   0  0  0  0  0  0  0  0  0  0  0  0
 22 23  1  0  0  0
 23 21  1  0  0  0
 21 20  1  0  0  0
 20  1  1  0  0  0
  1  2  1  0  0  0
  2  3  1  0  0  0
  3  4  2  0  0  0
  4  5  1  0  0  0
  5  6  2  0  0  0
  6  7  1  0  0  0
  7  8  1  0  0  0
  8  9  2  0  0  0
  9 10  1  0  0  0
 10 11  1  0  0  0
  4 12  1  0  0  0
 12 13  2  0  0  0
 13 14  1  0  0  0
 13 15  1  0  0  0
 15 16  2  0  0  0
 15 17  1  0  0  0
 17 18  1  0  0  0
 12  1  1  0  0  0
 18  1  1  0  0  0
 11  3  1  0  0  0
 11  7  2  0  0  0
 10 19  1  0  0  0
M  END
> <minimizedAffinity>
-8.49407

> <CNNscore>
0.8064332604

> <CNNaffinity>
7.7917451859

> <CNN_VS>
6.2835226059

> <CNNaffinity_variance>
0.0598580614

$$$$
[H]c1c2c(c3c(nnn3[H])c1[H])C([H])([H])C1(C([H])([H])C([H])([H])C([H])([H])C([H])([H])[H])C2=C(Br)C(=O)C([H])([H])C1([H])[H]


 23 26  0  0  0  0  0  0  0  0999 V2000
    8.4337   44.8256  130.9214 C   0  0  0  0  0  0  0  0  0  0  0  0
    7.8038   45.7864  129.9590 C   0  0  0  0  0  0  0  0  0  0  0  0
    8.3216   47.1252  130.4018 C   0  0  0  0  0  0  0  0  0  0  0  0
    9.4806   46.9119  131.1104 C   0  0  0  0  0  0  0  0  0  0  0  0
   10.1896   47.9898  131.6542 C   0  0  0  0  0  0  0  0  0  0  0  0
    9.6734   49.2715  131.4463 C   0  0  0  0  0  0  0  0  0  0  0  0
    8.5092   49.4768  130.7335 C   0  0  0  0  0  0  0  0  0  0  0  0
    7.8407   50.5809  130.4137 N   0  0  0  0  0  0  0  0  0  0  0  0
    6.7688   50.2184  129.7073 N   0  0  0  0  0  0  0  0  0  0  0  0
    6.7551   48.9060  129.5795 N   0  0  0  0  0  0  0  0  0  0  0  0
    7.8194   48.3797  130.2003 C   0  0  0  0  0  0  0  0  0  0  0  0
    9.7760   45.4890  131.1657 C   0  0  0  0  0  0  0  0  0  0  0  0
   10.8801   44.7959  131.3733 C   0  0  0  0  0  0  0  0  0  0  0  0
   12.5676   45.6615  131.6787 Br  0  0  0  0  0  0  0  0  0  0  0  0
   10.8735   43.3398  131.3869 C   0  0  0  0  0  0  0  0  0  0  0  0
   11.9038   42.6919  131.6990 O   0  0  0  0  0  0  0  0  0  0  0  0
    9.6132   42.6454  131.0211 C   0  0  0  0  0  0  0  0  0  0  0  0
    8.8081   43.5657  130.1471 C   0  0  0  0  0  0  0  0  0  0  0  0
    6.0074   48.3836  129.0622 H   0  0  0  0  0  0  0  0  0  0  0  0
    7.7606   44.5716  132.1867 C   0  0  0  0  0  0  0  0  0  0  0  0
    8.3397   44.7110  133.5024 C   0  0  0  0  0  0  0  0  0  0  0  0
    9.5514   46.3845  134.8742 C   0  0  0  0  0  0  0  0  0  0  0  0
    8.1617   45.9552  134.3102 C   0  0  0  0  0  0  0  0  0  0  0  0
 22 23  1  0  0  0
 23 21  1  0  0  0
 21 20  1  0  0  0
 20  1  1  0  0  0
  1  2  1  0  0  0
  2  3  1  0  0  0
  3  4  2  0  0  0
  4  5  1  0  0  0
  5  6  2  0  0  0
  6  7  1  0  0  0
  7  8  1  0  0  0
  8  9  2  0  0  0
  9 10  1  0  0  0
 10 11  1  0  0  0
  4 12  1  0  0  0
 12 13  2  0  0  0
 13 14  1  0  0  0
 13 15  1  0  0  0
 15 16  2  0  0  0
 15 17  1  0  0  0
 17 18  1  0  0  0
 12  1  1  0  0  0
 18  1  1  0  0  0
 11  3  1  0  0  0
 11  7  2  0  0  0
 10 19  1  0  0  0
M  END
> <minimizedAffinity>
-7.87025

> <CNNscore>
0.7796542048

> <CNNaffinity>
7.8585062027

> <CNN_VS>
6.1269173622

> <CNNaffinity_variance>
0.1493743509

$$$$
[H]c1c2c(c3c(nnn3[H])c1[H])C([H])([H])C1(C([H])([H])C([H])([H])C([H])([H])C([H])([H])[H])C2=C(Br)C(=O)C([H])([H])C1([H])[H]


 23 26  0  0  0  0  0  0  0  0999 V2000
    9.5381   48.1189  131.6198 C   0  0  0  0  0  0  0  0  0  0  0  0
   10.6986   47.2092  131.3518 C   0  0  0  0  0  0  0  0  0  0  0  0
   10.0551   45.8754  131.0998 C   0  0  0  0  0  0  0  0  0  0  0  0
    8.7533   46.1041  130.7203 C   0  0  0  0  0  0  0  0  0  0  0  0
    7.9018   45.0336  130.4213 C   0  0  0  0  0  0  0  0  0  0  0  0
    8.4280   43.7432  130.5245 C   0  0  0  0  0  0  0  0  0  0  0  0
    9.7361   43.5225  130.9060 C   0  0  0  0  0  0  0  0  0  0  0  0
   10.4426   42.4081  131.0703 N   0  0  0  0  0  0  0  0  0  0  0  0
   11.6721   42.7573  131.4523 N   0  0  0  0  0  0  0  0  0  0  0  0
   11.7470   44.0716  131.5298 N   0  0  0  0  0  0  0  0  0  0  0  0
   10.5665   44.6125  131.1998 C   0  0  0  0  0  0  0  0  0  0  0  0
    8.4843   47.5331  130.6989 C   0  0  0  0  0  0  0  0  0  0  0  0
    7.5840   48.2809  130.0882 C   0  0  0  0  0  0  0  0  0  0  0  0
    6.2613   47.5132  128.9258 Br  0  0  0  0  0  0  0  0  0  0  0  0
    7.5448   49.7252  130.2694 C   0  0  0  0  0  0  0  0  0  0  0  0
    6.6158   50.4132  129.7769 O   0  0  0  0  0  0  0  0  0  0  0  0
    8.6350   50.3590  131.0530 C   0  0  0  0  0  0  0  0  0  0  0  0
    9.8439   49.4688  130.9785 C   0  0  0  0  0  0  0  0  0  0  0  0
   12.6169   44.5851  131.8112 H   0  0  0  0  0  0  0  0  0  0  0  0
    9.0258   48.2055  132.9795 C   0  0  0  0  0  0  0  0  0  0  0  0
    9.6899   47.7323  134.1715 C   0  0  0  0  0  0  0  0  0  0  0  0
    8.1756   45.7692  134.2288 C   0  0  0  0  0  0  0  0  0  0  0  0
    9.5875   46.3091  134.6142 C   0  0  0  0  0  0  0  0  0  0  0  0
 22 23  1  0  0  0
 23 21  1  0  0  0
 21 20  1  0  0  0
 20  1  1  0  0  0
  1  2  1  0  0  0
  2  3  1  0  0  0
  3  4  2  0  0  0
  4  5  1  0  0  0
  5  6  2  0  0  0
  6  7  1  0  0  0
  7  8  1  0  0  0
  8  9  2  0  0  0
  9 10  1  0  0  0
 10 11  1  0  0  0
  4 12  1  0  0  0
 12 13  2  0  0  0
 13 14  1  0  0  0
 13 15  1  0  0  0
 15 16  2  0  0  0
 15 17  1  0  0  0
 17 18  1  0  0  0
 12  1  1  0  0  0
 18  1  1  0  0  0
 11  3  1  0  0  0
 11  7  2  0  0  0
 10 19  1  0  0  0
M  END
> <minimizedAffinity>
-8.80793

> <CNNscore>
0.5866906643

> <CNNaffinity>
7.5623550415

> <CNN_VS>
4.4367632866

> <CNNaffinity_variance>
0.1138075814

$$$$
[H]c1c2c(c3c(nnn3[H])c1[H])C([H])([H])C1(C([H])([H])C([H])([H])C([H])([H])C([H])([H])[H])C2=C(Br)C(=O)C([H])([H])C1([H])[H]


 23 26  0  0  0  0  0  0  0  0999 V2000
    8.0180   46.2531  129.9023 C   0  0  0  0  0  0  0  0  0  0  0  0
    7.8131   45.1782  130.9264 C   0  0  0  0  0  0  0  0  0  0  0  0
    9.0031   45.3176  131.8325 C   0  0  0  0  0  0  0  0  0  0  0  0
    9.4869   46.5973  131.6934 C   0  0  0  0  0  0  0  0  0  0  0  0
   10.6067   47.0166  132.4219 C   0  0  0  0  0  0  0  0  0  0  0  0
   11.1997   46.0896  133.2830 C   0  0  0  0  0  0  0  0  0  0  0  0
   10.7074   44.8069  133.4167 C   0  0  0  0  0  0  0  0  0  0  0  0
   11.0966   43.7736  134.1576 N   0  0  0  0  0  0  0  0  0  0  0  0
   10.2675   42.7585  133.9093 N   0  0  0  0  0  0  0  0  0  0  0  0
    9.3660   43.1390  133.0255 N   0  0  0  0  0  0  0  0  0  0  0  0
    9.5852   44.4135  132.6752 C   0  0  0  0  0  0  0  0  0  0  0  0
    8.6771   47.3350  130.7370 C   0  0  0  0  0  0  0  0  0  0  0  0
    8.4695   48.6205  130.5201 C   0  0  0  0  0  0  0  0  0  0  0  0
    9.3158   49.9702  131.5934 Br  0  0  0  0  0  0  0  0  0  0  0  0
    7.5925   49.0803  129.4525 C   0  0  0  0  0  0  0  0  0  0  0  0
    7.4918   50.3029  129.1806 O   0  0  0  0  0  0  0  0  0  0  0  0
    6.8222   48.0612  128.6960 C   0  0  0  0  0  0  0  0  0  0  0  0
    6.6545   46.8534  129.5748 C   0  0  0  0  0  0  0  0  0  0  0  0
    8.6039   42.5120  132.6708 H   0  0  0  0  0  0  0  0  0  0  0  0
    8.8340   45.9511  128.7354 C   0  0  0  0  0  0  0  0  0  0  0  0
   10.2761   45.8810  128.6997 C   0  0  0  0  0  0  0  0  0  0  0  0
   12.0586   44.5608  129.8089 C   0  0  0  0  0  0  0  0  0  0  0  0
   10.9975   44.5731  128.6655 C   0  0  0  0  0  0  0  0  0  0  0  0
 22 23  1  0  0  0
 23 21  1  0  0  0
 21 20  1  0  0  0
 20  1  1  0  0  0
  1  2  1  0  0  0
  2  3  1  0  0  0
  3  4  2  0  0  0
  4  5  1  0  0  0
  5  6  2  0  0  0
  6  7  1  0  0  0
  7  8  1  0  0  0
  8  9  2  0  0  0
  9 10  1  0  0  0
 10 11  1  0  0  0
  4 12  1  0  0  0
 12 13  2  0  0  0
 13 14  1  0  0  0
 13 15  1  0  0  0
 15 16  2  0  0  0
 15 17  1  0  0  0
 17 18  1  0  0  0
 12  1  1  0  0  0
 18  1  1  0  0  0
 11  3  1  0  0  0
 11  7  2  0  0  0
 10 19  1  0  0  0
M  END
> <minimizedAffinity>
-9.06265

> <CNNscore>
0.4552888572

> <CNNaffinity>
7.4597330093

> <CNN_VS>
3.3963332176

> <CNNaffinity_variance>
0.1377452314

$$$$
[H]c1c2c(c3c(nnn3[H])c1[H])C([H])([H])C1(C([H])([H])C([H])([H])C([H])([H])C([H])([H])[H])C2=C(Br)C(=O)C([H])([H])C1([H])[H]


 23 26  0  0  0  0  0  0  0  0999 V2000
    9.5945   45.1662  130.3637 C   0  0  0  0  0  0  0  0  0  0  0  0
    9.9483   46.5688  129.9715 C   0  0  0  0  0  0  0  0  0  0  0  0
    9.9447   47.3151  131.2751 C   0  0  0  0  0  0  0  0  0  0  0  0
   10.1286   46.3976  132.2828 C   0  0  0  0  0  0  0  0  0  0  0  0
   10.1658   46.8092  133.6205 C   0  0  0  0  0  0  0  0  0  0  0  0
   10.0103   48.1735  133.8797 C   0  0  0  0  0  0  0  0  0  0  0  0
    9.8263   49.0879  132.8621 C   0  0  0  0  0  0  0  0  0  0  0  0
    9.6596   50.4071  132.8662 N   0  0  0  0  0  0  0  0  0  0  0  0
    9.5244   50.8049  131.6001 N   0  0  0  0  0  0  0  0  0  0  0  0
    9.6037   49.7569  130.8037 N   0  0  0  0  0  0  0  0  0  0  0  0
    9.7929   48.6483  131.5318 C   0  0  0  0  0  0  0  0  0  0  0  0
   10.2611   45.0621  131.7225 C   0  0  0  0  0  0  0  0  0  0  0  0
   10.7939   43.9382  132.1647 C   0  0  0  0  0  0  0  0  0  0  0  0
   11.6335   43.8343  133.8893 Br  0  0  0  0  0  0  0  0  0  0  0  0
   10.7671   42.7187  131.3694 C   0  0  0  0  0  0  0  0  0  0  0  0
   11.1727   41.6284  131.8444 O   0  0  0  0  0  0  0  0  0  0  0  0
   10.2463   42.8032  129.9816 C   0  0  0  0  0  0  0  0  0  0  0  0
   10.4203   44.2168  129.5014 C   0  0  0  0  0  0  0  0  0  0  0  0
    9.5262   49.8174  129.7597 H   0  0  0  0  0  0  0  0  0  0  0  0
    8.1869   44.8098  130.4654 C   0  0  0  0  0  0  0  0  0  0  0  0
    7.0789   45.7322  130.5509 C   0  0  0  0  0  0  0  0  0  0  0  0
    5.3438   47.1303  129.4622 C   0  0  0  0  0  0  0  0  0  0  0  0
    6.8673   46.8012  129.5289 C   0  0  0  0  0  0  0  0  0  0  0  0
 22 23  1  0  0  0
 23 21  1  0  0  0
 21 20  1  0  0  0
 20  1  1  0  0  0
  1  2  1  0  0  0
  2  3  1  0  0  0
  3  4  2  0  0  0
  4  5  1  0  0  0
  5  6  2  0  0  0
  6  7  1  0  0  0
  7  8  1  0  0  0
  8  9  2  0  0  0
  9 10  1  0  0  0
 10 11  1  0  0  0
  4 12  1  0  0  0
 12 13  2  0  0  0
 13 14  1  0  0  0
 13 15  1  0  0  0
 15 16  2  0  0  0
 15 17  1  0  0  0
 17 18  1  0  0  0
 12  1  1  0  0  0
 18  1  1  0  0  0
 11  3  1  0  0  0
 11  7  2  0  0  0
 10 19  1  0  0  0
M  END
> <minimizedAffinity>
-7.24310

> <CNNscore>
0.4206891656

> <CNNaffinity>
7.3979706764

> <CNN_VS>
3.1122460365

> <CNNaffinity_variance>
0.1645517647

$$$$
[H]c1c2c(c3c(nnn3[H])c1[H])C([H])([H])C1(C([H])([H])C([H])([H])C([H])([H])C([H])([H])[H])C2=C(Br)C(=O)C([H])([H])C1([H])[H]


 23 26  0  0  0  0  0  0  0  0999 V2000
    9.8361   45.5841  129.3960 C   0  0  0  0  0  0  0  0  0  0  0  0
    9.5416   46.8672  128.6797 C   0  0  0  0  0  0  0  0  0  0  0  0
    8.9826   47.7553  129.7545 C   0  0  0  0  0  0  0  0  0  0  0  0
    9.4184   47.2712  130.9656 C   0  0  0  0  0  0  0  0  0  0  0  0
    9.0475   47.9034  132.1586 C   0  0  0  0  0  0  0  0  0  0  0  0
    8.2277   49.0310  132.0627 C   0  0  0  0  0  0  0  0  0  0  0  0
    7.7949   49.5105  130.8427 C   0  0  0  0  0  0  0  0  0  0  0  0
    7.0265   50.5436  130.5109 N   0  0  0  0  0  0  0  0  0  0  0  0
    6.9188   50.5613  129.1813 N   0  0  0  0  0  0  0  0  0  0  0  0
    7.6069   49.5565  128.6755 N   0  0  0  0  0  0  0  0  0  0  0  0
    8.1811   48.8580  129.6642 C   0  0  0  0  0  0  0  0  0  0  0  0
   10.2515   46.0968  130.7621 C   0  0  0  0  0  0  0  0  0  0  0  0
   11.1756   45.4989  131.4909 C   0  0  0  0  0  0  0  0  0  0  0  0
   11.6840   46.1703  133.2174 Br  0  0  0  0  0  0  0  0  0  0  0  0
   11.8526   44.2968  131.0249 C   0  0  0  0  0  0  0  0  0  0  0  0
   12.6453   43.6708  131.7723 O   0  0  0  0  0  0  0  0  0  0  0  0
   11.5773   43.8341  129.6413 C   0  0  0  0  0  0  0  0  0  0  0  0
   11.1355   45.0199  128.8302 C   0  0  0  0  0  0  0  0  0  0  0  0
    7.6739   49.3618  127.6473 H   0  0  0  0  0  0  0  0  0  0  0  0
    8.7675   44.6049  129.5300 C   0  0  0  0  0  0  0  0  0  0  0  0
    8.1321   44.2011  130.7624 C   0  0  0  0  0  0  0  0  0  0  0  0
    8.8196   43.1547  132.9032 C   0  0  0  0  0  0  0  0  0  0  0  0
    8.4418   42.8921  131.4126 C   0  0  0  0  0  0  0  0  0  0  0  0
 22 23  1  0  0  0
 23 21  1  0  0  0
 21 20  1  0  0  0
 20  1  1  0  0  0
  1  2  1  0  0  0
  2  3  1  0  0  0
  3  4  2  0  0  0
  4  5  1  0  0  0
  5  6  2  0  0  0
  6  7  1  0  0  0
  7  8  1  0  0  0
  8  9  2  0  0  0
  9 10  1  0  0  0
 10 11  1  0  0  0
  4 12  1  0  0  0
 12 13  2  0  0  0
 13 14  1  0  0  0
 13 15  1  0  0  0
 15 16  2  0  0  0
 15 17  1  0  0  0
 17 18  1  0  0  0
 12  1  1  0  0  0
 18  1  1  0  0  0
 11  3  1  0  0  0
 11  7  2  0  0  0
 10 19  1  0  0  0
M  END
> <minimizedAffinity>
-8.24272

> <CNNscore>
0.4043698609

> <CNNaffinity>
7.3474655151

> <CNN_VS>
2.9710936546

> <CNNaffinity_variance>
0.0667543784

$$$$
[H]c1c2c(c3c(nnn3[H])c1[H])C([H])([H])C1(C([H])([H])C([H])([H])C([H])([H])C([H])([H])[H])C2=C(Br)C(=O)C([H])([H])C1([H])[H]


 23 26  0  0  0  0  0  0  0  0999 V2000
    9.8504   47.0492  129.9125 C   0  0  0  0  0  0  0  0  0  0  0  0
   10.5780   45.7646  129.6548 C   0  0  0  0  0  0  0  0  0  0  0  0
   10.0595   44.8413  130.7203 C   0  0  0  0  0  0  0  0  0  0  0  0
    8.8430   45.3270  131.1388 C   0  0  0  0  0  0  0  0  0  0  0  0
    8.1196   44.6655  132.1385 C   0  0  0  0  0  0  0  0  0  0  0  0
    8.6819   43.5074  132.6819 C   0  0  0  0  0  0  0  0  0  0  0  0
    9.9037   43.0265  132.2558 C   0  0  0  0  0  0  0  0  0  0  0  0
   10.6222   41.9678  132.6176 N   0  0  0  0  0  0  0  0  0  0  0  0
   11.7377   41.9627  131.8860 N   0  0  0  0  0  0  0  0  0  0  0  0
   11.7294   43.0005  131.0724 N   0  0  0  0  0  0  0  0  0  0  0  0
   10.6067   43.7088  131.2536 C   0  0  0  0  0  0  0  0  0  0  0  0
    8.5095   46.5363  130.4030 C   0  0  0  0  0  0  0  0  0  0  0  0
    7.3758   47.1613  130.1449 C   0  0  0  0  0  0  0  0  0  0  0  0
    5.6910   46.4889  130.7770 Br  0  0  0  0  0  0  0  0  0  0  0  0
    7.3458   48.3953  129.3723 C   0  0  0  0  0  0  0  0  0  0  0  0
    6.2784   49.0428  129.2303 O   0  0  0  0  0  0  0  0  0  0  0  0
    8.6137   48.8641  128.7586 C   0  0  0  0  0  0  0  0  0  0  0  0
    9.5081   47.6719  128.5628 C   0  0  0  0  0  0  0  0  0  0  0  0
   12.5029   43.2108  130.3963 H   0  0  0  0  0  0  0  0  0  0  0  0
   10.4145   47.9832  130.8759 C   0  0  0  0  0  0  0  0  0  0  0  0
    9.9259   49.3123  131.1601 C   0  0  0  0  0  0  0  0  0  0  0  0
    9.0561   48.3797  133.2871 C   0  0  0  0  0  0  0  0  0  0  0  0
    9.4092   49.6861  132.5111 C   0  0  0  0  0  0  0  0  0  0  0  0
 22 23  1  0  0  0
 23 21  1  0  0  0
 21 20  1  0  0  0
 20  1  1  0  0  0
  1  2  1  0  0  0
  2  3  1  0  0  0
  3  4  2  0  0  0
  4  5  1  0  0  0
  5  6  2  0  0  0
  6  7  1  0  0  0
  7  8  1  0  0  0
  8  9  2  0  0  0
  9 10  1  0  0  0
 10 11  1  0  0  0
  4 12  1  0  0  0
 12 13  2  0  0  0
 13 14  1  0  0  0
 13 15  1  0  0  0
 15 16  2  0  0  0
 15 17  1  0  0  0
 17 18  1  0  0  0
 12  1  1  0  0  0
 18  1  1  0  0  0
 11  3  1  0  0  0
 11  7  2  0  0  0
 10 19  1  0  0  0
M  END
> <minimizedAffinity>
-2.50500

> <CNNscore>
0.3122765124

> <CNNaffinity>
6.9602684975

> <CNN_VS>
2.1735284328

> <CNNaffinity_variance>
0.2445407361

$$$$
[H]c1c2c(c3c(nnn3[H])c1[H])C([H])([H])C1(C([H])([H])C([H])([H])C([H])([H])C([H])([H])[H])C2=C(Br)C(=O)C([H])([H])C1([H])[H]


 23 26  0  0  0  0  0  0  0  0999 V2000
    9.1922   47.4122  132.0520 C   0  0  0  0  0  0  0  0  0  0  0  0
   10.4202   47.1439  132.8681 C   0  0  0  0  0  0  0  0  0  0  0  0
   10.9501   45.8572  132.3023 C   0  0  0  0  0  0  0  0  0  0  0  0
   10.4512   45.7240  131.0278 C   0  0  0  0  0  0  0  0  0  0  0  0
   10.7772   44.6061  130.2503 C   0  0  0  0  0  0  0  0  0  0  0  0
   11.6196   43.6480  130.8204 C   0  0  0  0  0  0  0  0  0  0  0  0
   12.1161   43.7896  132.1005 C   0  0  0  0  0  0  0  0  0  0  0  0
   12.9167   43.0253  132.8376 N   0  0  0  0  0  0  0  0  0  0  0  0
   13.0857   43.6286  134.0153 N   0  0  0  0  0  0  0  0  0  0  0  0
   12.4044   44.7576  134.0277 N   0  0  0  0  0  0  0  0  0  0  0  0
   11.7735   44.9185  132.8568 C   0  0  0  0  0  0  0  0  0  0  0  0
    9.6097   46.8640  130.7005 C   0  0  0  0  0  0  0  0  0  0  0  0
    9.2117   47.4052  129.5641 C   0  0  0  0  0  0  0  0  0  0  0  0
    9.7568   46.6917  127.8659 Br  0  0  0  0  0  0  0  0  0  0  0  0
    8.3348   48.5675  129.5407 C   0  0  0  0  0  0  0  0  0  0  0  0
    7.8695   49.0041  128.4582 O   0  0  0  0  0  0  0  0  0  0  0  0
    8.0078   49.2198  130.8337 C   0  0  0  0  0  0  0  0  0  0  0  0
    9.1140   48.9154  131.8047 C   0  0  0  0  0  0  0  0  0  0  0  0
   12.3815   45.4096  134.8488 H   0  0  0  0  0  0  0  0  0  0  0  0
    7.9358   46.8095  132.4729 C   0  0  0  0  0  0  0  0  0  0  0  0
    7.6207   45.4002  132.4592 C   0  0  0  0  0  0  0  0  0  0  0  0
    8.5031   43.1098  132.8141 C   0  0  0  0  0  0  0  0  0  0  0  0
    8.1522   44.4672  133.4981 C   0  0  0  0  0  0  0  0  0  0  0  0
 22 23  1  0  0  0
 23 21  1  0  0  0
 21 20  1  0  0  0
 20  1  1  0  0  0
  1  2  1  0  0  0
  2  3  1  0  0  0
  3  4  2  0  0  0
  4  5  1  0  0  0
  5  6  2  0  0  0
  6  7  1  0  0  0
  7  8  1  0  0  0
  8  9  2  0  0  0
  9 10  1  0  0  0
 10 11  1  0  0  0
  4 12  1  0  0  0
 12 13  2  0  0  0
 13 14  1  0  0  0
 13 15  1  0  0  0
 15 16  2  0  0  0
 15 17  1  0  0  0
 17 18  1  0  0  0
 12  1  1  0  0  0
 18  1  1  0  0  0
 11  3  1  0  0  0
 11  7  2  0  0  0
 10 19  1  0  0  0
M  END
> <minimizedAffinity>
-4.86486

> <CNNscore>
0.1635947376

> <CNNaffinity>
7.0037140846

> <CNN_VS>
1.1457707882

> <CNNaffinity_variance>
0.1985260546

$$$$
[H]Oc1c([H])c([H])c(C2=C(c3c([H])c([H])c(OC([H])([H])C([H])([H])N4C([H])([H])C([H])([H])C([H])([H])C([H])([H])C4([H])[H])c([H])c3[H])c3c([H])c([H])c(F)c([H])c3OC([H])([H])C2([H])[H])c([H])c1[H]


 35 39  0  0  0  0  0  0  0  0999 V2000
   10.4294   45.1381  133.3633 C   0  0  0  0  0  0  0  0  0  0  0  0
    9.9975   44.4988  132.3123 C   0  0  0  0  0  0  0  0  0  0  0  0
   10.3893   43.0908  131.9537 C   0  0  0  0  0  0  0  0  0  0  0  0
    9.3975   42.4902  131.2240 C   0  0  0  0  0  0  0  0  0  0  0  0
    9.6458   41.1747  130.8274 C   0  0  0  0  0  0  0  0  0  0  0  0
   10.8187   40.5330  131.1561 C   0  0  0  0  0  0  0  0  0  0  0  0
   11.0354   39.2412  130.7516 F   0  0  0  0  0  0  0  0  0  0  0  0
   11.7976   41.1654  131.8926 C   0  0  0  0  0  0  0  0  0  0  0  0
   11.5749   42.4855  132.3042 C   0  0  0  0  0  0  0  0  0  0  0  0
   12.6281   43.0023  133.0347 O   0  0  0  0  0  0  0  0  0  0  0  0
   12.7074   44.2225  133.7293 C   0  0  0  0  0  0  0  0  0  0  0  0
   11.4231   44.6399  134.4054 C   0  0  0  0  0  0  0  0  0  0  0  0
    8.3065   50.1686  134.7587 O   0  0  0  0  0  0  0  0  0  0  0  0
    8.8744   48.9563  134.3772 C   0  0  0  0  0  0  0  0  0  0  0  0
    9.9287   48.8645  133.5108 C   0  0  0  0  0  0  0  0  0  0  0  0
   10.4691   47.6450  133.1527 C   0  0  0  0  0  0  0  0  0  0  0  0
    9.9912   46.4714  133.6334 C   0  0  0  0  0  0  0  0  0  0  0  0
    8.9043   46.5853  134.5252 C   0  0  0  0  0  0  0  0  0  0  0  0
    8.3626   47.7975  134.8854 C   0  0  0  0  0  0  0  0  0  0  0  0
    7.5293   50.5764  134.2210 H   0  0  0  0  0  0  0  0  0  0  0  0
    9.0767   45.1192  131.4193 C   0  0  0  0  0  0  0  0  0  0  0  0
    7.7634   45.2900  131.8976 C   0  0  0  0  0  0  0  0  0  0  0  0
    6.7777   45.9103  131.1691 C   0  0  0  0  0  0  0  0  0  0  0  0
    7.0652   46.3971  129.9059 C   0  0  0  0  0  0  0  0  0  0  0  0
    8.3822   46.2262  129.4269 C   0  0  0  0  0  0  0  0  0  0  0  0
    9.3392   45.6067  130.1733 C   0  0  0  0  0  0  0  0  0  0  0  0
    6.1599   47.0150  129.1293 O   0  0  0  0  0  0  0  0  0  0  0  0
    5.9831   48.2659  128.6119 C   0  0  0  0  0  0  0  0  0  0  0  0
    5.5163   49.3261  129.5511 C   0  0  0  0  0  0  0  0  0  0  0  0
    6.5935   50.2542  129.8962 N   0  0  0  0  0  0  0  0  0  0  0  0
    7.2472   49.7938  131.1066 C   0  0  0  0  0  0  0  0  0  0  0  0
    8.6377   50.4099  131.2127 C   0  0  0  0  0  0  0  0  0  0  0  0
    9.5247   49.6773  130.2411 C   0  0  0  0  0  0  0  0  0  0  0  0
    8.6684   49.2240  129.0796 C   0  0  0  0  0  0  0  0  0  0  0  0
    7.5430   50.2279  128.8003 C   0  0  0  0  0  0  0  0  0  0  0  0
 13 14  1  0  0  0
 14 15  2  0  0  0
 15 16  1  0  0  0
 16 17  2  0  0  0
 17 18  1  0  0  0
 18 19  2  0  0  0
 17  1  1  0  0  0
  1  2  2  0  0  0
  2 21  1  0  0  0
 21 22  2  0  0  0
 22 23  1  0  0  0
 23 24  2  0  0  0
 24 27  1  0  0  0
 27 28  1  0  0  0
 28 29  1  0  0  0
 29 30  1  0  0  0
 30 31  1  0  0  0
 31 32  1  0  0  0
 32 33  1  0  0  0
 33 34  1  0  0  0
 34 35  1  0  0  0
 24 25  1  0  0  0
 25 26  2  0  0  0
  2  3  1  0  0  0
  3  4  2  0  0  0
  4  5  1  0  0  0
  5  6  2  0  0  0
  6  7  1  0  0  0
  6  8  1  0  0  0
  8  9  2  0  0  0
  9 10  1  0  0  0
 10 11  1  0  0  0
 11 12  1  0  0  0
 19 14  1  0  0  0
 12  1  1  0  0  0
 26 21  1  0  0  0
  9  3  1  0  0  0
 35 30  1  0  0  0
 13 20  1  0  0  0
M  END
> <minimizedAffinity>
5.60693

> <CNNscore>
0.4749152958

> <CNNaffinity>
8.0337238312

> <CNN_VS>
3.8153383732

> <CNNaffinity_variance>
0.4862402976

$$$$
[H]Oc1c([H])c([H])c(C2=C(c3c([H])c([H])c(OC([H])([H])C([H])([H])N4C([H])([H])C([H])([H])C([H])([H])C([H])([H])C4([H])[H])c([H])c3[H])c3c([H])c([H])c(F)c([H])c3OC([H])([H])C2([H])[H])c([H])c1[H]


 35 39  0  0  0  0  0  0  0  0999 V2000
   10.6994   43.0487  130.5849 C   0  0  0  0  0  0  0  0  0  0  0  0
    9.7954   43.7651  131.1926 C   0  0  0  0  0  0  0  0  0  0  0  0
    8.6820   43.1963  132.0300 C   0  0  0  0  0  0  0  0  0  0  0  0
    8.2919   44.0997  132.9832 C   0  0  0  0  0  0  0  0  0  0  0  0
    7.2580   43.6865  133.8258 C   0  0  0  0  0  0  0  0  0  0  0  0
    6.6759   42.4456  133.6958 C   0  0  0  0  0  0  0  0  0  0  0  0
    5.6615   42.0676  134.5369 F   0  0  0  0  0  0  0  0  0  0  0  0
    7.0921   41.5586  132.7260 C   0  0  0  0  0  0  0  0  0  0  0  0
    8.1279   41.9468  131.8669 C   0  0  0  0  0  0  0  0  0  0  0  0
    8.4515   40.9698  130.9445 O   0  0  0  0  0  0  0  0  0  0  0  0
    9.5186   40.9371  130.0292 C   0  0  0  0  0  0  0  0  0  0  0  0
   10.8063   41.5291  130.5510 C   0  0  0  0  0  0  0  0  0  0  0  0
   15.1110   45.4282  128.0088 O   0  0  0  0  0  0  0  0  0  0  0  0
   13.9856   44.8536  128.5929 C   0  0  0  0  0  0  0  0  0  0  0  0
   12.7650   44.8077  127.9776 C   0  0  0  0  0  0  0  0  0  0  0  0
   11.6677   44.2298  128.5854 C   0  0  0  0  0  0  0  0  0  0  0  0
   11.7313   43.6767  129.8210 C   0  0  0  0  0  0  0  0  0  0  0  0
   12.9974   43.7331  130.4402 C   0  0  0  0  0  0  0  0  0  0  0  0
   14.0936   44.3073  129.8391 C   0  0  0  0  0  0  0  0  0  0  0  0
   15.3234   46.4256  128.1483 H   0  0  0  0  0  0  0  0  0  0  0  0
    9.8264   45.1872  131.1083 C   0  0  0  0  0  0  0  0  0  0  0  0
    8.6851   45.8041  130.5610 C   0  0  0  0  0  0  0  0  0  0  0  0
    8.5508   47.1673  130.4556 C   0  0  0  0  0  0  0  0  0  0  0  0
    9.5699   47.9909  130.9008 C   0  0  0  0  0  0  0  0  0  0  0  0
   10.7138   47.3719  131.4500 C   0  0  0  0  0  0  0  0  0  0  0  0
   10.8182   46.0164  131.5417 C   0  0  0  0  0  0  0  0  0  0  0  0
    9.5180   49.3316  130.8338 O   0  0  0  0  0  0  0  0  0  0  0  0
    9.4706   50.3695  131.7193 C   0  0  0  0  0  0  0  0  0  0  0  0
    9.6001   50.0305  133.1658 C   0  0  0  0  0  0  0  0  0  0  0  0
    9.8237   48.5986  133.3669 N   0  0  0  0  0  0  0  0  0  0  0  0
   10.7489   48.4127  134.4685 C   0  0  0  0  0  0  0  0  0  0  0  0
   10.6172   46.9993  135.0248 C   0  0  0  0  0  0  0  0  0  0  0  0
    9.3542   46.9589  135.8437 C   0  0  0  0  0  0  0  0  0  0  0  0
    8.3746   47.9387  135.2371 C   0  0  0  0  0  0  0  0  0  0  0  0
    8.5426   48.0144  133.7146 C   0  0  0  0  0  0  0  0  0  0  0  0
 13 14  1  0  0  0
 14 15  2  0  0  0
 15 16  1  0  0  0
 16 17  2  0  0  0
 17 18  1  0  0  0
 18 19  2  0  0  0
 17  1  1  0  0  0
  1  2  2  0  0  0
  2 21  1  0  0  0
 21 22  2  0  0  0
 22 23  1  0  0  0
 23 24  2  0  0  0
 24 27  1  0  0  0
 27 28  1  0  0  0
 28 29  1  0  0  0
 29 30  1  0  0  0
 30 31  1  0  0  0
 31 32  1  0  0  0
 32 33  1  0  0  0
 33 34  1  0  0  0
 34 35  1  0  0  0
 24 25  1  0  0  0
 25 26  2  0  0  0
  2  3  1  0  0  0
  3  4  2  0  0  0
  4  5  1  0  0  0
  5  6  2  0  0  0
  6  7  1  0  0  0
  6  8  1  0  0  0
  8  9  2  0  0  0
  9 10  1  0  0  0
 10 11  1  0  0  0
 11 12  1  0  0  0
 19 14  1  0  0  0
 12  1  1  0  0  0
 26 21  1  0  0  0
  9  3  1  0  0  0
 35 30  1  0  0  0
 13 20  1  0  0  0
M  END
> <minimizedAffinity>
21.15384

> <CNNscore>
0.4622858763

> <CNNaffinity>
7.7152619362

> <CNN_VS>
3.5666565895

> <CNNaffinity_variance>
1.6982390881

$$$$
[H]Oc1c([H])c([H])c(C2=C(c3c([H])c([H])c(OC([H])([H])C([H])([H])N4C([H])([H])C([H])([H])C([H])([H])C([H])([H])C4([H])[H])c([H])c3[H])c3c([H])c([H])c(F)c([H])c3OC([H])([H])C2([H])[H])c([H])c1[H]


 35 39  0  0  0  0  0  0  0  0999 V2000
    9.8088   44.1969  132.6205 C   0  0  0  0  0  0  0  0  0  0  0  0
    9.6669   44.8057  131.4763 C   0  0  0  0  0  0  0  0  0  0  0  0
    9.5830   44.1064  130.1464 C   0  0  0  0  0  0  0  0  0  0  0  0
    8.8638   44.8588  129.2557 C   0  0  0  0  0  0  0  0  0  0  0  0
    8.7172   44.3141  127.9785 C   0  0  0  0  0  0  0  0  0  0  0  0
    9.2665   43.0956  127.6482 C   0  0  0  0  0  0  0  0  0  0  0  0
    9.1073   42.5862  126.3854 F   0  0  0  0  0  0  0  0  0  0  0  0
    9.9849   42.3622  128.5683 C   0  0  0  0  0  0  0  0  0  0  0  0
   10.1474   42.8845  129.8577 C   0  0  0  0  0  0  0  0  0  0  0  0
   10.8826   42.0539  130.6819 O   0  0  0  0  0  0  0  0  0  0  0  0
   11.1256   42.1681  132.0623 C   0  0  0  0  0  0  0  0  0  0  0  0
    9.9580   42.6994  132.8592 C   0  0  0  0  0  0  0  0  0  0  0  0
    9.5151   47.3320  137.2943 O   0  0  0  0  0  0  0  0  0  0  0  0
    9.6463   46.5381  136.1584 C   0  0  0  0  0  0  0  0  0  0  0  0
   10.7639   45.7969  135.8895 C   0  0  0  0  0  0  0  0  0  0  0  0
   10.8620   45.0191  134.7524 C   0  0  0  0  0  0  0  0  0  0  0  0
    9.8644   44.9431  133.8382 C   0  0  0  0  0  0  0  0  0  0  0  0
    8.7201   45.7137  134.1318 C   0  0  0  0  0  0  0  0  0  0  0  0
    8.6172   46.4898  135.2632 C   0  0  0  0  0  0  0  0  0  0  0  0
    9.8158   48.3163  137.2843 H   0  0  0  0  0  0  0  0  0  0  0  0
    9.5597   46.2255  131.4238 C   0  0  0  0  0  0  0  0  0  0  0  0
    8.2556   46.7543  131.4736 C   0  0  0  0  0  0  0  0  0  0  0  0
    7.9961   48.1034  131.4763 C   0  0  0  0  0  0  0  0  0  0  0  0
    9.0477   49.0017  131.4284 C   0  0  0  0  0  0  0  0  0  0  0  0
   10.3550   48.4711  131.3789 C   0  0  0  0  0  0  0  0  0  0  0  0
   10.5812   47.1274  131.3780 C   0  0  0  0  0  0  0  0  0  0  0  0
    8.8803   50.3346  131.4270 O   0  0  0  0  0  0  0  0  0  0  0  0
    8.1526   51.2439  130.7148 C   0  0  0  0  0  0  0  0  0  0  0  0
    6.7047   50.9457  130.5179 C   0  0  0  0  0  0  0  0  0  0  0  0
    6.4480   50.3614  129.2013 N   0  0  0  0  0  0  0  0  0  0  0  0
    7.5072   49.4224  128.8839 C   0  0  0  0  0  0  0  0  0  0  0  0
    7.0357   48.4518  127.8069 C   0  0  0  0  0  0  0  0  0  0  0  0
    6.1139   47.4633  128.4708 C   0  0  0  0  0  0  0  0  0  0  0  0
    5.4235   48.1681  129.6173 C   0  0  0  0  0  0  0  0  0  0  0  0
    5.1884   49.6484  129.2924 C   0  0  0  0  0  0  0  0  0  0  0  0
 13 14  1  0  0  0
 14 15  2  0  0  0
 15 16  1  0  0  0
 16 17  2  0  0  0
 17 18  1  0  0  0
 18 19  2  0  0  0
 17  1  1  0  0  0
  1  2  2  0  0  0
  2 21  1  0  0  0
 21 22  2  0  0  0
 22 23  1  0  0  0
 23 24  2  0  0  0
 24 27  1  0  0  0
 27 28  1  0  0  0
 28 29  1  0  0  0
 29 30  1  0  0  0
 30 31  1  0  0  0
 31 32  1  0  0  0
 32 33  1  0  0  0
 33 34  1  0  0  0
 34 35  1  0  0  0
 24 25  1  0  0  0
 25 26  2  0  0  0
  2  3  1  0  0  0
  3  4  2  0  0  0
  4  5  1  0  0  0
  5  6  2  0  0  0
  6  7  1  0  0  0
  6  8  1  0  0  0
  8  9  2  0  0  0
  9 10  1  0  0  0
 10 11  1  0  0  0
 11 12  1  0  0  0
 19 14  1  0  0  0
 12  1  1  0  0  0
 26 21  1  0  0  0
  9  3  1  0  0  0
 35 30  1  0  0  0
 13 20  1  0  0  0
M  END
> <minimizedAffinity>
2.63153

> <CNNscore>
0.4554256499

> <CNNaffinity>
8.0686750412

> <CNN_VS>
3.6746816635

> <CNNaffinity_variance>
0.6369921565

$$$$
[H]Oc1c([H])c([H])c(C2=C(c3c([H])c([H])c(OC([H])([H])C([H])([H])N4C([H])([H])C([H])([H])C([H])([H])C([H])([H])C4([H])[H])c([H])c3[H])c3c([H])c([H])c(F)c([H])c3OC([H])([H])C2([H])[H])c([H])c1[H]


 35 39  0  0  0  0  0  0  0  0999 V2000
   10.4195   44.6004  132.7942 C   0  0  0  0  0  0  0  0  0  0  0  0
   10.9301   45.3508  131.8582 C   0  0  0  0  0  0  0  0  0  0  0  0
   12.0295   44.9171  130.9266 C   0  0  0  0  0  0  0  0  0  0  0  0
   11.9475   45.5986  129.7410 C   0  0  0  0  0  0  0  0  0  0  0  0
   12.9202   45.2840  128.7901 C   0  0  0  0  0  0  0  0  0  0  0  0
   13.8954   44.3452  129.0413 C   0  0  0  0  0  0  0  0  0  0  0  0
   14.8385   44.0578  128.0888 F   0  0  0  0  0  0  0  0  0  0  0  0
   13.9503   43.6759  130.2453 C   0  0  0  0  0  0  0  0  0  0  0  0
   12.9865   43.9715  131.2177 C   0  0  0  0  0  0  0  0  0  0  0  0
   13.1504   43.2330  132.3743 O   0  0  0  0  0  0  0  0  0  0  0  0
   12.3064   43.1482  133.4959 C   0  0  0  0  0  0  0  0  0  0  0  0
   10.8320   43.1828  133.1710 C   0  0  0  0  0  0  0  0  0  0  0  0
    5.9152   46.2012  135.7788 O   0  0  0  0  0  0  0  0  0  0  0  0
    7.0638   45.8458  135.0773 C   0  0  0  0  0  0  0  0  0  0  0  0
    8.2939   46.3852  135.3348 C   0  0  0  0  0  0  0  0  0  0  0  0
    9.4145   46.0103  134.6196 C   0  0  0  0  0  0  0  0  0  0  0  0
    9.3651   45.0915  133.6246 C   0  0  0  0  0  0  0  0  0  0  0  0
    8.0889   44.5460  133.3730 C   0  0  0  0  0  0  0  0  0  0  0  0
    6.9697   44.9158  134.0827 C   0  0  0  0  0  0  0  0  0  0  0  0
    5.3235   46.9796  135.4570 H   0  0  0  0  0  0  0  0  0  0  0  0
   10.4397   46.6716  131.6457 C   0  0  0  0  0  0  0  0  0  0  0  0
    9.0878   46.7812  131.2675 C   0  0  0  0  0  0  0  0  0  0  0  0
    8.4627   47.9885  131.0701 C   0  0  0  0  0  0  0  0  0  0  0  0
    9.1736   49.1628  131.2452 C   0  0  0  0  0  0  0  0  0  0  0  0
   10.5289   49.0525  131.6250 C   0  0  0  0  0  0  0  0  0  0  0  0
   11.1216   47.8403  131.8138 C   0  0  0  0  0  0  0  0  0  0  0  0
    8.6381   50.3826  131.0722 O   0  0  0  0  0  0  0  0  0  0  0  0
    8.1388   51.1099  130.0304 C   0  0  0  0  0  0  0  0  0  0  0  0
    7.0263   50.4962  129.2495 C   0  0  0  0  0  0  0  0  0  0  0  0
    6.7399   49.1331  129.6974 N   0  0  0  0  0  0  0  0  0  0  0  0
    5.3031   48.9548  129.7869 C   0  0  0  0  0  0  0  0  0  0  0  0
    4.9605   47.4696  129.7504 C   0  0  0  0  0  0  0  0  0  0  0  0
    5.1084   47.0134  128.3230 C   0  0  0  0  0  0  0  0  0  0  0  0
    6.1866   47.8534  127.6752 C   0  0  0  0  0  0  0  0  0  0  0  0
    7.2713   48.2355  128.6899 C   0  0  0  0  0  0  0  0  0  0  0  0
 13 14  1  0  0  0
 14 15  2  0  0  0
 15 16  1  0  0  0
 16 17  2  0  0  0
 17 18  1  0  0  0
 18 19  2  0  0  0
 17  1  1  0  0  0
  1  2  2  0  0  0
  2 21  1  0  0  0
 21 22  2  0  0  0
 22 23  1  0  0  0
 23 24  2  0  0  0
 24 27  1  0  0  0
 27 28  1  0  0  0
 28 29  1  0  0  0
 29 30  1  0  0  0
 30 31  1  0  0  0
 31 32  1  0  0  0
 32 33  1  0  0  0
 33 34  1  0  0  0
 34 35  1  0  0  0
 24 25  1  0  0  0
 25 26  2  0  0  0
  2  3  1  0  0  0
  3  4  2  0  0  0
  4  5  1  0  0  0
  5  6  2  0  0  0
  6  7  1  0  0  0
  6  8  1  0  0  0
  8  9  2  0  0  0
  9 10  1  0  0  0
 10 11  1  0  0  0
 11 12  1  0  0  0
 19 14  1  0  0  0
 12  1  1  0  0  0
 26 21  1  0  0  0
  9  3  1  0  0  0
 35 30  1  0  0  0
 13 20  1  0  0  0
M  END
> <minimizedAffinity>
10.97857

> <CNNscore>
0.4389270544

> <CNNaffinity>
8.0002403259

> <CNN_VS>
3.5115218163

> <CNNaffinity_variance>
1.9008209705

$$$$
[H]Oc1c([H])c([H])c(C2=C(c3c([H])c([H])c(OC([H])([H])C([H])([H])N4C([H])([H])C([H])([H])C([H])([H])C([H])([H])C4([H])[H])c([H])c3[H])c3c([H])c([H])c(F)c([H])c3OC([H])([H])C2([H])[H])c([H])c1[H]


 35 39  0  0  0  0  0  0  0  0999 V2000
    8.3878   47.5630  132.6003 C   0  0  0  0  0  0  0  0  0  0  0  0
    8.9216   46.3742  132.5590 C   0  0  0  0  0  0  0  0  0  0  0  0
    9.6361   45.7231  133.7123 C   0  0  0  0  0  0  0  0  0  0  0  0
    9.5496   44.3590  133.6190 C   0  0  0  0  0  0  0  0  0  0  0  0
   10.1794   43.6386  134.6357 C   0  0  0  0  0  0  0  0  0  0  0  0
   10.8426   44.2724  135.6624 C   0  0  0  0  0  0  0  0  0  0  0  0
   11.4531   43.5388  136.6465 F   0  0  0  0  0  0  0  0  0  0  0  0
   10.9111   45.6478  135.7280 C   0  0  0  0  0  0  0  0  0  0  0  0
   10.2876   46.3957  134.7211 C   0  0  0  0  0  0  0  0  0  0  0  0
   10.4272   47.7585  134.9038 O   0  0  0  0  0  0  0  0  0  0  0  0
    9.8249   48.8118  134.1930 C   0  0  0  0  0  0  0  0  0  0  0  0
    8.4012   48.5429  133.7670 C   0  0  0  0  0  0  0  0  0  0  0  0
    5.4809   49.1665  128.0463 O   0  0  0  0  0  0  0  0  0  0  0  0
    6.2253   48.8293  129.1732 C   0  0  0  0  0  0  0  0  0  0  0  0
    7.0944   49.6930  129.7809 C   0  0  0  0  0  0  0  0  0  0  0  0
    7.8185   49.3266  130.8985 C   0  0  0  0  0  0  0  0  0  0  0  0
    7.7142   48.0968  131.4583 C   0  0  0  0  0  0  0  0  0  0  0  0
    6.8136   47.2197  130.8187 C   0  0  0  0  0  0  0  0  0  0  0  0
    6.0898   47.5798  129.7055 C   0  0  0  0  0  0  0  0  0  0  0  0
    5.8550   49.0021  127.1016 H   0  0  0  0  0  0  0  0  0  0  0  0
    8.8363   45.5866  131.3746 C   0  0  0  0  0  0  0  0  0  0  0  0
    9.3636   46.1634  130.2033 C   0  0  0  0  0  0  0  0  0  0  0  0
    9.3926   45.5087  128.9958 C   0  0  0  0  0  0  0  0  0  0  0  0
    8.8866   44.2240  128.9027 C   0  0  0  0  0  0  0  0  0  0  0  0
    8.3585   43.6459  130.0775 C   0  0  0  0  0  0  0  0  0  0  0  0
    8.3438   44.3203  131.2614 C   0  0  0  0  0  0  0  0  0  0  0  0
    8.8766   43.5156  127.7614 O   0  0  0  0  0  0  0  0  0  0  0  0
    9.8022   42.9222  126.9522 C   0  0  0  0  0  0  0  0  0  0  0  0
   11.2354   43.0875  127.3299 C   0  0  0  0  0  0  0  0  0  0  0  0
   11.3951   44.0161  128.4493 N   0  0  0  0  0  0  0  0  0  0  0  0
   11.6125   43.2586  129.6671 C   0  0  0  0  0  0  0  0  0  0  0  0
   12.2687   44.1446  130.7201 C   0  0  0  0  0  0  0  0  0  0  0  0
   13.7183   44.2900  130.3392 C   0  0  0  0  0  0  0  0  0  0  0  0
   13.8135   44.2129  128.8316 C   0  0  0  0  0  0  0  0  0  0  0  0
   12.5700   44.8191  128.1695 C   0  0  0  0  0  0  0  0  0  0  0  0
 13 14  1  0  0  0
 14 15  2  0  0  0
 15 16  1  0  0  0
 16 17  2  0  0  0
 17 18  1  0  0  0
 18 19  2  0  0  0
 17  1  1  0  0  0
  1  2  2  0  0  0
  2 21  1  0  0  0
 21 22  2  0  0  0
 22 23  1  0  0  0
 23 24  2  0  0  0
 24 27  1  0  0  0
 27 28  1  0  0  0
 28 29  1  0  0  0
 29 30  1  0  0  0
 30 31  1  0  0  0
 31 32  1  0  0  0
 32 33  1  0  0  0
 33 34  1  0  0  0
 34 35  1  0  0  0
 24 25  1  0  0  0
 25 26  2  0  0  0
  2  3  1  0  0  0
  3  4  2  0  0  0
  4  5  1  0  0  0
  5  6  2  0  0  0
  6  7  1  0  0  0
  6  8  1  0  0  0
  8  9  2  0  0  0
  9 10  1  0  0  0
 10 11  1  0  0  0
 11 12  1  0  0  0
 19 14  1  0  0  0
 12  1  1  0  0  0
 26 21  1  0  0  0
  9  3  1  0  0  0
 35 30  1  0  0  0
 13 20  1  0  0  0
M  END
> <minimizedAffinity>
7.19176

> <CNNscore>
0.4241378009

> <CNNaffinity>
7.9352273941

> <CNN_VS>
3.3656299114

> <CNNaffinity_variance>
0.5862960815

$$$$
[H]Oc1c([H])c([H])c(C2=C(c3c([H])c([H])c(OC([H])([H])C([H])([H])N4C([H])([H])C([H])([H])C([H])([H])C([H])([H])C4([H])[H])c([H])c3[H])c3c([H])c([H])c(F)c([H])c3OC([H])([H])C2([H])[H])c([H])c1[H]


 35 39  0  0  0  0  0  0  0  0999 V2000
   10.6370   43.7973  131.7247 C   0  0  0  0  0  0  0  0  0  0  0  0
    9.7021   44.6540  132.0275 C   0  0  0  0  0  0  0  0  0  0  0  0
    8.6314   44.4148  133.0576 C   0  0  0  0  0  0  0  0  0  0  0  0
    8.2032   45.6038  133.5865 C   0  0  0  0  0  0  0  0  0  0  0  0
    7.2035   45.5128  134.5569 C   0  0  0  0  0  0  0  0  0  0  0  0
    6.6890   44.2974  134.9486 C   0  0  0  0  0  0  0  0  0  0  0  0
    5.7067   44.2390  135.9031 F   0  0  0  0  0  0  0  0  0  0  0  0
    7.1421   43.1179  134.3970 C   0  0  0  0  0  0  0  0  0  0  0  0
    8.1450   43.1795  133.4213 C   0  0  0  0  0  0  0  0  0  0  0  0
    8.5111   41.9322  132.9520 O   0  0  0  0  0  0  0  0  0  0  0  0
    9.5677   41.5872  132.0906 C   0  0  0  0  0  0  0  0  0  0  0  0
   10.8268   42.3962  132.2928 C   0  0  0  0  0  0  0  0  0  0  0  0
   14.9069   45.0415  128.2636 O   0  0  0  0  0  0  0  0  0  0  0  0
   13.8123   44.7369  129.0679 C   0  0  0  0  0  0  0  0  0  0  0  0
   12.5346   44.6464  128.5884 C   0  0  0  0  0  0  0  0  0  0  0  0
   11.4700   44.3420  129.4139 C   0  0  0  0  0  0  0  0  0  0  0  0
   11.6238   44.1163  130.7414 C   0  0  0  0  0  0  0  0  0  0  0  0
   12.9478   44.2138  131.2181 C   0  0  0  0  0  0  0  0  0  0  0  0
   14.0117   44.5164  130.4000 C   0  0  0  0  0  0  0  0  0  0  0  0
   15.1973   46.0186  128.1206 H   0  0  0  0  0  0  0  0  0  0  0  0
    9.6538   45.9251  131.3853 C   0  0  0  0  0  0  0  0  0  0  0  0
   10.0911   47.0254  132.1474 C   0  0  0  0  0  0  0  0  0  0  0  0
   10.1438   48.3049  131.6501 C   0  0  0  0  0  0  0  0  0  0  0  0
    9.7547   48.5472  130.3443 C   0  0  0  0  0  0  0  0  0  0  0  0
    9.3169   47.4436  129.5804 C   0  0  0  0  0  0  0  0  0  0  0  0
    9.2759   46.1852  130.1013 C   0  0  0  0  0  0  0  0  0  0  0  0
    9.7756   49.7671  129.7822 O   0  0  0  0  0  0  0  0  0  0  0  0
    8.8622   50.7313  129.4662 C   0  0  0  0  0  0  0  0  0  0  0  0
    7.5234   50.6330  130.1158 C   0  0  0  0  0  0  0  0  0  0  0  0
    6.5144   50.1070  129.1961 N   0  0  0  0  0  0  0  0  0  0  0  0
    7.1352   49.1361  128.3150 C   0  0  0  0  0  0  0  0  0  0  0  0
    6.0709   48.2250  127.7137 C   0  0  0  0  0  0  0  0  0  0  0  0
    5.6583   47.2532  128.7874 C   0  0  0  0  0  0  0  0  0  0  0  0
    5.8076   47.9453  130.1240 C   0  0  0  0  0  0  0  0  0  0  0  0
    5.5085   49.4448  130.0043 C   0  0  0  0  0  0  0  0  0  0  0  0
 13 14  1  0  0  0
 14 15  2  0  0  0
 15 16  1  0  0  0
 16 17  2  0  0  0
 17 18  1  0  0  0
 18 19  2  0  0  0
 17  1  1  0  0  0
  1  2  2  0  0  0
  2 21  1  0  0  0
 21 22  2  0  0  0
 22 23  1  0  0  0
 23 24  2  0  0  0
 24 27  1  0  0  0
 27 28  1  0  0  0
 28 29  1  0  0  0
 29 30  1  0  0  0
 30 31  1  0  0  0
 31 32  1  0  0  0
 32 33  1  0  0  0
 33 34  1  0  0  0
 34 35  1  0  0  0
 24 25  1  0  0  0
 25 26  2  0  0  0
  2  3  1  0  0  0
  3  4  2  0  0  0
  4  5  1  0  0  0
  5  6  2  0  0  0
  6  7  1  0  0  0
  6  8  1  0  0  0
  8  9  2  0  0  0
  9 10  1  0  0  0
 10 11  1  0  0  0
 11 12  1  0  0  0
 19 14  1  0  0  0
 12  1  1  0  0  0
 26 21  1  0  0  0
  9  3  1  0  0  0
 35 30  1  0  0  0
 13 20  1  0  0  0
M  END
> <minimizedAffinity>
15.06222

> <CNNscore>
0.4230963588

> <CNNaffinity>
7.8033471107

> <CNN_VS>
3.3015677929

> <CNNaffinity_variance>
1.2851598263

$$$$
[H]Oc1c([H])c([H])c(C2=C(c3c([H])c([H])c(OC([H])([H])C([H])([H])N4C([H])([H])C([H])([H])C([H])([H])C([H])([H])C4([H])[H])c([H])c3[H])c3c([H])c([H])c(F)c([H])c3OC([H])([H])C2([H])[H])c([H])c1[H]


 35 39  0  0  0  0  0  0  0  0999 V2000
   10.7463   44.0242  131.2583 C   0  0  0  0  0  0  0  0  0  0  0  0
    9.5206   43.9202  131.6906 C   0  0  0  0  0  0  0  0  0  0  0  0
    9.0689   42.9369  132.7363 C   0  0  0  0  0  0  0  0  0  0  0  0
    7.9755   43.4200  133.4056 C   0  0  0  0  0  0  0  0  0  0  0  0
    7.4593   42.5922  134.4045 C   0  0  0  0  0  0  0  0  0  0  0  0
    8.0237   41.3691  134.6888 C   0  0  0  0  0  0  0  0  0  0  0  0
    7.4942   40.5770  135.6745 F   0  0  0  0  0  0  0  0  0  0  0  0
    9.1248   40.9116  133.9969 C   0  0  0  0  0  0  0  0  0  0  0  0
    9.6639   41.7217  132.9895 C   0  0  0  0  0  0  0  0  0  0  0  0
   10.7630   41.1511  132.3760 O   0  0  0  0  0  0  0  0  0  0  0  0
   11.6439   41.7168  131.4371 C   0  0  0  0  0  0  0  0  0  0  0  0
   11.9460   43.1785  131.6671 C   0  0  0  0  0  0  0  0  0  0  0  0
   11.8878   48.2577  127.7180 O   0  0  0  0  0  0  0  0  0  0  0  0
   11.6303   47.1710  128.5490 C   0  0  0  0  0  0  0  0  0  0  0  0
   11.9148   45.8795  128.2003 C   0  0  0  0  0  0  0  0  0  0  0  0
   11.6466   44.8233  129.0489 C   0  0  0  0  0  0  0  0  0  0  0  0
   11.0880   44.9995  130.2711 C   0  0  0  0  0  0  0  0  0  0  0  0
   10.8016   46.3375  130.6137 C   0  0  0  0  0  0  0  0  0  0  0  0
   11.0671   47.3931  129.7723 C   0  0  0  0  0  0  0  0  0  0  0  0
   11.1788   48.5852  127.0475 H   0  0  0  0  0  0  0  0  0  0  0  0
    8.5036   44.7826  131.1882 C   0  0  0  0  0  0  0  0  0  0  0  0
    8.2834   44.7428  129.7980 C   0  0  0  0  0  0  0  0  0  0  0  0
    7.3089   45.4836  129.1744 C   0  0  0  0  0  0  0  0  0  0  0  0
    6.4952   46.3131  129.9260 C   0  0  0  0  0  0  0  0  0  0  0  0
    6.7160   46.3524  131.3199 C   0  0  0  0  0  0  0  0  0  0  0  0
    7.6907   45.6054  131.9102 C   0  0  0  0  0  0  0  0  0  0  0  0
    5.5205   47.0698  129.3948 O   0  0  0  0  0  0  0  0  0  0  0  0
    5.3910   48.3533  128.9480 C   0  0  0  0  0  0  0  0  0  0  0  0
    6.4675   48.8698  128.0544 C   0  0  0  0  0  0  0  0  0  0  0  0
    7.2686   49.9010  128.7143 N   0  0  0  0  0  0  0  0  0  0  0  0
    6.6291   50.2727  129.9622 C   0  0  0  0  0  0  0  0  0  0  0  0
    7.6430   50.9346  130.8887 C   0  0  0  0  0  0  0  0  0  0  0  0
    8.5117   49.8412  131.4520 C   0  0  0  0  0  0  0  0  0  0  0  0
    8.6031   48.7404  130.4189 C   0  0  0  0  0  0  0  0  0  0  0  0
    8.5645   49.3146  128.9972 C   0  0  0  0  0  0  0  0  0  0  0  0
 13 14  1  0  0  0
 14 15  2  0  0  0
 15 16  1  0  0  0
 16 17  2  0  0  0
 17 18  1  0  0  0
 18 19  2  0  0  0
 17  1  1  0  0  0
  1  2  2  0  0  0
  2 21  1  0  0  0
 21 22  2  0  0  0
 22 23  1  0  0  0
 23 24  2  0  0  0
 24 27  1  0  0  0
 27 28  1  0  0  0
 28 29  1  0  0  0
 29 30  1  0  0  0
 30 31  1  0  0  0
 31 32  1  0  0  0
 32 33  1  0  0  0
 33 34  1  0  0  0
 34 35  1  0  0  0
 24 25  1  0  0  0
 25 26  2  0  0  0
  2  3  1  0  0  0
  3  4  2  0  0  0
  4  5  1  0  0  0
  5  6  2  0  0  0
  6  7  1  0  0  0
  6  8  1  0  0  0
  8  9  2  0  0  0
  9 10  1  0  0  0
 10 11  1  0  0  0
 11 12  1  0  0  0
 19 14  1  0  0  0
 12  1  1  0  0  0
 26 21  1  0  0  0
  9  3  1  0  0  0
 35 30  1  0  0  0
 13 20  1  0  0  0
M  END
> <minimizedAffinity>
18.18143

> <CNNscore>
0.4204580188

> <CNNaffinity>
7.6662659645

> <CNN_VS>
3.2233428955

> <CNNaffinity_variance>
1.5364637375

$$$$
[H]Oc1c([H])c([H])c(C2=C(c3c([H])c([H])c(OC([H])([H])C([H])([H])N4C([H])([H])C([H])([H])C([H])([H])C([H])([H])C4([H])[H])c([H])c3[H])c3c([H])c([H])c(F)c([H])c3OC([H])([H])C2([H])[H])c([H])c1[H]


 35 39  0  0  0  0  0  0  0  0999 V2000
   10.8528   43.9450  131.7127 C   0  0  0  0  0  0  0  0  0  0  0  0
    9.7280   44.6038  131.7423 C   0  0  0  0  0  0  0  0  0  0  0  0
    8.7374   44.5435  132.8735 C   0  0  0  0  0  0  0  0  0  0  0  0
    8.0162   45.7064  132.9393 C   0  0  0  0  0  0  0  0  0  0  0  0
    7.0577   45.7712  133.9525 C   0  0  0  0  0  0  0  0  0  0  0  0
    6.8602   44.7242  134.8244 C   0  0  0  0  0  0  0  0  0  0  0  0
    5.9106   44.8157  135.8090 F   0  0  0  0  0  0  0  0  0  0  0  0
    7.6034   43.5667  134.7320 C   0  0  0  0  0  0  0  0  0  0  0  0
    8.5724   43.4746  133.7249 C   0  0  0  0  0  0  0  0  0  0  0  0
    9.2474   42.2687  133.7417 O   0  0  0  0  0  0  0  0  0  0  0  0
   10.3691   41.8732  132.9914 C   0  0  0  0  0  0  0  0  0  0  0  0
   11.3810   42.9695  132.7573 C   0  0  0  0  0  0  0  0  0  0  0  0
   14.7652   44.5589  127.7032 O   0  0  0  0  0  0  0  0  0  0  0  0
   13.7552   44.3961  128.6473 C   0  0  0  0  0  0  0  0  0  0  0  0
   12.4553   44.1329  128.3134 C   0  0  0  0  0  0  0  0  0  0  0  0
   11.4767   43.9767  129.2755 C   0  0  0  0  0  0  0  0  0  0  0  0
   11.7415   44.0747  130.6010 C   0  0  0  0  0  0  0  0  0  0  0  0
   13.0868   44.3464  130.9266 C   0  0  0  0  0  0  0  0  0  0  0  0
   14.0653   44.5024  129.9722 C   0  0  0  0  0  0  0  0  0  0  0  0
   14.9769   45.4889  127.3163 H   0  0  0  0  0  0  0  0  0  0  0  0
    9.3706   45.4682  130.6673 C   0  0  0  0  0  0  0  0  0  0  0  0
    7.9993   45.5415  130.3561 C   0  0  0  0  0  0  0  0  0  0  0  0
    7.4987   46.3633  129.3757 C   0  0  0  0  0  0  0  0  0  0  0  0
    8.3619   47.1640  128.6485 C   0  0  0  0  0  0  0  0  0  0  0  0
    9.7367   47.0906  128.9612 C   0  0  0  0  0  0  0  0  0  0  0  0
   10.2037   46.2656  129.9399 C   0  0  0  0  0  0  0  0  0  0  0  0
    7.9544   47.9942  127.6741 O   0  0  0  0  0  0  0  0  0  0  0  0
    7.4309   49.2525  127.5953 C   0  0  0  0  0  0  0  0  0  0  0  0
    7.5698   50.1191  128.8009 C   0  0  0  0  0  0  0  0  0  0  0  0
    8.1036   49.3752  129.9421 N   0  0  0  0  0  0  0  0  0  0  0  0
    9.5246   49.6420  130.0600 C   0  0  0  0  0  0  0  0  0  0  0  0
    9.9988   49.3173  131.4721 C   0  0  0  0  0  0  0  0  0  0  0  0
    9.5324   50.4353  132.3667 C   0  0  0  0  0  0  0  0  0  0  0  0
    8.2411   50.9793  131.7972 C   0  0  0  0  0  0  0  0  0  0  0  0
    7.4246   49.8687  131.1248 C   0  0  0  0  0  0  0  0  0  0  0  0
 13 14  1  0  0  0
 14 15  2  0  0  0
 15 16  1  0  0  0
 16 17  2  0  0  0
 17 18  1  0  0  0
 18 19  2  0  0  0
 17  1  1  0  0  0
  1  2  2  0  0  0
  2 21  1  0  0  0
 21 22  2  0  0  0
 22 23  1  0  0  0
 23 24  2  0  0  0
 24 27  1  0  0  0
 27 28  1  0  0  0
 28 29  1  0  0  0
 29 30  1  0  0  0
 30 31  1  0  0  0
 31 32  1  0  0  0
 32 33  1  0  0  0
 33 34  1  0  0  0
 34 35  1  0  0  0
 24 25  1  0  0  0
 25 26  2  0  0  0
  2  3  1  0  0  0
  3  4  2  0  0  0
  4  5  1  0  0  0
  5  6  2  0  0  0
  6  7  1  0  0  0
  6  8  1  0  0  0
  8  9  2  0  0  0
  9 10  1  0  0  0
 10 11  1  0  0  0
 11 12  1  0  0  0
 19 14  1  0  0  0
 12  1  1  0  0  0
 26 21  1  0  0  0
  9  3  1  0  0  0
 35 30  1  0  0  0
 13 20  1  0  0  0
M  END
> <minimizedAffinity>
13.84847

> <CNNscore>
0.4188014269

> <CNNaffinity>
7.6706404686

> <CNN_VS>
3.2124750614

> <CNNaffinity_variance>
1.2510544062

$$$$
[H]Oc1c([H])c([H])c(C2=C(c3c([H])c([H])c(OC([H])([H])C([H])([H])N4C([H])([H])C([H])([H])C([H])([H])C([H])([H])C4([H])[H])c([H])c3[H])c3c([H])c([H])c(F)c([H])c3OC([H])([H])C2([H])[H])c([H])c1[H]


 35 39  0  0  0  0  0  0  0  0999 V2000
   10.5468   45.7205  133.2309 C   0  0  0  0  0  0  0  0  0  0  0  0
   10.0116   44.9663  132.3118 C   0  0  0  0  0  0  0  0  0  0  0  0
   10.3823   43.5278  132.0709 C   0  0  0  0  0  0  0  0  0  0  0  0
    9.3253   42.8469  131.5269 C   0  0  0  0  0  0  0  0  0  0  0  0
    9.5479   41.4958  131.2541 C   0  0  0  0  0  0  0  0  0  0  0  0
   10.7590   40.8977  131.5203 C   0  0  0  0  0  0  0  0  0  0  0  0
   10.9490   39.5691  131.2406 F   0  0  0  0  0  0  0  0  0  0  0  0
   11.8034   41.6109  132.0690 C   0  0  0  0  0  0  0  0  0  0  0  0
   11.6079   42.9684  132.3532 C   0  0  0  0  0  0  0  0  0  0  0  0
   12.7272   43.5663  132.9006 O   0  0  0  0  0  0  0  0  0  0  0  0
   12.8644   44.8568  133.4421 C   0  0  0  0  0  0  0  0  0  0  0  0
   11.6561   45.3445  134.2055 C   0  0  0  0  0  0  0  0  0  0  0  0
    9.3130   51.2085  133.5752 O   0  0  0  0  0  0  0  0  0  0  0  0
    9.5659   49.8405  133.5265 C   0  0  0  0  0  0  0  0  0  0  0  0
    8.7871   48.9133  134.1624 C   0  0  0  0  0  0  0  0  0  0  0  0
    9.0658   47.5623  134.0939 C   0  0  0  0  0  0  0  0  0  0  0  0
   10.1214   47.0747  133.3977 C   0  0  0  0  0  0  0  0  0  0  0  0
   10.9132   48.0449  132.7486 C   0  0  0  0  0  0  0  0  0  0  0  0
   10.6396   49.3917  132.8134 C   0  0  0  0  0  0  0  0  0  0  0  0
    9.7248   51.7923  134.3161 H   0  0  0  0  0  0  0  0  0  0  0  0
    8.9894   45.4805  131.4627 C   0  0  0  0  0  0  0  0  0  0  0  0
    9.3654   45.7634  130.1356 C   0  0  0  0  0  0  0  0  0  0  0  0
    8.4806   46.2221  129.1900 C   0  0  0  0  0  0  0  0  0  0  0  0
    7.1553   46.4225  129.5345 C   0  0  0  0  0  0  0  0  0  0  0  0
    6.7787   46.1382  130.8651 C   0  0  0  0  0  0  0  0  0  0  0  0
    7.6793   45.6837  131.7810 C   0  0  0  0  0  0  0  0  0  0  0  0
    6.2276   46.8684  128.6713 O   0  0  0  0  0  0  0  0  0  0  0  0
    5.7415   48.0805  128.2736 C   0  0  0  0  0  0  0  0  0  0  0  0
    5.2498   48.9957  129.3436 C   0  0  0  0  0  0  0  0  0  0  0  0
    6.2000   50.0763  129.6084 N   0  0  0  0  0  0  0  0  0  0  0  0
    6.8676   49.8226  130.8711 C   0  0  0  0  0  0  0  0  0  0  0  0
    8.1724   50.6085  130.9360 C   0  0  0  0  0  0  0  0  0  0  0  0
    9.1673   49.8928  130.0611 C   0  0  0  0  0  0  0  0  0  0  0  0
    8.4045   49.2248  128.9388 C   0  0  0  0  0  0  0  0  0  0  0  0
    7.1776   50.0530  128.5375 C   0  0  0  0  0  0  0  0  0  0  0  0
 13 14  1  0  0  0
 14 15  2  0  0  0
 15 16  1  0  0  0
 16 17  2  0  0  0
 17 18  1  0  0  0
 18 19  2  0  0  0
 17  1  1  0  0  0
  1  2  2  0  0  0
  2 21  1  0  0  0
 21 22  2  0  0  0
 22 23  1  0  0  0
 23 24  2  0  0  0
 24 27  1  0  0  0
 27 28  1  0  0  0
 28 29  1  0  0  0
 29 30  1  0  0  0
 30 31  1  0  0  0
 31 32  1  0  0  0
 32 33  1  0  0  0
 33 34  1  0  0  0
 34 35  1  0  0  0
 24 25  1  0  0  0
 25 26  2  0  0  0
  2  3  1  0  0  0
  3  4  2  0  0  0
  4  5  1  0  0  0
  5  6  2  0  0  0
  6  7  1  0  0  0
  6  8  1  0  0  0
  8  9  2  0  0  0
  9 10  1  0  0  0
 10 11  1  0  0  0
 11 12  1  0  0  0
 19 14  1  0  0  0
 12  1  1  0  0  0
 26 21  1  0  0  0
  9  3  1  0  0  0
 35 30  1  0  0  0
 13 20  1  0  0  0
M  END
> <minimizedAffinity>
3.35576

> <CNNscore>
0.4060560167

> <CNNaffinity>
7.8172936440

> <CNN_VS>
3.1742591858

> <CNNaffinity_variance>
0.5146085024

$$$$
[H]Oc1c([H])c([H])c(-c2c([H])c([H])c3c([H])c(O[H])c([H])c([H])c3c2Oc2c([H])c([H])c(OC([H])([H])C([H])([H])N3C([H])([H])C([H])([H])C([H])([H])C([H])([H])C3([H])[H])c([H])c2[H])c([H])c1[H]


 36 40  0  0  0  0  0  0  0  0999 V2000
    9.6521   44.9800  133.4713 C   0  0  0  0  0  0  0  0  0  0  0  0
    9.0895   45.0866  134.7574 C   0  0  0  0  0  0  0  0  0  0  0  0
    9.6048   45.9627  135.6824 C   0  0  0  0  0  0  0  0  0  0  0  0
   10.6893   46.7498  135.3489 C   0  0  0  0  0  0  0  0  0  0  0  0
   11.2390   47.6418  136.2718 C   0  0  0  0  0  0  0  0  0  0  0  0
   12.3183   48.4190  135.9536 C   0  0  0  0  0  0  0  0  0  0  0  0
   12.8448   49.3031  136.9024 O   0  0  0  0  0  0  0  0  0  0  0  0
   12.9014   48.3470  134.7067 C   0  0  0  0  0  0  0  0  0  0  0  0
   12.3646   47.4714  133.7946 C   0  0  0  0  0  0  0  0  0  0  0  0
   11.2764   46.6828  134.1029 C   0  0  0  0  0  0  0  0  0  0  0  0
   10.7234   45.7792  133.1851 C   0  0  0  0  0  0  0  0  0  0  0  0
   12.4953   50.2336  136.9471 H   0  0  0  0  0  0  0  0  0  0  0  0
    7.1619   40.9410  130.4521 O   0  0  0  0  0  0  0  0  0  0  0  0
    7.7977   41.9719  131.1399 C   0  0  0  0  0  0  0  0  0  0  0  0
    8.5365   42.9293  130.5036 C   0  0  0  0  0  0  0  0  0  0  0  0
    9.1580   43.9454  131.2268 C   0  0  0  0  0  0  0  0  0  0  0  0
    9.0482   44.0100  132.5677 C   0  0  0  0  0  0  0  0  0  0  0  0
    8.2834   43.0147  133.1956 C   0  0  0  0  0  0  0  0  0  0  0  0
    7.6573   42.0014  132.5231 C   0  0  0  0  0  0  0  0  0  0  0  0
    7.7359   40.0950  130.3322 H   0  0  0  0  0  0  0  0  0  0  0  0
   11.3152   45.7274  131.9534 O   0  0  0  0  0  0  0  0  0  0  0  0
   10.6603   46.2021  130.8297 C   0  0  0  0  0  0  0  0  0  0  0  0
   10.8135   45.6008  129.5950 C   0  0  0  0  0  0  0  0  0  0  0  0
   10.1625   46.0829  128.5029 C   0  0  0  0  0  0  0  0  0  0  0  0
    9.3059   47.1975  128.5369 C   0  0  0  0  0  0  0  0  0  0  0  0
    9.1662   47.7828  129.7739 C   0  0  0  0  0  0  0  0  0  0  0  0
    9.8318   47.2877  130.8850 C   0  0  0  0  0  0  0  0  0  0  0  0
    8.7031   47.5996  127.3782 O   0  0  0  0  0  0  0  0  0  0  0  0
    7.4651   48.1487  127.1523 C   0  0  0  0  0  0  0  0  0  0  0  0
    6.3943   47.8637  128.1466 C   0  0  0  0  0  0  0  0  0  0  0  0
    6.3107   48.8861  129.1785 N   0  0  0  0  0  0  0  0  0  0  0  0
    4.9942   49.5057  129.1933 C   0  0  0  0  0  0  0  0  0  0  0  0
    4.8784   50.3030  130.4558 C   0  0  0  0  0  0  0  0  0  0  0  0
    5.9690   51.3362  130.5945 C   0  0  0  0  0  0  0  0  0  0  0  0
    7.3131   50.8227  130.1609 C   0  0  0  0  0  0  0  0  0  0  0  0
    7.2619   49.9569  128.9408 C   0  0  0  0  0  0  0  0  0  0  0  0
 13 14  1  0  0  0
 14 15  2  0  0  0
 15 16  1  0  0  0
 16 17  2  0  0  0
 17 18  1  0  0  0
 18 19  2  0  0  0
 17  1  1  0  0  0
  1  2  2  0  0  0
  2  3  1  0  0  0
  3  4  2  0  0  0
  4  5  1  0  0  0
  5  6  2  0  0  0
  6  7  1  0  0  0
  6  8  1  0  0  0
  8  9  2  0  0  0
  9 10  1  0  0  0
 10 11  2  0  0  0
 11 21  1  0  0  0
 21 22  1  0  0  0
 22 23  2  0  0  0
 23 24  1  0  0  0
 24 25  2  0  0  0
 25 28  1  0  0  0
 28 29  1  0  0  0
 29 30  1  0  0  0
 30 31  1  0  0  0
 31 32  1  0  0  0
 32 33  1  0  0  0
 33 34  1  0  0  0
 34 35  1  0  0  0
 35 36  1  0  0  0
 25 26  1  0  0  0
 26 27  2  0  0  0
 19 14  1  0  0  0
 11  1  1  0  0  0
 27 22  1  0  0  0
 10  4  1  0  0  0
 36 31  1  0  0  0
 13 20  1  0  0  0
  7 12  1  0  0  0
M  END
> <minimizedAffinity>
18.09048

> <CNNscore>
0.4405617118

> <CNNaffinity>
7.4532790184

> <CNN_VS>
3.2836294174

> <CNNaffinity_variance>
1.0429426432

$$$$
[H]Oc1c([H])c([H])c(-c2c([H])c([H])c3c([H])c(O[H])c([H])c([H])c3c2Oc2c([H])c([H])c(OC([H])([H])C([H])([H])N3C([H])([H])C([H])([H])C([H])([H])C([H])([H])C3([H])[H])c([H])c2[H])c([H])c1[H]


 36 40  0  0  0  0  0  0  0  0999 V2000
    8.9328   47.3252  132.0492 C   0  0  0  0  0  0  0  0  0  0  0  0
    8.3097   47.2863  133.3111 C   0  0  0  0  0  0  0  0  0  0  0  0
    8.7719   46.4522  134.3007 C   0  0  0  0  0  0  0  0  0  0  0  0
    9.8615   45.6398  134.0568 C   0  0  0  0  0  0  0  0  0  0  0  0
   10.3468   44.7759  135.0406 C   0  0  0  0  0  0  0  0  0  0  0  0
   11.4197   43.9614  134.8054 C   0  0  0  0  0  0  0  0  0  0  0  0
   11.8809   43.1071  135.8138 O   0  0  0  0  0  0  0  0  0  0  0  0
   12.0600   43.9660  133.5848 C   0  0  0  0  0  0  0  0  0  0  0  0
   11.5871   44.8141  132.6131 C   0  0  0  0  0  0  0  0  0  0  0  0
   10.5066   45.6406  132.8379 C   0  0  0  0  0  0  0  0  0  0  0  0
   10.0083   46.5048  131.8532 C   0  0  0  0  0  0  0  0  0  0  0  0
   12.5758   43.4326  136.4471 H   0  0  0  0  0  0  0  0  0  0  0  0
    6.9211   51.2413  128.5496 O   0  0  0  0  0  0  0  0  0  0  0  0
    7.3904   50.2225  129.3755 C   0  0  0  0  0  0  0  0  0  0  0  0
    7.0490   48.9128  129.1877 C   0  0  0  0  0  0  0  0  0  0  0  0
    7.5392   47.9215  130.0357 C   0  0  0  0  0  0  0  0  0  0  0  0
    8.3587   48.2272  131.0599 C   0  0  0  0  0  0  0  0  0  0  0  0
    8.6936   49.5796  131.2295 C   0  0  0  0  0  0  0  0  0  0  0  0
    8.2349   50.5824  130.4200 C   0  0  0  0  0  0  0  0  0  0  0  0
    6.0354   51.6640  128.8603 H   0  0  0  0  0  0  0  0  0  0  0  0
   10.6612   46.4958  130.6517 O   0  0  0  0  0  0  0  0  0  0  0  0
   10.5415   45.4223  129.7857 C   0  0  0  0  0  0  0  0  0  0  0  0
    9.3555   44.7249  129.6575 C   0  0  0  0  0  0  0  0  0  0  0  0
    9.2584   43.6724  128.8021 C   0  0  0  0  0  0  0  0  0  0  0  0
   10.3222   43.2199  128.0015 C   0  0  0  0  0  0  0  0  0  0  0  0
   11.4943   43.9258  128.1429 C   0  0  0  0  0  0  0  0  0  0  0  0
   11.5887   44.9987  129.0163 C   0  0  0  0  0  0  0  0  0  0  0  0
   10.1161   42.1496  127.1770 O   0  0  0  0  0  0  0  0  0  0  0  0
   10.1722   40.8002  127.4241 C   0  0  0  0  0  0  0  0  0  0  0  0
    9.9894   39.8808  126.2674 C   0  0  0  0  0  0  0  0  0  0  0  0
   11.2260   39.2135  125.8898 N   0  0  0  0  0  0  0  0  0  0  0  0
   11.9310   38.7194  127.0629 C   0  0  0  0  0  0  0  0  0  0  0  0
   13.0052   37.7880  126.5920 C   0  0  0  0  0  0  0  0  0  0  0  0
   13.9560   38.4397  125.6186 C   0  0  0  0  0  0  0  0  0  0  0  0
   13.2548   39.3262  124.6282 C   0  0  0  0  0  0  0  0  0  0  0  0
   12.1368   40.1255  125.2216 C   0  0  0  0  0  0  0  0  0  0  0  0
 13 14  1  0  0  0
 14 15  2  0  0  0
 15 16  1  0  0  0
 16 17  2  0  0  0
 17 18  1  0  0  0
 18 19  2  0  0  0
 17  1  1  0  0  0
  1  2  2  0  0  0
  2  3  1  0  0  0
  3  4  2  0  0  0
  4  5  1  0  0  0
  5  6  2  0  0  0
  6  7  1  0  0  0
  6  8  1  0  0  0
  8  9  2  0  0  0
  9 10  1  0  0  0
 10 11  2  0  0  0
 11 21  1  0  0  0
 21 22  1  0  0  0
 22 23  2  0  0  0
 23 24  1  0  0  0
 24 25  2  0  0  0
 25 28  1  0  0  0
 28 29  1  0  0  0
 29 30  1  0  0  0
 30 31  1  0  0  0
 31 32  1  0  0  0
 32 33  1  0  0  0
 33 34  1  0  0  0
 34 35  1  0  0  0
 35 36  1  0  0  0
 25 26  1  0  0  0
 26 27  2  0  0  0
 19 14  1  0  0  0
 11  1  1  0  0  0
 27 22  1  0  0  0
 10  4  1  0  0  0
 36 31  1  0  0  0
 13 20  1  0  0  0
  7 12  1  0  0  0
M  END
> <minimizedAffinity>
7.85216

> <CNNscore>
0.4377029240

> <CNNaffinity>
7.7223396301

> <CNN_VS>
3.3800907135

> <CNNaffinity_variance>
0.5781007409

$$$$
[H]Oc1c([H])c([H])c(-c2c([H])c([H])c3c([H])c(O[H])c([H])c([H])c3c2Oc2c([H])c([H])c(OC([H])([H])C([H])([H])N3C([H])([H])C([H])([H])C([H])([H])C([H])([H])C3([H])[H])c([H])c2[H])c([H])c1[H]


 36 40  0  0  0  0  0  0  0  0999 V2000
   11.0056   46.0665  132.9429 C   0  0  0  0  0  0  0  0  0  0  0  0
   12.3619   45.7944  132.6809 C   0  0  0  0  0  0  0  0  0  0  0  0
   12.7927   44.5091  132.4551 C   0  0  0  0  0  0  0  0  0  0  0  0
   11.8855   43.4684  132.4855 C   0  0  0  0  0  0  0  0  0  0  0  0
   12.2967   42.1518  132.2689 C   0  0  0  0  0  0  0  0  0  0  0  0
   11.4073   41.1138  132.3057 C   0  0  0  0  0  0  0  0  0  0  0  0
   11.8528   39.8055  132.0839 O   0  0  0  0  0  0  0  0  0  0  0  0
   10.0704   41.3337  132.5591 C   0  0  0  0  0  0  0  0  0  0  0  0
    9.6600   42.6271  132.7728 C   0  0  0  0  0  0  0  0  0  0  0  0
   10.5467   43.6823  132.7378 C   0  0  0  0  0  0  0  0  0  0  0  0
   10.1436   45.0059  132.9621 C   0  0  0  0  0  0  0  0  0  0  0  0
   11.8620   39.4453  131.1565 H   0  0  0  0  0  0  0  0  0  0  0  0
    9.7837   51.5415  133.3442 O   0  0  0  0  0  0  0  0  0  0  0  0
   10.0689   50.1785  133.3122 C   0  0  0  0  0  0  0  0  0  0  0  0
   10.0434   49.3992  134.4344 C   0  0  0  0  0  0  0  0  0  0  0  0
   10.3350   48.0384  134.3619 C   0  0  0  0  0  0  0  0  0  0  0  0
   10.6494   47.4575  133.1882 C   0  0  0  0  0  0  0  0  0  0  0  0
   10.6676   48.2807  132.0516 C   0  0  0  0  0  0  0  0  0  0  0  0
   10.3875   49.6194  132.0795 C   0  0  0  0  0  0  0  0  0  0  0  0
   10.6043   52.1421  133.5040 H   0  0  0  0  0  0  0  0  0  0  0  0
    8.8126   45.2011  133.2075 O   0  0  0  0  0  0  0  0  0  0  0  0
    7.9982   45.8094  132.2675 C   0  0  0  0  0  0  0  0  0  0  0  0
    7.3181   45.0743  131.3154 C   0  0  0  0  0  0  0  0  0  0  0  0
    6.5239   45.6905  130.3998 C   0  0  0  0  0  0  0  0  0  0  0  0
    6.3335   47.0827  130.3467 C   0  0  0  0  0  0  0  0  0  0  0  0
    7.0185   47.7976  131.3016 C   0  0  0  0  0  0  0  0  0  0  0  0
    7.8272   47.1650  132.2335 C   0  0  0  0  0  0  0  0  0  0  0  0
    5.5140   47.5984  129.3822 O   0  0  0  0  0  0  0  0  0  0  0  0
    5.8044   48.2711  128.2210 C   0  0  0  0  0  0  0  0  0  0  0  0
    7.2403   48.4528  127.8720 C   0  0  0  0  0  0  0  0  0  0  0  0
    8.1023   47.5069  128.5644 N   0  0  0  0  0  0  0  0  0  0  0  0
    9.4461   48.0430  128.7195 C   0  0  0  0  0  0  0  0  0  0  0  0
   10.1750   47.1735  129.6972 C   0  0  0  0  0  0  0  0  0  0  0  0
   10.2108   45.7255  129.2753 C   0  0  0  0  0  0  0  0  0  0  0  0
    8.9059   45.2581  128.6945 C   0  0  0  0  0  0  0  0  0  0  0  0
    8.2409   46.2710  127.8155 C   0  0  0  0  0  0  0  0  0  0  0  0
 13 14  1  0  0  0
 14 15  2  0  0  0
 15 16  1  0  0  0
 16 17  2  0  0  0
 17 18  1  0  0  0
 18 19  2  0  0  0
 17  1  1  0  0  0
  1  2  2  0  0  0
  2  3  1  0  0  0
  3  4  2  0  0  0
  4  5  1  0  0  0
  5  6  2  0  0  0
  6  7  1  0  0  0
  6  8  1  0  0  0
  8  9  2  0  0  0
  9 10  1  0  0  0
 10 11  2  0  0  0
 11 21  1  0  0  0
 21 22  1  0  0  0
 22 23  2  0  0  0
 23 24  1  0  0  0
 24 25  2  0  0  0
 25 28  1  0  0  0
 28 29  1  0  0  0
 29 30  1  0  0  0
 30 31  1  0  0  0
 31 32  1  0  0  0
 32 33  1  0  0  0
 33 34  1  0  0  0
 34 35  1  0  0  0
 35 36  1  0  0  0
 25 26  1  0  0  0
 26 27  2  0  0  0
 19 14  1  0  0  0
 11  1  1  0  0  0
 27 22  1  0  0  0
 10  4  1  0  0  0
 36 31  1  0  0  0
 13 20  1  0  0  0
  7 12  1  0  0  0
M  END
> <minimizedAffinity>
10.11084

> <CNNscore>
0.3230012953

> <CNNaffinity>
7.3998651505

> <CNN_VS>
2.3901660442

> <CNNaffinity_variance>
0.6277865171

$$$$
[H]Oc1c([H])c([H])c(-c2c([H])c([H])c3c([H])c(O[H])c([H])c([H])c3c2Oc2c([H])c([H])c(OC([H])([H])C([H])([H])N3C([H])([H])C([H])([H])C([H])([H])C([H])([H])C3([H])[H])c([H])c2[H])c([H])c1[H]


 36 40  0  0  0  0  0  0  0  0999 V2000
    9.7260   44.1443  132.2880 C   0  0  0  0  0  0  0  0  0  0  0  0
    9.7845   42.7613  132.5452 C   0  0  0  0  0  0  0  0  0  0  0  0
    9.8925   41.8564  131.5164 C   0  0  0  0  0  0  0  0  0  0  0  0
    9.9439   42.3067  130.2121 C   0  0  0  0  0  0  0  0  0  0  0  0
   10.0442   41.4096  129.1469 C   0  0  0  0  0  0  0  0  0  0  0  0
   10.0870   41.8456  127.8515 C   0  0  0  0  0  0  0  0  0  0  0  0
   10.1878   40.9193  126.8070 O   0  0  0  0  0  0  0  0  0  0  0  0
   10.0320   43.1902  127.5533 C   0  0  0  0  0  0  0  0  0  0  0  0
    9.9335   44.0775  128.5973 C   0  0  0  0  0  0  0  0  0  0  0  0
    9.8901   43.6507  129.9076 C   0  0  0  0  0  0  0  0  0  0  0  0
    9.7814   44.5441  130.9821 C   0  0  0  0  0  0  0  0  0  0  0  0
   11.0885   40.6424  126.4875 H   0  0  0  0  0  0  0  0  0  0  0  0
    9.7175   47.3254  136.9259 O   0  0  0  0  0  0  0  0  0  0  0  0
    9.6570   46.5643  135.7609 C   0  0  0  0  0  0  0  0  0  0  0  0
    8.5451   46.5282  134.9675 C   0  0  0  0  0  0  0  0  0  0  0  0
    8.5230   45.7540  133.8089 C   0  0  0  0  0  0  0  0  0  0  0  0
    9.5930   45.0227  133.4424 C   0  0  0  0  0  0  0  0  0  0  0  0
   10.7216   45.0785  134.2748 C   0  0  0  0  0  0  0  0  0  0  0  0
   10.7843   45.8253  135.4192 C   0  0  0  0  0  0  0  0  0  0  0  0
    9.4078   46.8287  137.7726 H   0  0  0  0  0  0  0  0  0  0  0  0
    9.7325   45.8730  130.6633 O   0  0  0  0  0  0  0  0  0  0  0  0
    8.5876   46.4324  130.1218 C   0  0  0  0  0  0  0  0  0  0  0  0
    7.3403   46.1998  130.6691 C   0  0  0  0  0  0  0  0  0  0  0  0
    6.2275   46.7577  130.1218 C   0  0  0  0  0  0  0  0  0  0  0  0
    6.2516   47.5916  128.9899 C   0  0  0  0  0  0  0  0  0  0  0  0
    7.5015   47.8113  128.4591 C   0  0  0  0  0  0  0  0  0  0  0  0
    8.6336   47.2405  129.0205 C   0  0  0  0  0  0  0  0  0  0  0  0
    5.0722   48.0981  128.5206 O   0  0  0  0  0  0  0  0  0  0  0  0
    4.2825   49.1192  128.9884 C   0  0  0  0  0  0  0  0  0  0  0  0
    4.9668   50.3079  129.5676 C   0  0  0  0  0  0  0  0  0  0  0  0
    6.3356   50.0185  129.9675 N   0  0  0  0  0  0  0  0  0  0  0  0
    6.4976   50.1524  131.4073 C   0  0  0  0  0  0  0  0  0  0  0  0
    7.8154   49.5445  131.7775 C   0  0  0  0  0  0  0  0  0  0  0  0
    8.9731   50.1683  131.0381 C   0  0  0  0  0  0  0  0  0  0  0  0
    8.6599   50.4400  129.5936 C   0  0  0  0  0  0  0  0  0  0  0  0
    7.2714   50.9501  129.3641 C   0  0  0  0  0  0  0  0  0  0  0  0
 13 14  1  0  0  0
 14 15  2  0  0  0
 15 16  1  0  0  0
 16 17  2  0  0  0
 17 18  1  0  0  0
 18 19  2  0  0  0
 17  1  1  0  0  0
  1  2  2  0  0  0
  2  3  1  0  0  0
  3  4  2  0  0  0
  4  5  1  0  0  0
  5  6  2  0  0  0
  6  7  1  0  0  0
  6  8  1  0  0  0
  8  9  2  0  0  0
  9 10  1  0  0  0
 10 11  2  0  0  0
 11 21  1  0  0  0
 21 22  1  0  0  0
 22 23  2  0  0  0
 23 24  1  0  0  0
 24 25  2  0  0  0
 25 28  1  0  0  0
 28 29  1  0  0  0
 29 30  1  0  0  0
 30 31  1  0  0  0
 31 32  1  0  0  0
 32 33  1  0  0  0
 33 34  1  0  0  0
 34 35  1  0  0  0
 35 36  1  0  0  0
 25 26  1  0  0  0
 26 27  2  0  0  0
 19 14  1  0  0  0
 11  1  1  0  0  0
 27 22  1  0  0  0
 10  4  1  0  0  0
 36 31  1  0  0  0
 13 20  1  0  0  0
  7 12  1  0  0  0
M  END
> <minimizedAffinity>
7.09437

> <CNNscore>
0.3059227169

> <CNNaffinity>
7.5755105019

> <CNN_VS>
2.3175208569

> <CNNaffinity_variance>
0.6338520050

$$$$
[H]Oc1c([H])c([H])c(-c2c([H])c([H])c3c([H])c(O[H])c([H])c([H])c3c2Oc2c([H])c([H])c(OC([H])([H])C([H])([H])N3C([H])([H])C([H])([H])C([H])([H])C([H])([H])C3([H])[H])c([H])c2[H])c([H])c1[H]


 36 40  0  0  0  0  0  0  0  0999 V2000
    7.8320   46.5691  129.3770 C   0  0  0  0  0  0  0  0  0  0  0  0
    8.2259   46.0472  128.1301 C   0  0  0  0  0  0  0  0  0  0  0  0
    8.6594   44.7482  128.0142 C   0  0  0  0  0  0  0  0  0  0  0  0
    8.7109   43.9419  129.1340 C   0  0  0  0  0  0  0  0  0  0  0  0
    9.1558   42.6212  129.0471 C   0  0  0  0  0  0  0  0  0  0  0  0
    9.2185   41.8178  130.1519 C   0  0  0  0  0  0  0  0  0  0  0  0
    9.6693   40.4983  130.0299 O   0  0  0  0  0  0  0  0  0  0  0  0
    8.8435   42.2870  131.3925 C   0  0  0  0  0  0  0  0  0  0  0  0
    8.4046   43.5855  131.4840 C   0  0  0  0  0  0  0  0  0  0  0  0
    8.3362   44.4054  130.3776 C   0  0  0  0  0  0  0  0  0  0  0  0
    7.8984   45.7345  130.4575 C   0  0  0  0  0  0  0  0  0  0  0  0
    9.0124   39.7752  129.8415 H   0  0  0  0  0  0  0  0  0  0  0  0
    6.7228   52.0764  129.6397 O   0  0  0  0  0  0  0  0  0  0  0  0
    6.9306   50.7015  129.5571 C   0  0  0  0  0  0  0  0  0  0  0  0
    5.9091   49.8185  129.3472 C   0  0  0  0  0  0  0  0  0  0  0  0
    6.1572   48.4494  129.2706 C   0  0  0  0  0  0  0  0  0  0  0  0
    7.4058   47.9618  129.4020 C   0  0  0  0  0  0  0  0  0  0  0  0
    8.4360   48.8906  129.6162 C   0  0  0  0  0  0  0  0  0  0  0  0
    8.2353   50.2413  129.6973 C   0  0  0  0  0  0  0  0  0  0  0  0
    6.5336   52.4195  130.5915 H   0  0  0  0  0  0  0  0  0  0  0  0
    7.5276   46.1774  131.6970 O   0  0  0  0  0  0  0  0  0  0  0  0
    8.4755   46.5948  132.6157 C   0  0  0  0  0  0  0  0  0  0  0  0
    9.3902   47.5851  132.3122 C   0  0  0  0  0  0  0  0  0  0  0  0
   10.3142   47.9805  133.2280 C   0  0  0  0  0  0  0  0  0  0  0  0
   10.4135   47.4328  134.5193 C   0  0  0  0  0  0  0  0  0  0  0  0
    9.4953   46.4486  134.8030 C   0  0  0  0  0  0  0  0  0  0  0  0
    8.5546   46.0487  133.8661 C   0  0  0  0  0  0  0  0  0  0  0  0
   11.3826   47.9029  135.3606 O   0  0  0  0  0  0  0  0  0  0  0  0
   12.6936   47.5280  135.5206 C   0  0  0  0  0  0  0  0  0  0  0  0
   13.3506   46.8222  134.3862 C   0  0  0  0  0  0  0  0  0  0  0  0
   12.5093   45.7774  133.8225 N   0  0  0  0  0  0  0  0  0  0  0  0
   12.7314   44.5079  134.4981 C   0  0  0  0  0  0  0  0  0  0  0  0
   11.6312   43.5759  134.0930 C   0  0  0  0  0  0  0  0  0  0  0  0
   11.5455   43.3905  132.5982 C   0  0  0  0  0  0  0  0  0  0  0  0
   11.7486   44.6733  131.8420 C   0  0  0  0  0  0  0  0  0  0  0  0
   12.8137   45.5514  132.4211 C   0  0  0  0  0  0  0  0  0  0  0  0
 13 14  1  0  0  0
 14 15  2  0  0  0
 15 16  1  0  0  0
 16 17  2  0  0  0
 17 18  1  0  0  0
 18 19  2  0  0  0
 17  1  1  0  0  0
  1  2  2  0  0  0
  2  3  1  0  0  0
  3  4  2  0  0  0
  4  5  1  0  0  0
  5  6  2  0  0  0
  6  7  1  0  0  0
  6  8  1  0  0  0
  8  9  2  0  0  0
  9 10  1  0  0  0
 10 11  2  0  0  0
 11 21  1  0  0  0
 21 22  1  0  0  0
 22 23  2  0  0  0
 23 24  1  0  0  0
 24 25  2  0  0  0
 25 28  1  0  0  0
 28 29  1  0  0  0
 29 30  1  0  0  0
 30 31  1  0  0  0
 31 32  1  0  0  0
 32 33  1  0  0  0
 33 34  1  0  0  0
 34 35  1  0  0  0
 35 36  1  0  0  0
 25 26  1  0  0  0
 26 27  2  0  0  0
 19 14  1  0  0  0
 11  1  1  0  0  0
 27 22  1  0  0  0
 10  4  1  0  0  0
 36 31  1  0  0  0
 13 20  1  0  0  0
  7 12  1  0  0  0
M  END
> <minimizedAffinity>
4.32455

> <CNNscore>
0.3015573621

> <CNNaffinity>
7.7556467056

> <CNN_VS>
2.3387722969

> <CNNaffinity_variance>
0.4737032950

$$$$
[H]Oc1c([H])c([H])c(-c2c([H])c([H])c3c([H])c(O[H])c([H])c([H])c3c2Oc2c([H])c([H])c(OC([H])([H])C([H])([H])N3C([H])([H])C([H])([H])C([H])([H])C([H])([H])C3([H])[H])c([H])c2[H])c([H])c1[H]


 36 40  0  0  0  0  0  0  0  0999 V2000
   10.6377   45.8499  133.0589 C   0  0  0  0  0  0  0  0  0  0  0  0
   11.7634   45.3830  133.7640 C   0  0  0  0  0  0  0  0  0  0  0  0
   12.1993   44.0878  133.6188 C   0  0  0  0  0  0  0  0  0  0  0  0
   11.5260   43.2304  132.7712 C   0  0  0  0  0  0  0  0  0  0  0  0
   11.9412   41.9069  132.6115 C   0  0  0  0  0  0  0  0  0  0  0  0
   11.2756   41.0481  131.7812 C   0  0  0  0  0  0  0  0  0  0  0  0
   11.7184   39.7274  131.6439 O   0  0  0  0  0  0  0  0  0  0  0  0
   10.1686   41.4621  131.0720 C   0  0  0  0  0  0  0  0  0  0  0  0
    9.7557   42.7633  131.2249 C   0  0  0  0  0  0  0  0  0  0  0  0
   10.4184   43.6391  132.0585 C   0  0  0  0  0  0  0  0  0  0  0  0
   10.0034   44.9668  132.2306 C   0  0  0  0  0  0  0  0  0  0  0  0
   12.3841   39.5083  130.9375 H   0  0  0  0  0  0  0  0  0  0  0  0
    9.5776   51.3397  133.6654 O   0  0  0  0  0  0  0  0  0  0  0  0
    9.7836   49.9666  133.5542 C   0  0  0  0  0  0  0  0  0  0  0  0
    9.0290   49.0558  134.2385 C   0  0  0  0  0  0  0  0  0  0  0  0
    9.2658   47.6895  134.1008 C   0  0  0  0  0  0  0  0  0  0  0  0
   10.2418   47.2320  133.2932 C   0  0  0  0  0  0  0  0  0  0  0  0
   11.0010   48.1889  132.6020 C   0  0  0  0  0  0  0  0  0  0  0  0
   10.8009   49.5379  132.7086 C   0  0  0  0  0  0  0  0  0  0  0  0
   10.1225   51.7903  134.4135 H   0  0  0  0  0  0  0  0  0  0  0  0
    8.9058   45.3568  131.5144 O   0  0  0  0  0  0  0  0  0  0  0  0
    8.6952   46.6900  131.2060 C   0  0  0  0  0  0  0  0  0  0  0  0
    9.4816   47.3519  130.2824 C   0  0  0  0  0  0  0  0  0  0  0  0
    9.2594   48.6620  129.9940 C   0  0  0  0  0  0  0  0  0  0  0  0
    8.2435   49.4287  130.5917 C   0  0  0  0  0  0  0  0  0  0  0  0
    7.4716   48.7533  131.5083 C   0  0  0  0  0  0  0  0  0  0  0  0
    7.7015   47.4172  131.7991 C   0  0  0  0  0  0  0  0  0  0  0  0
    8.1095   50.7398  130.2299 O   0  0  0  0  0  0  0  0  0  0  0  0
    7.6923   51.3096  129.0525 C   0  0  0  0  0  0  0  0  0  0  0  0
    6.8618   50.4753  128.1410 C   0  0  0  0  0  0  0  0  0  0  0  0
    6.3592   49.2755  128.7929 N   0  0  0  0  0  0  0  0  0  0  0  0
    6.5823   48.0999  127.9650 C   0  0  0  0  0  0  0  0  0  0  0  0
    6.3370   46.8902  128.8134 C   0  0  0  0  0  0  0  0  0  0  0  0
    4.9564   46.8750  129.4213 C   0  0  0  0  0  0  0  0  0  0  0  0
    4.5245   48.2276  129.9137 C   0  0  0  0  0  0  0  0  0  0  0  0
    4.9261   49.3531  129.0121 C   0  0  0  0  0  0  0  0  0  0  0  0
 13 14  1  0  0  0
 14 15  2  0  0  0
 15 16  1  0  0  0
 16 17  2  0  0  0
 17 18  1  0  0  0
 18 19  2  0  0  0
 17  1  1  0  0  0
  1  2  2  0  0  0
  2  3  1  0  0  0
  3  4  2  0  0  0
  4  5  1  0  0  0
  5  6  2  0  0  0
  6  7  1  0  0  0
  6  8  1  0  0  0
  8  9  2  0  0  0
  9 10  1  0  0  0
 10 11  2  0  0  0
 11 21  1  0  0  0
 21 22  1  0  0  0
 22 23  2  0  0  0
 23 24  1  0  0  0
 24 25  2  0  0  0
 25 28  1  0  0  0
 28 29  1  0  0  0
 29 30  1  0  0  0
 30 31  1  0  0  0
 31 32  1  0  0  0
 32 33  1  0  0  0
 33 34  1  0  0  0
 34 35  1  0  0  0
 35 36  1  0  0  0
 25 26  1  0  0  0
 26 27  2  0  0  0
 19 14  1  0  0  0
 11  1  1  0  0  0
 27 22  1  0  0  0
 10  4  1  0  0  0
 36 31  1  0  0  0
 13 20  1  0  0  0
  7 12  1  0  0  0
M  END
> <minimizedAffinity>
8.72229

> <CNNscore>
0.2873443961

> <CNNaffinity>
7.5300521851

> <CNN_VS>
2.1637182236

> <CNNaffinity_variance>
1.0361267328

$$$$
[H]Oc1c([H])c([H])c(-c2c([H])c([H])c3c([H])c(O[H])c([H])c([H])c3c2Oc2c([H])c([H])c(OC([H])([H])C([H])([H])N3C([H])([H])C([H])([H])C([H])([H])C([H])([H])C3([H])[H])c([H])c2[H])c([H])c1[H]


 36 40  0  0  0  0  0  0  0  0999 V2000
    8.5966   48.9766  131.6885 C   0  0  0  0  0  0  0  0  0  0  0  0
    9.2874   50.2031  131.7169 C   0  0  0  0  0  0  0  0  0  0  0  0
   10.2741   50.4357  132.6449 C   0  0  0  0  0  0  0  0  0  0  0  0
   10.5939   49.4554  133.5634 C   0  0  0  0  0  0  0  0  0  0  0  0
   11.5855   49.6679  134.5232 C   0  0  0  0  0  0  0  0  0  0  0  0
   11.9032   48.7064  135.4423 C   0  0  0  0  0  0  0  0  0  0  0  0
   12.9026   48.9519  136.3910 O   0  0  0  0  0  0  0  0  0  0  0  0
   11.2524   47.4914  135.4518 C   0  0  0  0  0  0  0  0  0  0  0  0
   10.2761   47.2767  134.5096 C   0  0  0  0  0  0  0  0  0  0  0  0
    9.9470   48.2376  133.5772 C   0  0  0  0  0  0  0  0  0  0  0  0
    8.9474   48.0355  132.6156 C   0  0  0  0  0  0  0  0  0  0  0  0
   13.8449   48.7143  136.1776 H   0  0  0  0  0  0  0  0  0  0  0  0
    4.8151   47.9097  127.6646 O   0  0  0  0  0  0  0  0  0  0  0  0
    5.7205   48.2357  128.6717 C   0  0  0  0  0  0  0  0  0  0  0  0
    5.7398   49.4649  129.2682 C   0  0  0  0  0  0  0  0  0  0  0  0
    6.6615   49.7533  130.2729 C   0  0  0  0  0  0  0  0  0  0  0  0
    7.5552   48.8317  130.6804 C   0  0  0  0  0  0  0  0  0  0  0  0
    7.5129   47.5777  130.0514 C   0  0  0  0  0  0  0  0  0  0  0  0
    6.6247   47.2542  129.0626 C   0  0  0  0  0  0  0  0  0  0  0  0
    5.1489   48.1145  126.7127 H   0  0  0  0  0  0  0  0  0  0  0  0
    8.3181   46.8218  132.6409 O   0  0  0  0  0  0  0  0  0  0  0  0
    9.0412   45.6442  132.5554 C   0  0  0  0  0  0  0  0  0  0  0  0
   10.2567   45.5876  131.9007 C   0  0  0  0  0  0  0  0  0  0  0  0
   10.9513   44.4210  131.8267 C   0  0  0  0  0  0  0  0  0  0  0  0
   10.5058   43.2131  132.3922 C   0  0  0  0  0  0  0  0  0  0  0  0
    9.2942   43.2888  133.0392 C   0  0  0  0  0  0  0  0  0  0  0  0
    8.5894   44.4807  133.1125 C   0  0  0  0  0  0  0  0  0  0  0  0
   11.2828   42.0970  132.2566 O   0  0  0  0  0  0  0  0  0  0  0  0
   11.0399   40.9039  131.6222 C   0  0  0  0  0  0  0  0  0  0  0  0
   10.2560   40.9446  130.3570 C   0  0  0  0  0  0  0  0  0  0  0  0
    9.9565   42.3045  129.9349 N   0  0  0  0  0  0  0  0  0  0  0  0
    8.5202   42.5153  129.8359 C   0  0  0  0  0  0  0  0  0  0  0  0
    8.2820   43.9887  129.7109 C   0  0  0  0  0  0  0  0  0  0  0  0
    9.0051   44.5981  128.5353 C   0  0  0  0  0  0  0  0  0  0  0  0
   10.3949   44.0531  128.3632 C   0  0  0  0  0  0  0  0  0  0  0  0
   10.5005   42.5817  128.6177 C   0  0  0  0  0  0  0  0  0  0  0  0
 13 14  1  0  0  0
 14 15  2  0  0  0
 15 16  1  0  0  0
 16 17  2  0  0  0
 17 18  1  0  0  0
 18 19  2  0  0  0
 17  1  1  0  0  0
  1  2  2  0  0  0
  2  3  1  0  0  0
  3  4  2  0  0  0
  4  5  1  0  0  0
  5  6  2  0  0  0
  6  7  1  0  0  0
  6  8  1  0  0  0
  8  9  2  0  0  0
  9 10  1  0  0  0
 10 11  2  0  0  0
 11 21  1  0  0  0
 21 22  1  0  0  0
 22 23  2  0  0  0
 23 24  1  0  0  0
 24 25  2  0  0  0
 25 28  1  0  0  0
 28 29  1  0  0  0
 29 30  1  0  0  0
 30 31  1  0  0  0
 31 32  1  0  0  0
 32 33  1  0  0  0
 33 34  1  0  0  0
 34 35  1  0  0  0
 35 36  1  0  0  0
 25 26  1  0  0  0
 26 27  2  0  0  0
 19 14  1  0  0  0
 11  1  1  0  0  0
 27 22  1  0  0  0
 10  4  1  0  0  0
 36 31  1  0  0  0
 13 20  1  0  0  0
  7 12  1  0  0  0
M  END
> <minimizedAffinity>
8.47029

> <CNNscore>
0.2731740177

> <CNNaffinity>
7.6219506264

> <CNN_VS>
2.0821189880

> <CNNaffinity_variance>
0.4145361781

$$$$
[H]Oc1c([H])c([H])c(-c2c([H])c([H])c3c([H])c(O[H])c([H])c([H])c3c2Oc2c([H])c([H])c(OC([H])([H])C([H])([H])N3C([H])([H])C([H])([H])C([H])([H])C([H])([H])C3([H])[H])c([H])c2[H])c([H])c1[H]


 36 40  0  0  0  0  0  0  0  0999 V2000
    9.3015   46.9959  129.3502 C   0  0  0  0  0  0  0  0  0  0  0  0
    8.0999   47.4526  128.7760 C   0  0  0  0  0  0  0  0  0  0  0  0
    7.5815   48.6813  129.1082 C   0  0  0  0  0  0  0  0  0  0  0  0
    8.2456   49.4806  130.0175 C   0  0  0  0  0  0  0  0  0  0  0  0
    7.7373   50.7293  130.3804 C   0  0  0  0  0  0  0  0  0  0  0  0
    8.3832   51.5241  131.2865 C   0  0  0  0  0  0  0  0  0  0  0  0
    7.8463   52.7707  131.6282 O   0  0  0  0  0  0  0  0  0  0  0  0
    9.5619   51.1171  131.8740 C   0  0  0  0  0  0  0  0  0  0  0  0
   10.0669   49.8895  131.5205 C   0  0  0  0  0  0  0  0  0  0  0  0
    9.4255   49.0791  130.6079 C   0  0  0  0  0  0  0  0  0  0  0  0
    9.9248   47.8209  130.2442 C   0  0  0  0  0  0  0  0  0  0  0  0
    8.1084   53.5740  131.1028 H   0  0  0  0  0  0  0  0  0  0  0  0
   10.7004   41.6744  128.1866 O   0  0  0  0  0  0  0  0  0  0  0  0
   10.4025   43.0133  128.4289 C   0  0  0  0  0  0  0  0  0  0  0  0
   11.1321   44.0345  127.8885 C   0  0  0  0  0  0  0  0  0  0  0  0
   10.8027   45.3622  128.1546 C   0  0  0  0  0  0  0  0  0  0  0  0
    9.7607   45.6728  128.9495 C   0  0  0  0  0  0  0  0  0  0  0  0
    9.0283   44.6049  129.4907 C   0  0  0  0  0  0  0  0  0  0  0  0
    9.3179   43.2890  129.2543 C   0  0  0  0  0  0  0  0  0  0  0  0
   11.3578   41.2583  128.8606 H   0  0  0  0  0  0  0  0  0  0  0  0
   11.0970   47.4394  130.8361 O   0  0  0  0  0  0  0  0  0  0  0  0
   11.1171   46.4409  131.7950 C   0  0  0  0  0  0  0  0  0  0  0  0
   10.1243   46.3353  132.7503 C   0  0  0  0  0  0  0  0  0  0  0  0
   10.1625   45.3480  133.6844 C   0  0  0  0  0  0  0  0  0  0  0  0
   11.1823   44.3824  133.7546 C   0  0  0  0  0  0  0  0  0  0  0  0
   12.1615   44.5038  132.7962 C   0  0  0  0  0  0  0  0  0  0  0  0
   12.1184   45.5120  131.8453 C   0  0  0  0  0  0  0  0  0  0  0  0
   11.1241   43.4342  134.7372 O   0  0  0  0  0  0  0  0  0  0  0  0
   10.8540   42.0895  134.6742 C   0  0  0  0  0  0  0  0  0  0  0  0
    9.6390   41.5981  135.3804 C   0  0  0  0  0  0  0  0  0  0  0  0
    8.4414   41.7044  134.5609 N   0  0  0  0  0  0  0  0  0  0  0  0
    7.5739   40.5522  134.7534 C   0  0  0  0  0  0  0  0  0  0  0  0
    6.2458   40.8723  134.1393 C   0  0  0  0  0  0  0  0  0  0  0  0
    6.3518   41.2372  132.6792 C   0  0  0  0  0  0  0  0  0  0  0  0
    7.5369   42.1134  132.3849 C   0  0  0  0  0  0  0  0  0  0  0  0
    8.7689   41.7357  133.1468 C   0  0  0  0  0  0  0  0  0  0  0  0
 13 14  1  0  0  0
 14 15  2  0  0  0
 15 16  1  0  0  0
 16 17  2  0  0  0
 17 18  1  0  0  0
 18 19  2  0  0  0
 17  1  1  0  0  0
  1  2  2  0  0  0
  2  3  1  0  0  0
  3  4  2  0  0  0
  4  5  1  0  0  0
  5  6  2  0  0  0
  6  7  1  0  0  0
  6  8  1  0  0  0
  8  9  2  0  0  0
  9 10  1  0  0  0
 10 11  2  0  0  0
 11 21  1  0  0  0
 21 22  1  0  0  0
 22 23  2  0  0  0
 23 24  1  0  0  0
 24 25  2  0  0  0
 25 28  1  0  0  0
 28 29  1  0  0  0
 29 30  1  0  0  0
 30 31  1  0  0  0
 31 32  1  0  0  0
 32 33  1  0  0  0
 33 34  1  0  0  0
 34 35  1  0  0  0
 35 36  1  0  0  0
 25 26  1  0  0  0
 26 27  2  0  0  0
 19 14  1  0  0  0
 11  1  1  0  0  0
 27 22  1  0  0  0
 10  4  1  0  0  0
 36 31  1  0  0  0
 13 20  1  0  0  0
  7 12  1  0  0  0
M  END
> <minimizedAffinity>
23.35393

> <CNNscore>
0.2712492049

> <CNNaffinity>
7.2041001320

> <CNN_VS>
1.9541064501

> <CNNaffinity_variance>
0.8472012281

$$$$
[H]Oc1c([H])c([H])c(-c2c([H])c([H])c3c([H])c(O[H])c([H])c([H])c3c2Oc2c([H])c([H])c(OC([H])([H])C([H])([H])N3C([H])([H])C([H])([H])C([H])([H])C([H])([H])C3([H])[H])c([H])c2[H])c([H])c1[H]


 36 40  0  0  0  0  0  0  0  0999 V2000
    8.7424   46.7101  129.1251 C   0  0  0  0  0  0  0  0  0  0  0  0
    8.9163   45.8181  128.0498 C   0  0  0  0  0  0  0  0  0  0  0  0
   10.0568   45.0592  127.9402 C   0  0  0  0  0  0  0  0  0  0  0  0
   11.0474   45.1713  128.8958 C   0  0  0  0  0  0  0  0  0  0  0  0
   12.2204   44.4194  128.8046 C   0  0  0  0  0  0  0  0  0  0  0  0
   13.2106   44.5300  129.7412 C   0  0  0  0  0  0  0  0  0  0  0  0
   14.3741   43.7614  129.6200 O   0  0  0  0  0  0  0  0  0  0  0  0
   13.0831   45.3909  130.8101 C   0  0  0  0  0  0  0  0  0  0  0  0
   11.9311   46.1330  130.9051 C   0  0  0  0  0  0  0  0  0  0  0  0
   10.9252   46.0302  129.9677 C   0  0  0  0  0  0  0  0  0  0  0  0
    9.7482   46.7872  130.0475 C   0  0  0  0  0  0  0  0  0  0  0  0
   14.4091   42.8616  130.0433 H   0  0  0  0  0  0  0  0  0  0  0  0
    4.2995   50.1502  129.3621 O   0  0  0  0  0  0  0  0  0  0  0  0
    5.3564   49.2460  129.2863 C   0  0  0  0  0  0  0  0  0  0  0  0
    5.1620   47.9085  129.0854 C   0  0  0  0  0  0  0  0  0  0  0  0
    6.2456   47.0351  129.0153 C   0  0  0  0  0  0  0  0  0  0  0  0
    7.5087   47.4844  129.1442 C   0  0  0  0  0  0  0  0  0  0  0  0
    7.6797   48.8623  129.3490 C   0  0  0  0  0  0  0  0  0  0  0  0
    6.6440   49.7528  129.4235 C   0  0  0  0  0  0  0  0  0  0  0  0
    3.9314   50.2923  130.3129 H   0  0  0  0  0  0  0  0  0  0  0  0
    9.6414   47.6313  131.1179 O   0  0  0  0  0  0  0  0  0  0  0  0
    9.6711   47.1437  132.4134 C   0  0  0  0  0  0  0  0  0  0  0  0
   10.7253   47.4152  133.2646 C   0  0  0  0  0  0  0  0  0  0  0  0
   10.7364   46.9261  134.5333 C   0  0  0  0  0  0  0  0  0  0  0  0
    9.7092   46.1290  135.0687 C   0  0  0  0  0  0  0  0  0  0  0  0
    8.6690   45.8692  134.2070 C   0  0  0  0  0  0  0  0  0  0  0  0
    8.6617   46.3702  132.9141 C   0  0  0  0  0  0  0  0  0  0  0  0
    9.8226   45.6878  136.3573 O   0  0  0  0  0  0  0  0  0  0  0  0
   10.2476   44.4834  136.8612 C   0  0  0  0  0  0  0  0  0  0  0  0
   11.2794   43.7395  136.0874 C   0  0  0  0  0  0  0  0  0  0  0  0
   10.9482   43.6425  134.6739 N   0  0  0  0  0  0  0  0  0  0  0  0
    9.9789   42.5835  134.4370 C   0  0  0  0  0  0  0  0  0  0  0  0
    9.4555   42.7464  133.0432 C   0  0  0  0  0  0  0  0  0  0  0  0
   10.5491   42.7272  132.0041 C   0  0  0  0  0  0  0  0  0  0  0  0
   11.7702   43.4910  132.4330 C   0  0  0  0  0  0  0  0  0  0  0  0
   12.1164   43.3107  133.8782 C   0  0  0  0  0  0  0  0  0  0  0  0
 13 14  1  0  0  0
 14 15  2  0  0  0
 15 16  1  0  0  0
 16 17  2  0  0  0
 17 18  1  0  0  0
 18 19  2  0  0  0
 17  1  1  0  0  0
  1  2  2  0  0  0
  2  3  1  0  0  0
  3  4  2  0  0  0
  4  5  1  0  0  0
  5  6  2  0  0  0
  6  7  1  0  0  0
  6  8  1  0  0  0
  8  9  2  0  0  0
  9 10  1  0  0  0
 10 11  2  0  0  0
 11 21  1  0  0  0
 21 22  1  0  0  0
 22 23  2  0  0  0
 23 24  1  0  0  0
 24 25  2  0  0  0
 25 28  1  0  0  0
 28 29  1  0  0  0
 29 30  1  0  0  0
 30 31  1  0  0  0
 31 32  1  0  0  0
 32 33  1  0  0  0
 33 34  1  0  0  0
 34 35  1  0  0  0
 35 36  1  0  0  0
 25 26  1  0  0  0
 26 27  2  0  0  0
 19 14  1  0  0  0
 11  1  1  0  0  0
 27 22  1  0  0  0
 10  4  1  0  0  0
 36 31  1  0  0  0
 13 20  1  0  0  0
  7 12  1  0  0  0
M  END
> <minimizedAffinity>
0.20474

> <CNNscore>
0.2558072805

> <CNNaffinity>
7.7291994095

> <CNN_VS>
1.9771854877

> <CNNaffinity_variance>
0.2005014420

$$$$
[H]Oc1c([H])c([H])c(-c2nc3c([H])c([H])c(O[H])c([H])c3c(C#N)c2[H])c([H])c1[H]


 22 24  0  0  0  0  0  0  0  0999 V2000
    9.3995   47.0645  130.3649 C   0  0  0  0  0  0  0  0  0  0  0  0
    9.3577   45.9628  129.5519 C   0  0  0  0  0  0  0  0  0  0  0  0
   10.0268   44.7850  129.8339 C   0  0  0  0  0  0  0  0  0  0  0  0
   10.7619   44.7294  130.9821 C   0  0  0  0  0  0  0  0  0  0  0  0
   11.4283   43.5499  131.2586 C   0  0  0  0  0  0  0  0  0  0  0  0
   12.1760   43.4503  132.3972 C   0  0  0  0  0  0  0  0  0  0  0  0
   12.8630   42.2821  132.7148 O   0  0  0  0  0  0  0  0  0  0  0  0
   12.2444   44.5370  133.2430 C   0  0  0  0  0  0  0  0  0  0  0  0
   11.5688   45.7190  132.9533 C   0  0  0  0  0  0  0  0  0  0  0  0
   10.8073   45.8350  131.8036 C   0  0  0  0  0  0  0  0  0  0  0  0
   10.1417   46.9584  131.4904 N   0  0  0  0  0  0  0  0  0  0  0  0
   13.8057   42.1567  132.3962 H   0  0  0  0  0  0  0  0  0  0  0  0
    6.5363   51.7819  128.9554 O   0  0  0  0  0  0  0  0  0  0  0  0
    7.2405   50.6218  129.3024 C   0  0  0  0  0  0  0  0  0  0  0  0
    8.0261   50.5738  130.4297 C   0  0  0  0  0  0  0  0  0  0  0  0
    8.7420   49.4275  130.8018 C   0  0  0  0  0  0  0  0  0  0  0  0
    8.6840   48.2922  130.0417 C   0  0  0  0  0  0  0  0  0  0  0  0
    7.8816   48.3533  128.8973 C   0  0  0  0  0  0  0  0  0  0  0  0
    7.1800   49.4797  128.5345 C   0  0  0  0  0  0  0  0  0  0  0  0
    6.9514   52.5036  128.3565 H   0  0  0  0  0  0  0  0  0  0  0  0
    9.9452   43.6492  128.9338 C   0  0  0  0  0  0  0  0  0  0  0  0
    9.8756   42.7466  128.2113 N   0  0  0  0  0  0  0  0  0  0  0  0
 13 14  1  0  0  0
 14 15  2  0  0  0
 15 16  1  0  0  0
 16 17  2  0  0  0
 17 18  1  0  0  0
 18 19  2  0  0  0
 17  1  1  0  0  0
  1  2  2  0  0  0
  2  3  1  0  0  0
  3 21  1  0  0  0
 21 22  3  0  0  0
  3  4  2  0  0  0
  4  5  1  0  0  0
  5  6  2  0  0  0
  6  7  1  0  0  0
  6  8  1  0  0  0
  8  9  2  0  0  0
  9 10  1  0  0  0
 10 11  2  0  0  0
 19 14  1  0  0  0
 11  1  1  0  0  0
 10  4  1  0  0  0
 13 20  1  0  0  0
  7 12  1  0  0  0
M  END
> <minimizedAffinity>
-8.59561

> <CNNscore>
0.7276619077

> <CNNaffinity>
7.1789550781

> <CNN_VS>
5.2238521576

> <CNNaffinity_variance>
0.8401921988

$$$$
[H]Oc1c([H])c([H])c(-c2nc3c([H])c([H])c(O[H])c([H])c3c(C#N)c2[H])c([H])c1[H]


 22 24  0  0  0  0  0  0  0  0999 V2000
    9.3348   47.0125  130.2702 C   0  0  0  0  0  0  0  0  0  0  0  0
    9.3054   45.8878  129.4888 C   0  0  0  0  0  0  0  0  0  0  0  0
    9.9903   44.7271  129.8022 C   0  0  0  0  0  0  0  0  0  0  0  0
   10.7287   44.7136  130.9496 C   0  0  0  0  0  0  0  0  0  0  0  0
   11.4110   43.5510  131.2576 C   0  0  0  0  0  0  0  0  0  0  0  0
   12.1625   43.4933  132.3966 C   0  0  0  0  0  0  0  0  0  0  0  0
   12.8653   42.3436  132.7452 O   0  0  0  0  0  0  0  0  0  0  0  0
   12.2187   44.6044  133.2111 C   0  0  0  0  0  0  0  0  0  0  0  0
   11.5272   45.7688  132.8898 C   0  0  0  0  0  0  0  0  0  0  0  0
   10.7617   45.8424  131.7393 C   0  0  0  0  0  0  0  0  0  0  0  0
   10.0809   46.9479  131.3963 N   0  0  0  0  0  0  0  0  0  0  0  0
   13.8088   42.2214  132.4278 H   0  0  0  0  0  0  0  0  0  0  0  0
    6.5472   51.8196  129.0216 O   0  0  0  0  0  0  0  0  0  0  0  0
    7.2327   50.6372  129.3284 C   0  0  0  0  0  0  0  0  0  0  0  0
    7.0927   49.5095  128.5544 C   0  0  0  0  0  0  0  0  0  0  0  0
    7.7657   48.3126  128.8368 C   0  0  0  0  0  0  0  0  0  0  0  0
    8.6027   48.2213  129.9143 C   0  0  0  0  0  0  0  0  0  0  0  0
    8.7368   49.3749  130.6942 C   0  0  0  0  0  0  0  0  0  0  0  0
    8.0752   50.5483  130.4146 C   0  0  0  0  0  0  0  0  0  0  0  0
    5.6149   52.0144  129.4020 H   0  0  0  0  0  0  0  0  0  0  0  0
    9.9215   43.5654  128.9348 C   0  0  0  0  0  0  0  0  0  0  0  0
    9.8607   42.6412  128.2393 N   0  0  0  0  0  0  0  0  0  0  0  0
 13 14  1  0  0  0
 14 15  2  0  0  0
 15 16  1  0  0  0
 16 17  2  0  0  0
 17 18  1  0  0  0
 18 19  2  0  0  0
 17  1  1  0  0  0
  1  2  2  0  0  0
  2  3  1  0  0  0
  3 21  1  0  0  0
 21 22  3  0  0  0
  3  4  2  0  0  0
  4  5  1  0  0  0
  5  6  2  0  0  0
  6  7  1  0  0  0
  6  8  1  0  0  0
  8  9  2  0  0  0
  9 10  1  0  0  0
 10 11  2  0  0  0
 19 14  1  0  0  0
 11  1  1  0  0  0
 10  4  1  0  0  0
 13 20  1  0  0  0
  7 12  1  0  0  0
M  END
> <minimizedAffinity>
-8.55375

> <CNNscore>
0.7166600823

> <CNNaffinity>
7.1694173813

> <CNN_VS>
5.1380352974

> <CNNaffinity_variance>
0.8405086398

$$$$
[H]Oc1c([H])c([H])c(-c2nc3c([H])c([H])c(O[H])c([H])c3c(C#N)c2[H])c([H])c1[H]


 22 24  0  0  0  0  0  0  0  0999 V2000
    8.5239   46.5455  130.4608 C   0  0  0  0  0  0  0  0  0  0  0  0
    8.7426   45.4638  129.6494 C   0  0  0  0  0  0  0  0  0  0  0  0
    9.6669   44.4746  129.9351 C   0  0  0  0  0  0  0  0  0  0  0  0
   10.3911   44.5928  131.0855 C   0  0  0  0  0  0  0  0  0  0  0  0
   11.3132   43.6013  131.3657 C   0  0  0  0  0  0  0  0  0  0  0  0
   12.0599   43.6797  132.5066 C   0  0  0  0  0  0  0  0  0  0  0  0
   12.9993   42.7041  132.8279 O   0  0  0  0  0  0  0  0  0  0  0  0
   11.8705   44.7531  133.3510 C   0  0  0  0  0  0  0  0  0  0  0  0
   10.9390   45.7448  133.0575 C   0  0  0  0  0  0  0  0  0  0  0  0
   10.1751   45.6792  131.9054 C   0  0  0  0  0  0  0  0  0  0  0  0
    9.2669   46.6163  131.5887 N   0  0  0  0  0  0  0  0  0  0  0  0
   13.9463   42.8016  132.5122 H   0  0  0  0  0  0  0  0  0  0  0  0
    4.5862   50.4318  129.1082 O   0  0  0  0  0  0  0  0  0  0  0  0
    5.5548   49.4762  129.4410 C   0  0  0  0  0  0  0  0  0  0  0  0
    6.7132   49.8304  130.0914 C   0  0  0  0  0  0  0  0  0  0  0  0
    7.6999   48.8965  130.4371 C   0  0  0  0  0  0  0  0  0  0  0  0
    7.5430   47.5724  130.1338 C   0  0  0  0  0  0  0  0  0  0  0  0
    6.3605   47.2243  129.4721 C   0  0  0  0  0  0  0  0  0  0  0  0
    5.3938   48.1430  129.1341 C   0  0  0  0  0  0  0  0  0  0  0  0
    4.6071   50.9280  128.2108 H   0  0  0  0  0  0  0  0  0  0  0  0
    9.8551   43.3503  129.0365 C   0  0  0  0  0  0  0  0  0  0  0  0
   10.0002   42.4559  128.3150 N   0  0  0  0  0  0  0  0  0  0  0  0
 13 14  1  0  0  0
 14 15  2  0  0  0
 15 16  1  0  0  0
 16 17  2  0  0  0
 17 18  1  0  0  0
 18 19  2  0  0  0
 17  1  1  0  0  0
  1  2  2  0  0  0
  2  3  1  0  0  0
  3 21  1  0  0  0
 21 22  3  0  0  0
  3  4  2  0  0  0
  4  5  1  0  0  0
  5  6  2  0  0  0
  6  7  1  0  0  0
  6  8  1  0  0  0
  8  9  2  0  0  0
  9 10  1  0  0  0
 10 11  2  0  0  0
 19 14  1  0  0  0
 11  1  1  0  0  0
 10  4  1  0  0  0
 13 20  1  0  0  0
  7 12  1  0  0  0
M  END
> <minimizedAffinity>
-7.86572

> <CNNscore>
0.6632752419

> <CNNaffinity>
7.2686905861

> <CNN_VS>
4.8211426735

> <CNNaffinity_variance>
1.2401355505

$$$$
[H]Oc1c([H])c([H])c(-c2nc3c([H])c([H])c(O[H])c([H])c3c(C#N)c2[H])c([H])c1[H]


 22 24  0  0  0  0  0  0  0  0999 V2000
    9.3693   46.3585  131.1451 C   0  0  0  0  0  0  0  0  0  0  0  0
    9.5999   47.6731  131.4531 C   0  0  0  0  0  0  0  0  0  0  0  0
    8.7450   48.6992  131.0918 C   0  0  0  0  0  0  0  0  0  0  0  0
    7.6186   48.3735  130.3938 C   0  0  0  0  0  0  0  0  0  0  0  0
    6.7680   49.4030  130.0354 C   0  0  0  0  0  0  0  0  0  0  0  0
    5.6290   49.1224  129.3359 C   0  0  0  0  0  0  0  0  0  0  0  0
    4.7448   50.1276  128.9548 O   0  0  0  0  0  0  0  0  0  0  0  0
    5.3595   47.8111  129.0057 C   0  0  0  0  0  0  0  0  0  0  0  0
    6.2240   46.7837  129.3724 C   0  0  0  0  0  0  0  0  0  0  0  0
    7.3817   47.0524  130.0812 C   0  0  0  0  0  0  0  0  0  0  0  0
    8.2395   46.0882  130.4524 N   0  0  0  0  0  0  0  0  0  0  0  0
    4.8633   50.5861  128.0707 H   0  0  0  0  0  0  0  0  0  0  0  0
   13.0444   42.3326  132.7954 O   0  0  0  0  0  0  0  0  0  0  0  0
   12.1403   43.3225  132.3894 C   0  0  0  0  0  0  0  0  0  0  0  0
   11.1520   43.0538  131.4721 C   0  0  0  0  0  0  0  0  0  0  0  0
   10.2336   44.0239  131.0471 C   0  0  0  0  0  0  0  0  0  0  0  0
   10.2884   45.2986  131.5393 C   0  0  0  0  0  0  0  0  0  0  0  0
   11.2982   45.5597  132.4716 C   0  0  0  0  0  0  0  0  0  0  0  0
   12.1982   44.6057  132.8871 C   0  0  0  0  0  0  0  0  0  0  0  0
   13.9310   42.1799  132.3031 H   0  0  0  0  0  0  0  0  0  0  0  0
    9.0420   50.0749  131.4466 C   0  0  0  0  0  0  0  0  0  0  0  0
    9.2752   51.1719  131.7360 N   0  0  0  0  0  0  0  0  0  0  0  0
 13 14  1  0  0  0
 14 15  2  0  0  0
 15 16  1  0  0  0
 16 17  2  0  0  0
 17 18  1  0  0  0
 18 19  2  0  0  0
 17  1  1  0  0  0
  1  2  2  0  0  0
  2  3  1  0  0  0
  3 21  1  0  0  0
 21 22  3  0  0  0
  3  4  2  0  0  0
  4  5  1  0  0  0
  5  6  2  0  0  0
  6  7  1  0  0  0
  6  8  1  0  0  0
  8  9  2  0  0  0
  9 10  1  0  0  0
 10 11  2  0  0  0
 19 14  1  0  0  0
 11  1  1  0  0  0
 10  4  1  0  0  0
 13 20  1  0  0  0
  7 12  1  0  0  0
M  END
> <minimizedAffinity>
-6.17330

> <CNNscore>
0.5794949532

> <CNNaffinity>
7.0715384483

> <CNN_VS>
4.0979208946

> <CNNaffinity_variance>
1.3116030693

$$$$
[H]Oc1c([H])c([H])c(-c2nc3c([H])c([H])c(O[H])c([H])c3c(C#N)c2[H])c([H])c1[H]


 22 24  0  0  0  0  0  0  0  0999 V2000
    8.8467   47.0740  130.8663 C   0  0  0  0  0  0  0  0  0  0  0  0
    9.0305   46.9178  132.2147 C   0  0  0  0  0  0  0  0  0  0  0  0
    9.5451   45.7659  132.7827 C   0  0  0  0  0  0  0  0  0  0  0  0
    9.8830   44.7406  131.9483 C   0  0  0  0  0  0  0  0  0  0  0  0
   10.3966   43.5919  132.5216 C   0  0  0  0  0  0  0  0  0  0  0  0
   10.7481   42.5407  131.7236 C   0  0  0  0  0  0  0  0  0  0  0  0
   11.2689   41.3657  132.2583 O   0  0  0  0  0  0  0  0  0  0  0  0
   10.5789   42.6572  130.3602 C   0  0  0  0  0  0  0  0  0  0  0  0
   10.0607   43.8190  129.7954 C   0  0  0  0  0  0  0  0  0  0  0  0
    9.7000   44.8924  130.5908 C   0  0  0  0  0  0  0  0  0  0  0  0
    9.1971   46.0290  130.0826 N   0  0  0  0  0  0  0  0  0  0  0  0
   10.6503   40.6216  132.5217 H   0  0  0  0  0  0  0  0  0  0  0  0
    6.6768   51.7730  128.4895 O   0  0  0  0  0  0  0  0  0  0  0  0
    7.2105   50.6175  129.0744 C   0  0  0  0  0  0  0  0  0  0  0  0
    7.7500   50.6412  130.3388 C   0  0  0  0  0  0  0  0  0  0  0  0
    8.2911   49.5013  130.9494 C   0  0  0  0  0  0  0  0  0  0  0  0
    8.3023   48.2998  130.2964 C   0  0  0  0  0  0  0  0  0  0  0  0
    7.7508   48.2883  129.0108 C   0  0  0  0  0  0  0  0  0  0  0  0
    7.2203   49.4086  128.4140 C   0  0  0  0  0  0  0  0  0  0  0  0
    7.2549   52.4070  127.9275 H   0  0  0  0  0  0  0  0  0  0  0  0
    9.7175   45.6580  134.2199 C   0  0  0  0  0  0  0  0  0  0  0  0
    9.8533   45.5789  135.3674 N   0  0  0  0  0  0  0  0  0  0  0  0
 13 14  1  0  0  0
 14 15  2  0  0  0
 15 16  1  0  0  0
 16 17  2  0  0  0
 17 18  1  0  0  0
 18 19  2  0  0  0
 17  1  1  0  0  0
  1  2  2  0  0  0
  2  3  1  0  0  0
  3 21  1  0  0  0
 21 22  3  0  0  0
  3  4  2  0  0  0
  4  5  1  0  0  0
  5  6  2  0  0  0
  6  7  1  0  0  0
  6  8  1  0  0  0
  8  9  2  0  0  0
  9 10  1  0  0  0
 10 11  2  0  0  0
 19 14  1  0  0  0
 11  1  1  0  0  0
 10  4  1  0  0  0
 13 20  1  0  0  0
  7 12  1  0  0  0
M  END
> <minimizedAffinity>
-7.77774

> <CNNscore>
0.5772850513

> <CNNaffinity>
6.9906196594

> <CNN_VS>
4.0355801582

> <CNNaffinity_variance>
0.6264778972

$$$$
[H]Oc1c([H])c([H])c(-c2nc3c([H])c([H])c(O[H])c([H])c3c(C#N)c2[H])c([H])c1[H]


 22 24  0  0  0  0  0  0  0  0999 V2000
    8.9216   45.9033  130.9584 C   0  0  0  0  0  0  0  0  0  0  0  0
    7.7361   45.9139  130.2723 C   0  0  0  0  0  0  0  0  0  0  0  0
    7.0771   47.0760  129.9125 C   0  0  0  0  0  0  0  0  0  0  0  0
    7.6459   48.2655  130.2640 C   0  0  0  0  0  0  0  0  0  0  0  0
    6.9828   49.4235  129.9019 C   0  0  0  0  0  0  0  0  0  0  0  0
    7.5163   50.6363  130.2334 C   0  0  0  0  0  0  0  0  0  0  0  0
    6.8827   51.8268  129.8889 O   0  0  0  0  0  0  0  0  0  0  0  0
    8.7089   50.6697  130.9245 C   0  0  0  0  0  0  0  0  0  0  0  0
    9.3666   49.4967  131.2834 C   0  0  0  0  0  0  0  0  0  0  0  0
    8.8385   48.2606  130.9545 C   0  0  0  0  0  0  0  0  0  0  0  0
    9.4438   47.1079  131.2832 N   0  0  0  0  0  0  0  0  0  0  0  0
    6.2198   52.2385  130.5190 H   0  0  0  0  0  0  0  0  0  0  0  0
   11.6630   41.0817  132.2526 O   0  0  0  0  0  0  0  0  0  0  0  0
   10.9886   42.2675  131.9346 C   0  0  0  0  0  0  0  0  0  0  0  0
    9.8912   42.6794  132.6531 C   0  0  0  0  0  0  0  0  0  0  0  0
    9.1966   43.8608  132.3582 C   0  0  0  0  0  0  0  0  0  0  0  0
    9.5931   44.6627  131.3239 C   0  0  0  0  0  0  0  0  0  0  0  0
   10.7107   44.2331  130.6003 C   0  0  0  0  0  0  0  0  0  0  0  0
   11.3906   43.0732  130.8921 C   0  0  0  0  0  0  0  0  0  0  0  0
   11.4000   40.1843  131.8313 H   0  0  0  0  0  0  0  0  0  0  0  0
    5.8221   47.0249  129.1849 C   0  0  0  0  0  0  0  0  0  0  0  0
    4.8218   46.9911  128.6021 N   0  0  0  0  0  0  0  0  0  0  0  0
 13 14  1  0  0  0
 14 15  2  0  0  0
 15 16  1  0  0  0
 16 17  2  0  0  0
 17 18  1  0  0  0
 18 19  2  0  0  0
 17  1  1  0  0  0
  1  2  2  0  0  0
  2  3  1  0  0  0
  3 21  1  0  0  0
 21 22  3  0  0  0
  3  4  2  0  0  0
  4  5  1  0  0  0
  5  6  2  0  0  0
  6  7  1  0  0  0
  6  8  1  0  0  0
  8  9  2  0  0  0
  9 10  1  0  0  0
 10 11  2  0  0  0
 19 14  1  0  0  0
 11  1  1  0  0  0
 10  4  1  0  0  0
 13 20  1  0  0  0
  7 12  1  0  0  0
M  END
> <minimizedAffinity>
-6.23206

> <CNNscore>
0.5200163126

> <CNNaffinity>
7.0127053261

> <CNN_VS>
3.6467211246

> <CNNaffinity_variance>
1.2080059052

$$$$
[H]Oc1c([H])c([H])c(-c2nc3c([H])c([H])c(O[H])c([H])c3c(C#N)c2[H])c([H])c1[H]


 22 24  0  0  0  0  0  0  0  0999 V2000
    9.4432   46.1844  131.1116 C   0  0  0  0  0  0  0  0  0  0  0  0
    9.7542   47.2584  131.9029 C   0  0  0  0  0  0  0  0  0  0  0  0
    9.3001   48.5415  131.6547 C   0  0  0  0  0  0  0  0  0  0  0  0
    8.5031   48.7351  130.5641 C   0  0  0  0  0  0  0  0  0  0  0  0
    8.0524   50.0195  130.3210 C   0  0  0  0  0  0  0  0  0  0  0  0
    7.2523   50.2587  129.2403 C   0  0  0  0  0  0  0  0  0  0  0  0
    6.7760   51.5358  128.9580 O   0  0  0  0  0  0  0  0  0  0  0  0
    6.9156   49.2044  128.4180 C   0  0  0  0  0  0  0  0  0  0  0  0
    7.3759   47.9160  128.6736 C   0  0  0  0  0  0  0  0  0  0  0  0
    8.1873   47.6580  129.7645 C   0  0  0  0  0  0  0  0  0  0  0  0
    8.6506   46.4289  130.0434 N   0  0  0  0  0  0  0  0  0  0  0  0
    7.3103   52.1477  128.3698 H   0  0  0  0  0  0  0  0  0  0  0  0
   11.5206   40.9816  132.1381 O   0  0  0  0  0  0  0  0  0  0  0  0
   11.0094   42.2611  131.8859 C   0  0  0  0  0  0  0  0  0  0  0  0
    9.7819   42.6477  132.3697 C   0  0  0  0  0  0  0  0  0  0  0  0
    9.2450   43.9209  132.1335 C   0  0  0  0  0  0  0  0  0  0  0  0
    9.9366   44.8434  131.3982 C   0  0  0  0  0  0  0  0  0  0  0  0
   11.1840   44.4385  130.9113 C   0  0  0  0  0  0  0  0  0  0  0  0
   11.7086   43.1883  131.1448 C   0  0  0  0  0  0  0  0  0  0  0  0
   11.3364   40.1951  131.5061 H   0  0  0  0  0  0  0  0  0  0  0  0
    9.6630   49.6415  132.5295 C   0  0  0  0  0  0  0  0  0  0  0  0
    9.9581   50.5152  133.2302 N   0  0  0  0  0  0  0  0  0  0  0  0
 13 14  1  0  0  0
 14 15  2  0  0  0
 15 16  1  0  0  0
 16 17  2  0  0  0
 17 18  1  0  0  0
 18 19  2  0  0  0
 17  1  1  0  0  0
  1  2  2  0  0  0
  2  3  1  0  0  0
  3 21  1  0  0  0
 21 22  3  0  0  0
  3  4  2  0  0  0
  4  5  1  0  0  0
  5  6  2  0  0  0
  6  7  1  0  0  0
  6  8  1  0  0  0
  8  9  2  0  0  0
  9 10  1  0  0  0
 10 11  2  0  0  0
 19 14  1  0  0  0
 11  1  1  0  0  0
 10  4  1  0  0  0
 13 20  1  0  0  0
  7 12  1  0  0  0
M  END
> <minimizedAffinity>
-7.41081

> <CNNscore>
0.4723960161

> <CNNaffinity>
6.8742418289

> <CNN_VS>
3.2473645210

> <CNNaffinity_variance>
0.8943305016

$$$$
[H]Oc1c([H])c([H])c(-c2nc3c([H])c([H])c(O[H])c([H])c3c(C#N)c2[H])c([H])c1[H]


 22 24  0  0  0  0  0  0  0  0999 V2000
   10.5141   45.4189  131.5481 C   0  0  0  0  0  0  0  0  0  0  0  0
    9.6173   46.3523  131.9961 C   0  0  0  0  0  0  0  0  0  0  0  0
    9.8783   47.2132  133.0473 C   0  0  0  0  0  0  0  0  0  0  0  0
   11.0934   47.1188  133.6609 C   0  0  0  0  0  0  0  0  0  0  0  0
   11.3487   47.9817  134.7108 C   0  0  0  0  0  0  0  0  0  0  0  0
   12.5522   47.9218  135.3538 C   0  0  0  0  0  0  0  0  0  0  0  0
   12.8513   48.7711  136.4152 O   0  0  0  0  0  0  0  0  0  0  0  0
   13.4833   46.9957  134.9337 C   0  0  0  0  0  0  0  0  0  0  0  0
   13.2141   46.1326  133.8754 C   0  0  0  0  0  0  0  0  0  0  0  0
   11.9994   46.1813  133.2142 C   0  0  0  0  0  0  0  0  0  0  0  0
   11.7035   45.3654  132.1895 N   0  0  0  0  0  0  0  0  0  0  0  0
   12.6309   48.4926  137.3531 H   0  0  0  0  0  0  0  0  0  0  0  0
    9.3347   42.0665  127.0973 O   0  0  0  0  0  0  0  0  0  0  0  0
    9.6248   42.8907  128.1922 C   0  0  0  0  0  0  0  0  0  0  0  0
    9.7337   42.3775  129.4630 C   0  0  0  0  0  0  0  0  0  0  0  0
   10.0230   43.1776  130.5772 C   0  0  0  0  0  0  0  0  0  0  0  0
   10.2109   44.5249  130.4378 C   0  0  0  0  0  0  0  0  0  0  0  0
   10.0974   45.0353  129.1402 C   0  0  0  0  0  0  0  0  0  0  0  0
    9.8136   44.2477  128.0484 C   0  0  0  0  0  0  0  0  0  0  0  0
    8.3692   41.8827  126.8040 H   0  0  0  0  0  0  0  0  0  0  0  0
    8.8881   48.1830  133.4783 C   0  0  0  0  0  0  0  0  0  0  0  0
    8.0980   48.9599  133.8156 N   0  0  0  0  0  0  0  0  0  0  0  0
 13 14  1  0  0  0
 14 15  2  0  0  0
 15 16  1  0  0  0
 16 17  2  0  0  0
 17 18  1  0  0  0
 18 19  2  0  0  0
 17  1  1  0  0  0
  1  2  2  0  0  0
  2  3  1  0  0  0
  3 21  1  0  0  0
 21 22  3  0  0  0
  3  4  2  0  0  0
  4  5  1  0  0  0
  5  6  2  0  0  0
  6  7  1  0  0  0
  6  8  1  0  0  0
  8  9  2  0  0  0
  9 10  1  0  0  0
 10 11  2  0  0  0
 19 14  1  0  0  0
 11  1  1  0  0  0
 10  4  1  0  0  0
 13 20  1  0  0  0
  7 12  1  0  0  0
M  END
> <minimizedAffinity>
9.59738

> <CNNscore>
0.4360185862

> <CNNaffinity>
6.3085398674

> <CNN_VS>
2.7506406307

> <CNNaffinity_variance>
2.5580148697

$$$$
[H]Oc1c([H])c([H])c(-c2nc3c([H])c([H])c(O[H])c([H])c3c(C#N)c2[H])c([H])c1[H]


 22 24  0  0  0  0  0  0  0  0999 V2000
    9.6389   45.1642  131.6577 C   0  0  0  0  0  0  0  0  0  0  0  0
    8.4912   44.9310  132.3681 C   0  0  0  0  0  0  0  0  0  0  0  0
    8.2692   45.4321  133.6385 C   0  0  0  0  0  0  0  0  0  0  0  0
    9.2496   46.1955  134.2022 C   0  0  0  0  0  0  0  0  0  0  0  0
    9.0222   46.6935  135.4719 C   0  0  0  0  0  0  0  0  0  0  0  0
    9.9769   47.4625  136.0742 C   0  0  0  0  0  0  0  0  0  0  0  0
    9.7898   47.9842  137.3511 O   0  0  0  0  0  0  0  0  0  0  0  0
   11.1474   47.7211  135.3929 C   0  0  0  0  0  0  0  0  0  0  0  0
   11.3642   47.2139  134.1151 C   0  0  0  0  0  0  0  0  0  0  0  0
   10.4064   46.4332  133.4919 C   0  0  0  0  0  0  0  0  0  0  0  0
   10.5795   45.9265  132.2605 N   0  0  0  0  0  0  0  0  0  0  0  0
   10.0812   47.4560  138.1523 H   0  0  0  0  0  0  0  0  0  0  0  0
   10.6008   43.1361  126.4232 O   0  0  0  0  0  0  0  0  0  0  0  0
   10.3639   43.6347  127.7107 C   0  0  0  0  0  0  0  0  0  0  0  0
    9.2210   43.3105  128.4027 C   0  0  0  0  0  0  0  0  0  0  0  0
    8.9571   43.7941  129.6918 C   0  0  0  0  0  0  0  0  0  0  0  0
    9.8448   44.6228  130.3205 C   0  0  0  0  0  0  0  0  0  0  0  0
   11.0037   44.9455  129.6064 C   0  0  0  0  0  0  0  0  0  0  0  0
   11.2602   44.4693  128.3414 C   0  0  0  0  0  0  0  0  0  0  0  0
   10.2870   43.6388  125.5861 H   0  0  0  0  0  0  0  0  0  0  0  0
    7.0317   45.1513  134.3433 C   0  0  0  0  0  0  0  0  0  0  0  0
    6.0405   44.9306  134.9004 N   0  0  0  0  0  0  0  0  0  0  0  0
 13 14  1  0  0  0
 14 15  2  0  0  0
 15 16  1  0  0  0
 16 17  2  0  0  0
 17 18  1  0  0  0
 18 19  2  0  0  0
 17  1  1  0  0  0
  1  2  2  0  0  0
  2  3  1  0  0  0
  3 21  1  0  0  0
 21 22  3  0  0  0
  3  4  2  0  0  0
  4  5  1  0  0  0
  5  6  2  0  0  0
  6  7  1  0  0  0
  6  8  1  0  0  0
  8  9  2  0  0  0
  9 10  1  0  0  0
 10 11  2  0  0  0
 19 14  1  0  0  0
 11  1  1  0  0  0
 10  4  1  0  0  0
 13 20  1  0  0  0
  7 12  1  0  0  0
M  END
> <minimizedAffinity>
10.52933

> <CNNscore>
0.4249975979

> <CNNaffinity>
6.2942633629

> <CNN_VS>
2.6750469208

> <CNNaffinity_variance>
2.5936951637

$$$$
[H]Oc1c([H])c([H])c(C2=C(c3c([H])c([H])c(O[H])c([H])c3[H])C([H])([H])c3c([H])c(O[H])c([H])c([H])c32)c([H])c1[H]


 27 30  0  0  0  0  0  0  0  0999 V2000
    9.0265   47.0653  132.2561 C   0  0  0  0  0  0  0  0  0  0  0  0
    9.5488   45.8944  132.0073 C   0  0  0  0  0  0  0  0  0  0  0  0
    9.9704   45.2593  133.2767 C   0  0  0  0  0  0  0  0  0  0  0  0
   10.5573   44.0669  133.6244 C   0  0  0  0  0  0  0  0  0  0  0  0
   10.8458   43.7172  134.9240 C   0  0  0  0  0  0  0  0  0  0  0  0
   10.5443   44.5802  135.9452 C   0  0  0  0  0  0  0  0  0  0  0  0
   10.8286   44.2478  137.2859 O   0  0  0  0  0  0  0  0  0  0  0  0
    9.9549   45.7850  135.6372 C   0  0  0  0  0  0  0  0  0  0  0  0
    9.6766   46.1124  134.3313 C   0  0  0  0  0  0  0  0  0  0  0  0
    9.0602   47.3098  133.7243 C   0  0  0  0  0  0  0  0  0  0  0  0
   11.7365   44.5281  137.6171 H   0  0  0  0  0  0  0  0  0  0  0  0
    7.0096   50.8658  128.5367 O   0  0  0  0  0  0  0  0  0  0  0  0
    7.5051   49.9350  129.4585 C   0  0  0  0  0  0  0  0  0  0  0  0
    8.4231   50.2900  130.4228 C   0  0  0  0  0  0  0  0  0  0  0  0
    8.9005   49.3617  131.3208 C   0  0  0  0  0  0  0  0  0  0  0  0
    8.4884   48.0209  131.3089 C   0  0  0  0  0  0  0  0  0  0  0  0
    7.5694   47.7036  130.3305 C   0  0  0  0  0  0  0  0  0  0  0  0
    7.0885   48.6236  129.4317 C   0  0  0  0  0  0  0  0  0  0  0  0
    7.4615   51.0324  127.6340 H   0  0  0  0  0  0  0  0  0  0  0  0
    9.7049   45.2110  130.7400 C   0  0  0  0  0  0  0  0  0  0  0  0
    8.7645   44.2867  130.2823 C   0  0  0  0  0  0  0  0  0  0  0  0
    8.8828   43.6614  129.0818 C   0  0  0  0  0  0  0  0  0  0  0  0
    9.9448   43.9078  128.2469 C   0  0  0  0  0  0  0  0  0  0  0  0
   10.0167   43.2452  127.0339 O   0  0  0  0  0  0  0  0  0  0  0  0
   10.8915   44.8059  128.6564 C   0  0  0  0  0  0  0  0  0  0  0  0
   10.7647   45.4455  129.8901 C   0  0  0  0  0  0  0  0  0  0  0  0
    9.3199   42.5959  126.7526 H   0  0  0  0  0  0  0  0  0  0  0  0
 12 13  1  0  0  0
 13 14  2  0  0  0
 14 15  1  0  0  0
 15 16  2  0  0  0
 16 17  1  0  0  0
 17 18  2  0  0  0
 16  1  1  0  0  0
  1  2  2  0  0  0
  2  3  1  0  0  0
  3  4  2  0  0  0
  4  5  1  0  0  0
  5  6  2  0  0  0
  6  7  1  0  0  0
  6  8  1  0  0  0
  8  9  2  0  0  0
  9 10  1  0  0  0
  2 20  1  0  0  0
 20 21  2  0  0  0
 21 22  1  0  0  0
 22 23  2  0  0  0
 23 24  1  0  0  0
 23 25  1  0  0  0
 25 26  2  0  0  0
 18 13  1  0  0  0
 10  1  1  0  0  0
 26 20  1  0  0  0
  9  3  1  0  0  0
 12 19  1  0  0  0
  7 11  1  0  0  0
 24 27  1  0  0  0
M  END
> <minimizedAffinity>
-5.62898

> <CNNscore>
0.5234735608

> <CNNaffinity>
7.6915144920

> <CNN_VS>
4.0263042450

> <CNNaffinity_variance>
1.3402823210

$$$$
[H]Oc1c([H])c([H])c(C2=C(c3c([H])c([H])c(O[H])c([H])c3[H])C([H])([H])c3c([H])c(O[H])c([H])c([H])c32)c([H])c1[H]


 27 30  0  0  0  0  0  0  0  0999 V2000
    9.5977   45.1951  131.6629 C   0  0  0  0  0  0  0  0  0  0  0  0
    9.1420   46.3822  131.9607 C   0  0  0  0  0  0  0  0  0  0  0  0
    9.2225   46.5917  133.4243 C   0  0  0  0  0  0  0  0  0  0  0  0
    8.9026   47.6147  134.2835 C   0  0  0  0  0  0  0  0  0  0  0  0
    9.0896   47.5444  135.6453 C   0  0  0  0  0  0  0  0  0  0  0  0
    9.6202   46.4102  136.2029 C   0  0  0  0  0  0  0  0  0  0  0  0
    9.8229   46.3106  137.5949 O   0  0  0  0  0  0  0  0  0  0  0  0
    9.9541   45.3632  135.3747 C   0  0  0  0  0  0  0  0  0  0  0  0
    9.7576   45.4566  134.0172 C   0  0  0  0  0  0  0  0  0  0  0  0
   10.0202   44.5091  132.9148 C   0  0  0  0  0  0  0  0  0  0  0  0
    9.0494   45.9360  138.1183 H   0  0  0  0  0  0  0  0  0  0  0  0
    9.8918   42.7785  126.5228 O   0  0  0  0  0  0  0  0  0  0  0  0
    9.8188   43.3666  127.7919 C   0  0  0  0  0  0  0  0  0  0  0  0
    8.8713   42.9803  128.7148 C   0  0  0  0  0  0  0  0  0  0  0  0
    8.8131   43.5697  129.9578 C   0  0  0  0  0  0  0  0  0  0  0  0
    9.6998   44.5820  130.3539 C   0  0  0  0  0  0  0  0  0  0  0  0
   10.6335   44.9413  129.4043 C   0  0  0  0  0  0  0  0  0  0  0  0
   10.6980   44.3582  128.1628 C   0  0  0  0  0  0  0  0  0  0  0  0
    9.3772   43.1493  125.7201 H   0  0  0  0  0  0  0  0  0  0  0  0
    8.6502   47.4224  131.0813 C   0  0  0  0  0  0  0  0  0  0  0  0
    7.5563   47.2169  130.2390 C   0  0  0  0  0  0  0  0  0  0  0  0
    7.0655   48.1934  129.4317 C   0  0  0  0  0  0  0  0  0  0  0  0
    7.6255   49.4468  129.4008 C   0  0  0  0  0  0  0  0  0  0  0  0
    7.0859   50.4059  128.5616 O   0  0  0  0  0  0  0  0  0  0  0  0
    8.7010   49.6919  130.2094 C   0  0  0  0  0  0  0  0  0  0  0  0
    9.2006   48.6856  131.0368 C   0  0  0  0  0  0  0  0  0  0  0  0
    6.3043   50.2102  127.9809 H   0  0  0  0  0  0  0  0  0  0  0  0
 12 13  1  0  0  0
 13 14  2  0  0  0
 14 15  1  0  0  0
 15 16  2  0  0  0
 16 17  1  0  0  0
 17 18  2  0  0  0
 16  1  1  0  0  0
  1  2  2  0  0  0
  2  3  1  0  0  0
  3  4  2  0  0  0
  4  5  1  0  0  0
  5  6  2  0  0  0
  6  7  1  0  0  0
  6  8  1  0  0  0
  8  9  2  0  0  0
  9 10  1  0  0  0
  2 20  1  0  0  0
 20 21  2  0  0  0
 21 22  1  0  0  0
 22 23  2  0  0  0
 23 24  1  0  0  0
 23 25  1  0  0  0
 25 26  2  0  0  0
 18 13  1  0  0  0
 10  1  1  0  0  0
 26 20  1  0  0  0
  9  3  1  0  0  0
 12 19  1  0  0  0
  7 11  1  0  0  0
 24 27  1  0  0  0
M  END
> <minimizedAffinity>
-1.54015

> <CNNscore>
0.4755525291

> <CNNaffinity>
7.8812608719

> <CNN_VS>
3.7479536533

> <CNNaffinity_variance>
2.9527828693

$$$$
[H]Oc1c([H])c([H])c(C2=C(c3c([H])c([H])c(O[H])c([H])c3[H])C([H])([H])c3c([H])c(O[H])c([H])c([H])c32)c([H])c1[H]


 27 30  0  0  0  0  0  0  0  0999 V2000
    9.1681   46.0209  130.7450 C   0  0  0  0  0  0  0  0  0  0  0  0
    9.2554   45.7053  132.0092 C   0  0  0  0  0  0  0  0  0  0  0  0
    9.8356   44.3496  132.1434 C   0  0  0  0  0  0  0  0  0  0  0  0
   10.1557   43.5238  133.1935 C   0  0  0  0  0  0  0  0  0  0  0  0
   10.7051   42.2724  133.0305 C   0  0  0  0  0  0  0  0  0  0  0  0
   10.9579   41.7977  131.7698 C   0  0  0  0  0  0  0  0  0  0  0  0
   11.5204   40.5195  131.5734 O   0  0  0  0  0  0  0  0  0  0  0  0
   10.6514   42.5960  130.6916 C   0  0  0  0  0  0  0  0  0  0  0  0
   10.1028   43.8425  130.8794 C   0  0  0  0  0  0  0  0  0  0  0  0
    9.6847   44.8903  129.9257 C   0  0  0  0  0  0  0  0  0  0  0  0
   10.8594   39.7664  131.4815 H   0  0  0  0  0  0  0  0  0  0  0  0
    7.0714   50.8047  128.4945 O   0  0  0  0  0  0  0  0  0  0  0  0
    7.5860   49.6228  129.0421 C   0  0  0  0  0  0  0  0  0  0  0  0
    6.9059   48.4278  128.9525 C   0  0  0  0  0  0  0  0  0  0  0  0
    7.4261   47.2753  129.4974 C   0  0  0  0  0  0  0  0  0  0  0  0
    8.6593   47.2477  130.1655 C   0  0  0  0  0  0  0  0  0  0  0  0
    9.3104   48.4617  130.2346 C   0  0  0  0  0  0  0  0  0  0  0  0
    8.7982   49.6152  129.6937 C   0  0  0  0  0  0  0  0  0  0  0  0
    6.4719   51.4375  129.0301 H   0  0  0  0  0  0  0  0  0  0  0  0
    8.9089   46.4904  133.1759 C   0  0  0  0  0  0  0  0  0  0  0  0
    9.1898   47.8554  133.2537 C   0  0  0  0  0  0  0  0  0  0  0  0
    8.8428   48.6100  134.3290 C   0  0  0  0  0  0  0  0  0  0  0  0
    8.1912   48.0642  135.4075 C   0  0  0  0  0  0  0  0  0  0  0  0
    7.8589   48.8776  136.4768 O   0  0  0  0  0  0  0  0  0  0  0  0
    7.8974   46.7289  135.3744 C   0  0  0  0  0  0  0  0  0  0  0  0
    8.2557   45.9588  134.2673 C   0  0  0  0  0  0  0  0  0  0  0  0
    8.0802   49.8457  136.4837 H   0  0  0  0  0  0  0  0  0  0  0  0
 12 13  1  0  0  0
 13 14  2  0  0  0
 14 15  1  0  0  0
 15 16  2  0  0  0
 16 17  1  0  0  0
 17 18  2  0  0  0
 16  1  1  0  0  0
  1  2  2  0  0  0
  2  3  1  0  0  0
  3  4  2  0  0  0
  4  5  1  0  0  0
  5  6  2  0  0  0
  6  7  1  0  0  0
  6  8  1  0  0  0
  8  9  2  0  0  0
  9 10  1  0  0  0
  2 20  1  0  0  0
 20 21  2  0  0  0
 21 22  1  0  0  0
 22 23  2  0  0  0
 23 24  1  0  0  0
 23 25  1  0  0  0
 25 26  2  0  0  0
 18 13  1  0  0  0
 10  1  1  0  0  0
 26 20  1  0  0  0
  9  3  1  0  0  0
 12 19  1  0  0  0
  7 11  1  0  0  0
 24 27  1  0  0  0
M  END
> <minimizedAffinity>
-1.23346

> <CNNscore>
0.4742512703

> <CNNaffinity>
7.5651869774

> <CNN_VS>
3.5877995491

> <CNNaffinity_variance>
1.7998899221

$$$$
[H]Oc1c([H])c([H])c(C2=C(c3c([H])c([H])c(O[H])c([H])c3[H])C([H])([H])c3c([H])c(O[H])c([H])c([H])c32)c([H])c1[H]


 27 30  0  0  0  0  0  0  0  0999 V2000
    9.9138   46.8642  131.6421 C   0  0  0  0  0  0  0  0  0  0  0  0
   10.2595   45.6938  131.1772 C   0  0  0  0  0  0  0  0  0  0  0  0
   11.1390   45.0119  132.1539 C   0  0  0  0  0  0  0  0  0  0  0  0
   11.7834   43.7999  132.2081 C   0  0  0  0  0  0  0  0  0  0  0  0
   12.5611   43.4044  133.2726 C   0  0  0  0  0  0  0  0  0  0  0  0
   12.7199   44.2390  134.3482 C   0  0  0  0  0  0  0  0  0  0  0  0
   13.5107   43.8595  135.4525 O   0  0  0  0  0  0  0  0  0  0  0  0
   12.0896   45.4621  134.3316 C   0  0  0  0  0  0  0  0  0  0  0  0
   11.3181   45.8355  133.2566 C   0  0  0  0  0  0  0  0  0  0  0  0
   10.5424   47.0612  132.9772 C   0  0  0  0  0  0  0  0  0  0  0  0
   14.4824   44.1147  135.3958 H   0  0  0  0  0  0  0  0  0  0  0  0
    6.5020   50.7020  129.1973 O   0  0  0  0  0  0  0  0  0  0  0  0
    7.3423   49.7527  129.7927 C   0  0  0  0  0  0  0  0  0  0  0  0
    7.0993   48.4009  129.6823 C   0  0  0  0  0  0  0  0  0  0  0  0
    7.9354   47.4812  130.2748 C   0  0  0  0  0  0  0  0  0  0  0  0
    9.0663   47.8579  131.0145 C   0  0  0  0  0  0  0  0  0  0  0  0
    9.2768   49.2183  131.1025 C   0  0  0  0  0  0  0  0  0  0  0  0
    8.4478   50.1414  130.5143 C   0  0  0  0  0  0  0  0  0  0  0  0
    5.6966   51.1000  129.6868 H   0  0  0  0  0  0  0  0  0  0  0  0
    9.8735   45.0488  129.9393 C   0  0  0  0  0  0  0  0  0  0  0  0
   10.5454   45.2953  128.7410 C   0  0  0  0  0  0  0  0  0  0  0  0
   10.2135   44.6741  127.5791 C   0  0  0  0  0  0  0  0  0  0  0  0
    9.1887   43.7619  127.5213 C   0  0  0  0  0  0  0  0  0  0  0  0
    8.8926   43.1561  126.3126 O   0  0  0  0  0  0  0  0  0  0  0  0
    8.5018   43.4909  128.6725 C   0  0  0  0  0  0  0  0  0  0  0  0
    8.8472   44.1315  129.8630 C   0  0  0  0  0  0  0  0  0  0  0  0
    9.4022   43.3651  125.4863 H   0  0  0  0  0  0  0  0  0  0  0  0
 12 13  1  0  0  0
 13 14  2  0  0  0
 14 15  1  0  0  0
 15 16  2  0  0  0
 16 17  1  0  0  0
 17 18  2  0  0  0
 16  1  1  0  0  0
  1  2  2  0  0  0
  2  3  1  0  0  0
  3  4  2  0  0  0
  4  5  1  0  0  0
  5  6  2  0  0  0
  6  7  1  0  0  0
  6  8  1  0  0  0
  8  9  2  0  0  0
  9 10  1  0  0  0
  2 20  1  0  0  0
 20 21  2  0  0  0
 21 22  1  0  0  0
 22 23  2  0  0  0
 23 24  1  0  0  0
 23 25  1  0  0  0
 25 26  2  0  0  0
 18 13  1  0  0  0
 10  1  1  0  0  0
 26 20  1  0  0  0
  9  3  1  0  0  0
 12 19  1  0  0  0
  7 11  1  0  0  0
 24 27  1  0  0  0
M  END
> <minimizedAffinity>
-2.95298

> <CNNscore>
0.4727824032

> <CNNaffinity>
7.6290459633

> <CNN_VS>
3.6068787575

> <CNNaffinity_variance>
2.2736983299

$$$$
[H]Oc1c([H])c([H])c(C2=C(c3c([H])c([H])c(O[H])c([H])c3[H])C([H])([H])c3c([H])c(O[H])c([H])c([H])c32)c([H])c1[H]


 27 30  0  0  0  0  0  0  0  0999 V2000
    9.9024   45.4155  131.8536 C   0  0  0  0  0  0  0  0  0  0  0  0
    9.3788   44.3115  131.3927 C   0  0  0  0  0  0  0  0  0  0  0  0
    9.7441   44.1462  129.9674 C   0  0  0  0  0  0  0  0  0  0  0  0
    9.4924   43.2069  128.9972 C   0  0  0  0  0  0  0  0  0  0  0  0
    9.9736   43.3009  127.7111 C   0  0  0  0  0  0  0  0  0  0  0  0
   10.7462   44.3736  127.3491 C   0  0  0  0  0  0  0  0  0  0  0  0
   11.2527   44.4956  126.0386 O   0  0  0  0  0  0  0  0  0  0  0  0
   11.0212   45.3360  128.2934 C   0  0  0  0  0  0  0  0  0  0  0  0
   10.5289   45.2205  129.5719 C   0  0  0  0  0  0  0  0  0  0  0  0
   10.6639   46.0839  130.7628 C   0  0  0  0  0  0  0  0  0  0  0  0
   10.6610   44.9888  125.3911 H   0  0  0  0  0  0  0  0  0  0  0  0
    9.3813   47.5691  137.0916 O   0  0  0  0  0  0  0  0  0  0  0  0
    9.5095   47.0460  135.7987 C   0  0  0  0  0  0  0  0  0  0  0  0
    8.7126   47.4783  134.7610 C   0  0  0  0  0  0  0  0  0  0  0  0
    8.8515   46.9525  133.4960 C   0  0  0  0  0  0  0  0  0  0  0  0
    9.7966   45.9616  133.1917 C   0  0  0  0  0  0  0  0  0  0  0  0
   10.5755   45.5548  134.2549 C   0  0  0  0  0  0  0  0  0  0  0  0
   10.4431   46.0744  135.5190 C   0  0  0  0  0  0  0  0  0  0  0  0
    8.7519   47.1582  137.7857 H   0  0  0  0  0  0  0  0  0  0  0  0
    8.5863   43.3149  132.0830 C   0  0  0  0  0  0  0  0  0  0  0  0
    8.7407   43.0692  133.4483 C   0  0  0  0  0  0  0  0  0  0  0  0
    7.9828   42.1593  134.1145 C   0  0  0  0  0  0  0  0  0  0  0  0
    7.0153   41.4254  133.4735 C   0  0  0  0  0  0  0  0  0  0  0  0
    6.2698   40.5127  134.1992 O   0  0  0  0  0  0  0  0  0  0  0  0
    6.8309   41.6329  132.1343 C   0  0  0  0  0  0  0  0  0  0  0  0
    7.6118   42.5689  131.4552 C   0  0  0  0  0  0  0  0  0  0  0  0
    6.4174   40.3750  135.1716 H   0  0  0  0  0  0  0  0  0  0  0  0
 12 13  1  0  0  0
 13 14  2  0  0  0
 14 15  1  0  0  0
 15 16  2  0  0  0
 16 17  1  0  0  0
 17 18  2  0  0  0
 16  1  1  0  0  0
  1  2  2  0  0  0
  2  3  1  0  0  0
  3  4  2  0  0  0
  4  5  1  0  0  0
  5  6  2  0  0  0
  6  7  1  0  0  0
  6  8  1  0  0  0
  8  9  2  0  0  0
  9 10  1  0  0  0
  2 20  1  0  0  0
 20 21  2  0  0  0
 21 22  1  0  0  0
 22 23  2  0  0  0
 23 24  1  0  0  0
 23 25  1  0  0  0
 25 26  2  0  0  0
 18 13  1  0  0  0
 10  1  1  0  0  0
 26 20  1  0  0  0
  9  3  1  0  0  0
 12 19  1  0  0  0
  7 11  1  0  0  0
 24 27  1  0  0  0
M  END
> <minimizedAffinity>
9.79314

> <CNNscore>
0.4433627129

> <CNNaffinity>
6.9806466103

> <CNN_VS>
3.0949583054

> <CNNaffinity_variance>
2.7682967186

$$$$
[H]Oc1c([H])c([H])c(C2=C(c3c([H])c([H])c(O[H])c([H])c3[H])C([H])([H])c3c([H])c(O[H])c([H])c([H])c32)c([H])c1[H]


 27 30  0  0  0  0  0  0  0  0999 V2000
    9.5746   45.4444  131.8032 C   0  0  0  0  0  0  0  0  0  0  0  0
    9.2267   45.9961  130.6718 C   0  0  0  0  0  0  0  0  0  0  0  0
    9.4006   45.0218  129.5704 C   0  0  0  0  0  0  0  0  0  0  0  0
    9.1983   45.0373  128.2118 C   0  0  0  0  0  0  0  0  0  0  0  0
    9.4470   43.9553  127.3983 C   0  0  0  0  0  0  0  0  0  0  0  0
    9.9204   42.7890  127.9408 C   0  0  0  0  0  0  0  0  0  0  0  0
   10.1838   41.6648  127.1311 O   0  0  0  0  0  0  0  0  0  0  0  0
   10.1355   42.7339  129.2988 C   0  0  0  0  0  0  0  0  0  0  0  0
    9.8801   43.8281  130.0912 C   0  0  0  0  0  0  0  0  0  0  0  0
   10.0155   44.0458  131.5459 C   0  0  0  0  0  0  0  0  0  0  0  0
   11.1175   41.6088  126.7604 H   0  0  0  0  0  0  0  0  0  0  0  0
    9.4639   47.6934  137.0258 O   0  0  0  0  0  0  0  0  0  0  0  0
    9.4842   47.1428  135.7381 C   0  0  0  0  0  0  0  0  0  0  0  0
    8.3858   46.5016  135.2080 C   0  0  0  0  0  0  0  0  0  0  0  0
    8.4234   45.9652  133.9404 C   0  0  0  0  0  0  0  0  0  0  0  0
    9.5627   46.0376  133.1252 C   0  0  0  0  0  0  0  0  0  0  0  0
   10.6411   46.6866  133.6895 C   0  0  0  0  0  0  0  0  0  0  0  0
   10.6113   47.2242  134.9526 C   0  0  0  0  0  0  0  0  0  0  0  0
    9.7392   47.1568  137.8522 H   0  0  0  0  0  0  0  0  0  0  0  0
    8.7042   47.3235  130.4218 C   0  0  0  0  0  0  0  0  0  0  0  0
    7.4218   47.5245  129.9088 C   0  0  0  0  0  0  0  0  0  0  0  0
    6.9079   48.7646  129.6984 C   0  0  0  0  0  0  0  0  0  0  0  0
    7.6303   49.8974  129.9819 C   0  0  0  0  0  0  0  0  0  0  0  0
    7.0592   51.1367  129.7506 O   0  0  0  0  0  0  0  0  0  0  0  0
    8.8931   49.7471  130.4852 C   0  0  0  0  0  0  0  0  0  0  0  0
    9.4157   48.4712  130.6996 C   0  0  0  0  0  0  0  0  0  0  0  0
    6.1405   51.2271  129.3845 H   0  0  0  0  0  0  0  0  0  0  0  0
 12 13  1  0  0  0
 13 14  2  0  0  0
 14 15  1  0  0  0
 15 16  2  0  0  0
 16 17  1  0  0  0
 17 18  2  0  0  0
 16  1  1  0  0  0
  1  2  2  0  0  0
  2  3  1  0  0  0
  3  4  2  0  0  0
  4  5  1  0  0  0
  5  6  2  0  0  0
  6  7  1  0  0  0
  6  8  1  0  0  0
  8  9  2  0  0  0
  9 10  1  0  0  0
  2 20  1  0  0  0
 20 21  2  0  0  0
 21 22  1  0  0  0
 22 23  2  0  0  0
 23 24  1  0  0  0
 23 25  1  0  0  0
 25 26  2  0  0  0
 18 13  1  0  0  0
 10  1  1  0  0  0
 26 20  1  0  0  0
  9  3  1  0  0  0
 12 19  1  0  0  0
  7 11  1  0  0  0
 24 27  1  0  0  0
M  END
> <minimizedAffinity>
-1.22824

> <CNNscore>
0.4192741811

> <CNNaffinity>
7.5086655617

> <CNN_VS>
3.1481895447

> <CNNaffinity_variance>
2.3762004375

$$$$
[H]Oc1c([H])c([H])c(C2=C(c3c([H])c([H])c(O[H])c([H])c3[H])C([H])([H])c3c([H])c(O[H])c([H])c([H])c32)c([H])c1[H]


 27 30  0  0  0  0  0  0  0  0999 V2000
   10.6118   43.9458  131.3888 C   0  0  0  0  0  0  0  0  0  0  0  0
    9.7713   44.8163  131.8798 C   0  0  0  0  0  0  0  0  0  0  0  0
    8.7563   44.1176  132.7009 C   0  0  0  0  0  0  0  0  0  0  0  0
    7.6647   44.5028  133.4405 C   0  0  0  0  0  0  0  0  0  0  0  0
    6.8692   43.6171  134.1313 C   0  0  0  0  0  0  0  0  0  0  0  0
    7.1545   42.2768  134.0998 C   0  0  0  0  0  0  0  0  0  0  0  0
    6.3566   41.3470  134.7982 O   0  0  0  0  0  0  0  0  0  0  0  0
    8.2408   41.8516  133.3700 C   0  0  0  0  0  0  0  0  0  0  0  0
    9.0206   42.7552  132.6877 C   0  0  0  0  0  0  0  0  0  0  0  0
   10.2209   42.5833  131.8440 C   0  0  0  0  0  0  0  0  0  0  0  0
    5.5832   40.9661  134.2794 H   0  0  0  0  0  0  0  0  0  0  0  0
   15.1533   44.8505  128.0868 O   0  0  0  0  0  0  0  0  0  0  0  0
   14.0379   44.6326  128.9053 C   0  0  0  0  0  0  0  0  0  0  0  0
   14.1689   44.3664  130.2509 C   0  0  0  0  0  0  0  0  0  0  0  0
   13.0614   44.1537  131.0410 C   0  0  0  0  0  0  0  0  0  0  0  0
   11.7545   44.1944  130.5330 C   0  0  0  0  0  0  0  0  0  0  0  0
   11.6635   44.4638  129.1832 C   0  0  0  0  0  0  0  0  0  0  0  0
   12.7630   44.6771  128.3889 C   0  0  0  0  0  0  0  0  0  0  0  0
   15.6258   44.0878  127.5953 H   0  0  0  0  0  0  0  0  0  0  0  0
    9.7602   46.2580  131.7426 C   0  0  0  0  0  0  0  0  0  0  0  0
    9.2276   46.8853  130.6152 C   0  0  0  0  0  0  0  0  0  0  0  0
    9.1829   48.2372  130.4872 C   0  0  0  0  0  0  0  0  0  0  0  0
    9.6647   49.0666  131.4698 C   0  0  0  0  0  0  0  0  0  0  0  0
    9.5935   50.4371  131.2902 O   0  0  0  0  0  0  0  0  0  0  0  0
   10.1973   48.4943  132.5919 C   0  0  0  0  0  0  0  0  0  0  0  0
   10.2403   47.1053  132.7184 C   0  0  0  0  0  0  0  0  0  0  0  0
    9.2033   50.8355  130.4684 H   0  0  0  0  0  0  0  0  0  0  0  0
 12 13  1  0  0  0
 13 14  2  0  0  0
 14 15  1  0  0  0
 15 16  2  0  0  0
 16 17  1  0  0  0
 17 18  2  0  0  0
 16  1  1  0  0  0
  1  2  2  0  0  0
  2  3  1  0  0  0
  3  4  2  0  0  0
  4  5  1  0  0  0
  5  6  2  0  0  0
  6  7  1  0  0  0
  6  8  1  0  0  0
  8  9  2  0  0  0
  9 10  1  0  0  0
  2 20  1  0  0  0
 20 21  2  0  0  0
 21 22  1  0  0  0
 22 23  2  0  0  0
 23 24  1  0  0  0
 23 25  1  0  0  0
 25 26  2  0  0  0
 18 13  1  0  0  0
 10  1  1  0  0  0
 26 20  1  0  0  0
  9  3  1  0  0  0
 12 19  1  0  0  0
  7 11  1  0  0  0
 24 27  1  0  0  0
M  END
> <minimizedAffinity>
9.40827

> <CNNscore>
0.4023659527

> <CNNaffinity>
7.1770982742

> <CNN_VS>
2.8878200054

> <CNNaffinity_variance>
3.5804858208

$$$$
[H]Oc1c([H])c([H])c(C2=C(c3c([H])c([H])c(O[H])c([H])c3[H])C([H])([H])c3c([H])c(O[H])c([H])c([H])c32)c([H])c1[H]


 27 30  0  0  0  0  0  0  0  0999 V2000
    9.4959   47.0910  131.9141 C   0  0  0  0  0  0  0  0  0  0  0  0
    9.1829   46.8780  130.6643 C   0  0  0  0  0  0  0  0  0  0  0  0
    8.5184   48.0784  130.1076 C   0  0  0  0  0  0  0  0  0  0  0  0
    7.9919   48.4257  128.8873 C   0  0  0  0  0  0  0  0  0  0  0  0
    7.4171   49.6502  128.6330 C   0  0  0  0  0  0  0  0  0  0  0  0
    7.3518   50.5922  129.6266 C   0  0  0  0  0  0  0  0  0  0  0  0
    6.7686   51.8550  129.3941 O   0  0  0  0  0  0  0  0  0  0  0  0
    7.8691   50.2819  130.8634 C   0  0  0  0  0  0  0  0  0  0  0  0
    8.4382   49.0518  131.0937 C   0  0  0  0  0  0  0  0  0  0  0  0
    9.0593   48.4618  132.2971 C   0  0  0  0  0  0  0  0  0  0  0  0
    5.7815   51.9156  129.5800 H   0  0  0  0  0  0  0  0  0  0  0  0
   11.9897   43.4926  135.5444 O   0  0  0  0  0  0  0  0  0  0  0  0
   11.3730   44.3831  134.6565 C   0  0  0  0  0  0  0  0  0  0  0  0
   10.0821   44.8230  134.8530 C   0  0  0  0  0  0  0  0  0  0  0  0
    9.4908   45.6980  133.9694 C   0  0  0  0  0  0  0  0  0  0  0  0
   10.1552   46.1867  132.8346 C   0  0  0  0  0  0  0  0  0  0  0  0
   11.4446   45.7246  132.6719 C   0  0  0  0  0  0  0  0  0  0  0  0
   12.0412   44.8522  133.5486 C   0  0  0  0  0  0  0  0  0  0  0  0
   11.9329   42.4780  135.4258 H   0  0  0  0  0  0  0  0  0  0  0  0
    9.4322   45.7114  129.8430 C   0  0  0  0  0  0  0  0  0  0  0  0
    8.6173   44.5800  129.9059 C   0  0  0  0  0  0  0  0  0  0  0  0
    8.8214   43.4911  129.1193 C   0  0  0  0  0  0  0  0  0  0  0  0
    9.8509   43.4452  128.2118 C   0  0  0  0  0  0  0  0  0  0  0  0
   10.0136   42.3125  127.4334 O   0  0  0  0  0  0  0  0  0  0  0  0
   10.6756   44.5322  128.1176 C   0  0  0  0  0  0  0  0  0  0  0  0
   10.4611   45.6480  128.9277 C   0  0  0  0  0  0  0  0  0  0  0  0
    9.4049   41.5321  127.5152 H   0  0  0  0  0  0  0  0  0  0  0  0
 12 13  1  0  0  0
 13 14  2  0  0  0
 14 15  1  0  0  0
 15 16  2  0  0  0
 16 17  1  0  0  0
 17 18  2  0  0  0
 16  1  1  0  0  0
  1  2  2  0  0  0
  2  3  1  0  0  0
  3  4  2  0  0  0
  4  5  1  0  0  0
  5  6  2  0  0  0
  6  7  1  0  0  0
  6  8  1  0  0  0
  8  9  2  0  0  0
  9 10  1  0  0  0
  2 20  1  0  0  0
 20 21  2  0  0  0
 21 22  1  0  0  0
 22 23  2  0  0  0
 23 24  1  0  0  0
 23 25  1  0  0  0
 25 26  2  0  0  0
 18 13  1  0  0  0
 10  1  1  0  0  0
 26 20  1  0  0  0
  9  3  1  0  0  0
 12 19  1  0  0  0
  7 11  1  0  0  0
 24 27  1  0  0  0
M  END
> <minimizedAffinity>
-9.59886

> <CNNscore>
0.3452700973

> <CNNaffinity>
7.2953405380

> <CNN_VS>
2.5188629627

> <CNNaffinity_variance>
0.4817389548

$$$$
[H]Oc1c([H])c([H])c(C2=C(c3c([H])c([H])c(O[H])c([H])c3[H])C([H])([H])c3c([H])c(O[H])c([H])c([H])c32)c([H])c1[H]


 27 30  0  0  0  0  0  0  0  0999 V2000
    8.4155   45.5936  130.4350 C   0  0  0  0  0  0  0  0  0  0  0  0
    9.3011   45.8855  131.3493 C   0  0  0  0  0  0  0  0  0  0  0  0
   10.0760   44.6720  131.6949 C   0  0  0  0  0  0  0  0  0  0  0  0
   11.1051   44.3832  132.5578 C   0  0  0  0  0  0  0  0  0  0  0  0
   11.6585   43.1290  132.6812 C   0  0  0  0  0  0  0  0  0  0  0  0
   11.1812   42.0951  131.9183 C   0  0  0  0  0  0  0  0  0  0  0  0
   11.7294   40.8001  132.0239 O   0  0  0  0  0  0  0  0  0  0  0  0
   10.1507   42.3448  131.0412 C   0  0  0  0  0  0  0  0  0  0  0  0
    9.6136   43.6060  130.9358 C   0  0  0  0  0  0  0  0  0  0  0  0
    8.5266   44.1484  130.0954 C   0  0  0  0  0  0  0  0  0  0  0  0
   11.2946   40.2014  132.7058 H   0  0  0  0  0  0  0  0  0  0  0  0
    4.5748   49.0695  128.0868 O   0  0  0  0  0  0  0  0  0  0  0  0
    5.5159   48.2074  128.6638 C   0  0  0  0  0  0  0  0  0  0  0  0
    5.1519   47.2550  129.5907 C   0  0  0  0  0  0  0  0  0  0  0  0
    6.0904   46.4160  130.1486 C   0  0  0  0  0  0  0  0  0  0  0  0
    7.4511   46.4786  129.8133 C   0  0  0  0  0  0  0  0  0  0  0  0
    7.7768   47.4433  128.8828 C   0  0  0  0  0  0  0  0  0  0  0  0
    6.8467   48.2834  128.3218 C   0  0  0  0  0  0  0  0  0  0  0  0
    4.3416   49.9762  128.4993 H   0  0  0  0  0  0  0  0  0  0  0  0
    9.5933   47.1620  131.9679 C   0  0  0  0  0  0  0  0  0  0  0  0
    9.7847   48.3191  131.2113 C   0  0  0  0  0  0  0  0  0  0  0  0
   10.0290   49.5287  131.7799 C   0  0  0  0  0  0  0  0  0  0  0  0
   10.1017   49.6784  133.1429 C   0  0  0  0  0  0  0  0  0  0  0  0
   10.3512   50.9332  133.6711 O   0  0  0  0  0  0  0  0  0  0  0  0
    9.9217   48.5698  133.9233 C   0  0  0  0  0  0  0  0  0  0  0  0
    9.6707   47.3301  133.3340 C   0  0  0  0  0  0  0  0  0  0  0  0
   10.4794   51.7275  133.0890 H   0  0  0  0  0  0  0  0  0  0  0  0
 12 13  1  0  0  0
 13 14  2  0  0  0
 14 15  1  0  0  0
 15 16  2  0  0  0
 16 17  1  0  0  0
 17 18  2  0  0  0
 16  1  1  0  0  0
  1  2  2  0  0  0
  2  3  1  0  0  0
  3  4  2  0  0  0
  4  5  1  0  0  0
  5  6  2  0  0  0
  6  7  1  0  0  0
  6  8  1  0  0  0
  8  9  2  0  0  0
  9 10  1  0  0  0
  2 20  1  0  0  0
 20 21  2  0  0  0
 21 22  1  0  0  0
 22 23  2  0  0  0
 23 24  1  0  0  0
 23 25  1  0  0  0
 25 26  2  0  0  0
 18 13  1  0  0  0
 10  1  1  0  0  0
 26 20  1  0  0  0
  9  3  1  0  0  0
 12 19  1  0  0  0
  7 11  1  0  0  0
 24 27  1  0  0  0
M  END
> <minimizedAffinity>
-3.54797

> <CNNscore>
0.3246715963

> <CNNaffinity>
7.0488801003

> <CNN_VS>
2.2885711193

> <CNNaffinity_variance>
0.7267505527

$$$$
[H]Oc1c([H])c([H])c(-c2nc3c([H])c(O[H])c([H])c(C#N)c3o2)c([H])c1[H]


 21 23  0  0  0  0  0  0  0  0999 V2000
    9.5342   46.9584  130.9332 C   0  0  0  0  0  0  0  0  0  0  0  0
   10.6484   46.9472  131.6832 N   0  0  0  0  0  0  0  0  0  0  0  0
   10.9885   45.6790  131.9261 C   0  0  0  0  0  0  0  0  0  0  0  0
   11.9993   45.0332  132.6136 C   0  0  0  0  0  0  0  0  0  0  0  0
   12.0475   43.6439  132.6613 C   0  0  0  0  0  0  0  0  0  0  0  0
   13.0685   43.0006  133.3556 O   0  0  0  0  0  0  0  0  0  0  0  0
   11.0892   42.8776  132.0248 C   0  0  0  0  0  0  0  0  0  0  0  0
   10.0751   43.5207  131.3351 C   0  0  0  0  0  0  0  0  0  0  0  0
   10.0355   44.8930  131.2934 C   0  0  0  0  0  0  0  0  0  0  0  0
    9.1857   45.7151  130.7123 O   0  0  0  0  0  0  0  0  0  0  0  0
   13.7711   43.5450  133.8225 H   0  0  0  0  0  0  0  0  0  0  0  0
    6.6713   51.3144  128.8981 O   0  0  0  0  0  0  0  0  0  0  0  0
    7.3917   50.2224  129.4127 C   0  0  0  0  0  0  0  0  0  0  0  0
    8.0552   50.3889  130.6106 C   0  0  0  0  0  0  0  0  0  0  0  0
    8.7622   49.3006  131.1055 C   0  0  0  0  0  0  0  0  0  0  0  0
    8.7959   48.1061  130.4235 C   0  0  0  0  0  0  0  0  0  0  0  0
    8.1298   47.9530  129.2294 C   0  0  0  0  0  0  0  0  0  0  0  0
    7.4253   49.0258  128.7288 C   0  0  0  0  0  0  0  0  0  0  0  0
    5.6889   51.3626  129.2027 H   0  0  0  0  0  0  0  0  0  0  0  0
    9.0348   42.7910  130.6431 C   0  0  0  0  0  0  0  0  0  0  0  0
    8.1904   42.2171  130.1024 N   0  0  0  0  0  0  0  0  0  0  0  0
 12 13  1  0  0  0
 13 14  2  0  0  0
 14 15  1  0  0  0
 15 16  2  0  0  0
 16 17  1  0  0  0
 17 18  2  0  0  0
 16  1  1  0  0  0
  1  2  2  0  0  0
  2  3  1  0  0  0
  3  4  2  0  0  0
  4  5  1  0  0  0
  5  6  1  0  0  0
  5  7  2  0  0  0
  7  8  1  0  0  0
  8 20  1  0  0  0
 20 21  3  0  0  0
  8  9  2  0  0  0
  9 10  1  0  0  0
 18 13  1  0  0  0
 10  1  1  0  0  0
  9  3  1  0  0  0
 12 19  1  0  0  0
  6 11  1  0  0  0
M  END
> <minimizedAffinity>
-9.19136

> <CNNscore>
0.6767854095

> <CNNaffinity>
6.9998140335

> <CNN_VS>
4.7373719215

> <CNNaffinity_variance>
0.5935888290

$$$$
[H]Oc1c([H])c([H])c(-c2nc3c([H])c(O[H])c([H])c(C#N)c3o2)c([H])c1[H]


 21 23  0  0  0  0  0  0  0  0999 V2000
    9.1983   46.3856  130.6588 C   0  0  0  0  0  0  0  0  0  0  0  0
    8.9850   45.1323  130.2253 N   0  0  0  0  0  0  0  0  0  0  0  0
    9.7552   44.2988  130.9289 C   0  0  0  0  0  0  0  0  0  0  0  0
    9.9815   42.9351  130.9557 C   0  0  0  0  0  0  0  0  0  0  0  0
   10.8895   42.3858  131.8549 C   0  0  0  0  0  0  0  0  0  0  0  0
   11.1122   41.0116  131.8760 O   0  0  0  0  0  0  0  0  0  0  0  0
   11.5855   43.1870  132.7405 C   0  0  0  0  0  0  0  0  0  0  0  0
   11.3616   44.5534  132.7168 C   0  0  0  0  0  0  0  0  0  0  0  0
   10.4631   45.0870  131.8255 C   0  0  0  0  0  0  0  0  0  0  0  0
   10.0885   46.3330  131.6184 O   0  0  0  0  0  0  0  0  0  0  0  0
   10.6134   40.4179  131.2382 H   0  0  0  0  0  0  0  0  0  0  0  0
    6.8886   51.1847  128.9425 O   0  0  0  0  0  0  0  0  0  0  0  0
    7.4670   49.9770  129.3703 C   0  0  0  0  0  0  0  0  0  0  0  0
    7.2224   48.8409  128.6272 C   0  0  0  0  0  0  0  0  0  0  0  0
    7.8012   47.6559  129.0632 C   0  0  0  0  0  0  0  0  0  0  0  0
    8.5865   47.6226  130.1925 C   0  0  0  0  0  0  0  0  0  0  0  0
    8.8227   48.7631  130.9250 C   0  0  0  0  0  0  0  0  0  0  0  0
    8.2538   49.9442  130.5021 C   0  0  0  0  0  0  0  0  0  0  0  0
    7.4687   51.7314  128.2908 H   0  0  0  0  0  0  0  0  0  0  0  0
   12.0496   45.4596  133.6107 C   0  0  0  0  0  0  0  0  0  0  0  0
   12.6050   46.1674  134.3354 N   0  0  0  0  0  0  0  0  0  0  0  0
 12 13  1  0  0  0
 13 14  2  0  0  0
 14 15  1  0  0  0
 15 16  2  0  0  0
 16 17  1  0  0  0
 17 18  2  0  0  0
 16  1  1  0  0  0
  1  2  2  0  0  0
  2  3  1  0  0  0
  3  4  2  0  0  0
  4  5  1  0  0  0
  5  6  1  0  0  0
  5  7  2  0  0  0
  7  8  1  0  0  0
  8 20  1  0  0  0
 20 21  3  0  0  0
  8  9  2  0  0  0
  9 10  1  0  0  0
 18 13  1  0  0  0
 10  1  1  0  0  0
  9  3  1  0  0  0
 12 19  1  0  0  0
  6 11  1  0  0  0
M  END
> <minimizedAffinity>
-7.36049

> <CNNscore>
0.6050026417

> <CNNaffinity>
6.8645067215

> <CNN_VS>
4.1530447006

> <CNNaffinity_variance>
1.0801426172

$$$$
[H]Oc1c([H])c([H])c(-c2nc3c([H])c(O[H])c([H])c(C#N)c3o2)c([H])c1[H]


 21 23  0  0  0  0  0  0  0  0999 V2000
    9.0101   46.7272  130.8173 C   0  0  0  0  0  0  0  0  0  0  0  0
    9.4020   45.6238  130.1592 N   0  0  0  0  0  0  0  0  0  0  0  0
    9.8681   44.7397  131.0448 C   0  0  0  0  0  0  0  0  0  0  0  0
   10.3978   43.4637  130.9938 C   0  0  0  0  0  0  0  0  0  0  0  0
   10.7951   42.8151  132.1583 C   0  0  0  0  0  0  0  0  0  0  0  0
   11.3277   41.5301  132.0990 O   0  0  0  0  0  0  0  0  0  0  0  0
   10.6706   43.4283  133.3908 C   0  0  0  0  0  0  0  0  0  0  0  0
   10.1405   44.7064  133.4461 C   0  0  0  0  0  0  0  0  0  0  0  0
    9.7508   45.3392  132.2911 C   0  0  0  0  0  0  0  0  0  0  0  0
    9.2290   46.5328  132.0942 O   0  0  0  0  0  0  0  0  0  0  0  0
   11.4238   41.0729  131.2103 H   0  0  0  0  0  0  0  0  0  0  0  0
    6.7818   51.3810  128.6519 O   0  0  0  0  0  0  0  0  0  0  0  0
    7.3429   50.2141  129.1993 C   0  0  0  0  0  0  0  0  0  0  0  0
    7.9786   50.3102  130.4198 C   0  0  0  0  0  0  0  0  0  0  0  0
    8.5276   49.1483  130.9470 C   0  0  0  0  0  0  0  0  0  0  0  0
    8.4379   47.9516  130.2739 C   0  0  0  0  0  0  0  0  0  0  0  0
    7.8012   47.8693  129.0570 C   0  0  0  0  0  0  0  0  0  0  0  0
    7.2529   49.0153  128.5244 C   0  0  0  0  0  0  0  0  0  0  0  0
    5.8026   51.5531  128.9200 H   0  0  0  0  0  0  0  0  0  0  0  0
    9.9773   45.4163  134.6964 C   0  0  0  0  0  0  0  0  0  0  0  0
    9.8394   45.9989  135.6844 N   0  0  0  0  0  0  0  0  0  0  0  0
 12 13  1  0  0  0
 13 14  2  0  0  0
 14 15  1  0  0  0
 15 16  2  0  0  0
 16 17  1  0  0  0
 17 18  2  0  0  0
 16  1  1  0  0  0
  1  2  2  0  0  0
  2  3  1  0  0  0
  3  4  2  0  0  0
  4  5  1  0  0  0
  5  6  1  0  0  0
  5  7  2  0  0  0
  7  8  1  0  0  0
  8 20  1  0  0  0
 20 21  3  0  0  0
  8  9  2  0  0  0
  9 10  1  0  0  0
 18 13  1  0  0  0
 10  1  1  0  0  0
  9  3  1  0  0  0
 12 19  1  0  0  0
  6 11  1  0  0  0
M  END
> <minimizedAffinity>
-8.02776

> <CNNscore>
0.5711578727

> <CNNaffinity>
6.8224039078

> <CNN_VS>
3.8966696262

> <CNNaffinity_variance>
0.4510169029

$$$$
[H]Oc1c([H])c([H])c(-c2nc3c([H])c(O[H])c([H])c(C#N)c3o2)c([H])c1[H]


 21 23  0  0  0  0  0  0  0  0999 V2000
    9.5279   47.0534  131.0071 C   0  0  0  0  0  0  0  0  0  0  0  0
   10.3048   46.1290  130.4188 N   0  0  0  0  0  0  0  0  0  0  0  0
   10.8111   45.3315  131.3626 C   0  0  0  0  0  0  0  0  0  0  0  0
   11.6513   44.2340  131.3935 C   0  0  0  0  0  0  0  0  0  0  0  0
   11.9805   43.6283  132.6016 C   0  0  0  0  0  0  0  0  0  0  0  0
   12.8271   42.5233  132.6248 O   0  0  0  0  0  0  0  0  0  0  0  0
   11.4776   44.1073  133.7967 C   0  0  0  0  0  0  0  0  0  0  0  0
   10.6358   45.2065  133.7700 C   0  0  0  0  0  0  0  0  0  0  0  0
   10.3161   45.7982  132.5724 C   0  0  0  0  0  0  0  0  0  0  0  0
    9.5504   46.8347  132.2985 O   0  0  0  0  0  0  0  0  0  0  0  0
   13.1996   42.1650  131.7640 H   0  0  0  0  0  0  0  0  0  0  0  0
    6.6417   51.2491  128.6881 O   0  0  0  0  0  0  0  0  0  0  0  0
    7.3657   50.1925  129.2674 C   0  0  0  0  0  0  0  0  0  0  0  0
    7.3932   48.9837  128.6035 C   0  0  0  0  0  0  0  0  0  0  0  0
    8.1129   47.9500  129.1890 C   0  0  0  0  0  0  0  0  0  0  0  0
    8.7704   48.1304  130.3841 C   0  0  0  0  0  0  0  0  0  0  0  0
    8.7350   49.3414  131.0363 C   0  0  0  0  0  0  0  0  0  0  0  0
    8.0242   50.3739  130.4650 C   0  0  0  0  0  0  0  0  0  0  0  0
    7.1873   51.8435  128.0484 H   0  0  0  0  0  0  0  0  0  0  0  0
   10.0680   45.7681  134.9766 C   0  0  0  0  0  0  0  0  0  0  0  0
    9.6077   46.2321  135.9292 N   0  0  0  0  0  0  0  0  0  0  0  0
 12 13  1  0  0  0
 13 14  2  0  0  0
 14 15  1  0  0  0
 15 16  2  0  0  0
 16 17  1  0  0  0
 17 18  2  0  0  0
 16  1  1  0  0  0
  1  2  2  0  0  0
  2  3  1  0  0  0
  3  4  2  0  0  0
  4  5  1  0  0  0
  5  6  1  0  0  0
  5  7  2  0  0  0
  7  8  1  0  0  0
  8 20  1  0  0  0
 20 21  3  0  0  0
  8  9  2  0  0  0
  9 10  1  0  0  0
 18 13  1  0  0  0
 10  1  1  0  0  0
  9  3  1  0  0  0
 12 19  1  0  0  0
  6 11  1  0  0  0
M  END
> <minimizedAffinity>
-8.13293

> <CNNscore>
0.5520150661

> <CNNaffinity>
6.7311248779

> <CNN_VS>
3.7156822681

> <CNNaffinity_variance>
0.3641892970

$$$$
[H]Oc1c([H])c([H])c(-c2nc3c([H])c(O[H])c([H])c(C#N)c3o2)c([H])c1[H]


 21 23  0  0  0  0  0  0  0  0999 V2000
    8.5451   45.8537  130.6777 C   0  0  0  0  0  0  0  0  0  0  0  0
    7.3711   45.8644  130.0252 N   0  0  0  0  0  0  0  0  0  0  0  0
    6.9552   47.1283  129.9126 C   0  0  0  0  0  0  0  0  0  0  0  0
    5.8612   47.7716  129.3642 C   0  0  0  0  0  0  0  0  0  0  0  0
    5.7473   49.1562  129.4311 C   0  0  0  0  0  0  0  0  0  0  0  0
    4.6426   49.7971  128.8766 O   0  0  0  0  0  0  0  0  0  0  0  0
    6.7217   49.9203  130.0454 C   0  0  0  0  0  0  0  0  0  0  0  0
    7.8191   49.2797  130.5959 C   0  0  0  0  0  0  0  0  0  0  0  0
    7.9231   47.9120  130.5251 C   0  0  0  0  0  0  0  0  0  0  0  0
    8.8556   47.0930  130.9671 O   0  0  0  0  0  0  0  0  0  0  0  0
    3.9274   49.2542  128.4274 H   0  0  0  0  0  0  0  0  0  0  0  0
   11.6650   41.4322  132.1021 O   0  0  0  0  0  0  0  0  0  0  0  0
   10.8843   42.5442  131.7415 C   0  0  0  0  0  0  0  0  0  0  0  0
   11.3805   43.4022  130.7821 C   0  0  0  0  0  0  0  0  0  0  0  0
   10.5970   44.4959  130.4370 C   0  0  0  0  0  0  0  0  0  0  0  0
    9.3750   44.7100  131.0319 C   0  0  0  0  0  0  0  0  0  0  0  0
    8.8914   43.8466  131.9877 C   0  0  0  0  0  0  0  0  0  0  0  0
    9.6599   42.7583  132.3381 C   0  0  0  0  0  0  0  0  0  0  0  0
   11.4891   40.5849  131.5441 H   0  0  0  0  0  0  0  0  0  0  0  0
    8.8815   50.0074  131.2557 C   0  0  0  0  0  0  0  0  0  0  0  0
    9.7285   50.5756  131.7982 N   0  0  0  0  0  0  0  0  0  0  0  0
 12 13  1  0  0  0
 13 14  2  0  0  0
 14 15  1  0  0  0
 15 16  2  0  0  0
 16 17  1  0  0  0
 17 18  2  0  0  0
 16  1  1  0  0  0
  1  2  2  0  0  0
  2  3  1  0  0  0
  3  4  2  0  0  0
  4  5  1  0  0  0
  5  6  1  0  0  0
  5  7  2  0  0  0
  7  8  1  0  0  0
  8 20  1  0  0  0
 20 21  3  0  0  0
  8  9  2  0  0  0
  9 10  1  0  0  0
 18 13  1  0  0  0
 10  1  1  0  0  0
  9  3  1  0  0  0
 12 19  1  0  0  0
  6 11  1  0  0  0
M  END
> <minimizedAffinity>
-7.11414

> <CNNscore>
0.5321993828

> <CNNaffinity>
6.6941442490

> <CNN_VS>
3.5626194477

> <CNNaffinity_variance>
0.4516069293

$$$$
[H]Oc1c([H])c([H])c(-c2nc3c([H])c(O[H])c([H])c(C#N)c3o2)c([H])c1[H]


 21 23  0  0  0  0  0  0  0  0999 V2000
    8.4697   45.8484  130.7378 C   0  0  0  0  0  0  0  0  0  0  0  0
    7.3013   45.8688  130.0755 N   0  0  0  0  0  0  0  0  0  0  0  0
    6.9065   47.1375  129.9425 C   0  0  0  0  0  0  0  0  0  0  0  0
    5.8273   47.7905  129.3765 C   0  0  0  0  0  0  0  0  0  0  0  0
    5.7349   49.1776  129.4239 C   0  0  0  0  0  0  0  0  0  0  0  0
    4.6451   49.8282  128.8517 O   0  0  0  0  0  0  0  0  0  0  0  0
    6.7163   49.9344  130.0359 C   0  0  0  0  0  0  0  0  0  0  0  0
    7.7989   49.2841  130.6040 C   0  0  0  0  0  0  0  0  0  0  0  0
    7.8818   47.9141  130.5525 C   0  0  0  0  0  0  0  0  0  0  0  0
    8.7975   47.0864  131.0131 O   0  0  0  0  0  0  0  0  0  0  0  0
    3.9249   49.2906  128.4039 H   0  0  0  0  0  0  0  0  0  0  0  0
   11.6410   41.4485  132.1150 O   0  0  0  0  0  0  0  0  0  0  0  0
   10.8415   42.5528  131.7721 C   0  0  0  0  0  0  0  0  0  0  0  0
    9.6696   42.7485  132.4731 C   0  0  0  0  0  0  0  0  0  0  0  0
    8.8911   43.8440  132.1221 C   0  0  0  0  0  0  0  0  0  0  0  0
    9.2784   44.6967  131.1142 C   0  0  0  0  0  0  0  0  0  0  0  0
   10.4497   44.4902  130.4225 C   0  0  0  0  0  0  0  0  0  0  0  0
   11.2300   43.4068  130.7619 C   0  0  0  0  0  0  0  0  0  0  0  0
   12.3453   41.6377  132.8419 H   0  0  0  0  0  0  0  0  0  0  0  0
    8.8674   50.0037  131.2628 C   0  0  0  0  0  0  0  0  0  0  0  0
    9.7076   50.5838  131.8033 N   0  0  0  0  0  0  0  0  0  0  0  0
 12 13  1  0  0  0
 13 14  2  0  0  0
 14 15  1  0  0  0
 15 16  2  0  0  0
 16 17  1  0  0  0
 17 18  2  0  0  0
 16  1  1  0  0  0
  1  2  2  0  0  0
  2  3  1  0  0  0
  3  4  2  0  0  0
  4  5  1  0  0  0
  5  6  1  0  0  0
  5  7  2  0  0  0
  7  8  1  0  0  0
  8 20  1  0  0  0
 20 21  3  0  0  0
  8  9  2  0  0  0
  9 10  1  0  0  0
 18 13  1  0  0  0
 10  1  1  0  0  0
  9  3  1  0  0  0
 12 19  1  0  0  0
  6 11  1  0  0  0
M  END
> <minimizedAffinity>
-7.08153

> <CNNscore>
0.5166612267

> <CNNaffinity>
6.7112221718

> <CNN_VS>
3.4674282074

> <CNNaffinity_variance>
0.4342936575

$$$$
[H]Oc1c([H])c([H])c(-c2nc3c([H])c(O[H])c([H])c(C#N)c3o2)c([H])c1[H]


 21 23  0  0  0  0  0  0  0  0999 V2000
    9.1588   46.4175  130.9125 C   0  0  0  0  0  0  0  0  0  0  0  0
    9.5756   47.6717  131.1521 N   0  0  0  0  0  0  0  0  0  0  0  0
    8.6519   48.5237  130.7005 C   0  0  0  0  0  0  0  0  0  0  0  0
    8.5019   49.8973  130.6541 C   0  0  0  0  0  0  0  0  0  0  0  0
    7.3660   50.4667  130.0884 C   0  0  0  0  0  0  0  0  0  0  0  0
    7.2219   51.8508  130.0453 O   0  0  0  0  0  0  0  0  0  0  0  0
    6.3627   49.6759  129.5605 C   0  0  0  0  0  0  0  0  0  0  0  0
    6.5092   48.2995  129.6050 C   0  0  0  0  0  0  0  0  0  0  0  0
    7.6343   47.7461  130.1656 C   0  0  0  0  0  0  0  0  0  0  0  0
    7.9923   46.4877  130.3204 O   0  0  0  0  0  0  0  0  0  0  0  0
    7.9430   52.4371  130.4251 H   0  0  0  0  0  0  0  0  0  0  0  0
   11.6606   41.5738  132.1741 O   0  0  0  0  0  0  0  0  0  0  0  0
   11.0355   42.7918  131.8548 C   0  0  0  0  0  0  0  0  0  0  0  0
   11.7106   43.6728  131.0357 C   0  0  0  0  0  0  0  0  0  0  0  0
   11.0793   44.8717  130.7297 C   0  0  0  0  0  0  0  0  0  0  0  0
    9.8300   45.1635  131.2268 C   0  0  0  0  0  0  0  0  0  0  0  0
    9.1673   44.2760  132.0430 C   0  0  0  0  0  0  0  0  0  0  0  0
    9.7837   43.0837  132.3534 C   0  0  0  0  0  0  0  0  0  0  0  0
   11.4597   40.8039  131.5207 H   0  0  0  0  0  0  0  0  0  0  0  0
    5.5050   47.4031  129.0743 C   0  0  0  0  0  0  0  0  0  0  0  0
    4.6932   46.6885  128.6681 N   0  0  0  0  0  0  0  0  0  0  0  0
 12 13  1  0  0  0
 13 14  2  0  0  0
 14 15  1  0  0  0
 15 16  2  0  0  0
 16 17  1  0  0  0
 17 18  2  0  0  0
 16  1  1  0  0  0
  1  2  2  0  0  0
  2  3  1  0  0  0
  3  4  2  0  0  0
  4  5  1  0  0  0
  5  6  1  0  0  0
  5  7  2  0  0  0
  7  8  1  0  0  0
  8 20  1  0  0  0
 20 21  3  0  0  0
  8  9  2  0  0  0
  9 10  1  0  0  0
 18 13  1  0  0  0
 10  1  1  0  0  0
  9  3  1  0  0  0
 12 19  1  0  0  0
  6 11  1  0  0  0
M  END
> <minimizedAffinity>
-5.79532

> <CNNscore>
0.4967765510

> <CNNaffinity>
6.7528753281

> <CNN_VS>
3.3546700478

> <CNNaffinity_variance>
0.6633778811

$$$$
[H]Oc1c([H])c([H])c(-c2nc3c([H])c(O[H])c([H])c(C#N)c3o2)c([H])c1[H]


 21 23  0  0  0  0  0  0  0  0999 V2000
    9.5279   45.9303  131.3535 C   0  0  0  0  0  0  0  0  0  0  0  0
    8.5574   45.4395  130.5652 N   0  0  0  0  0  0  0  0  0  0  0  0
    7.8462   46.4586  130.0765 C   0  0  0  0  0  0  0  0  0  0  0  0
    6.7572   46.6008  129.2368 C   0  0  0  0  0  0  0  0  0  0  0  0
    6.2596   47.8631  128.9304 C   0  0  0  0  0  0  0  0  0  0  0  0
    5.1625   47.9984  128.0839 O   0  0  0  0  0  0  0  0  0  0  0  0
    6.8398   49.0022  129.4561 C   0  0  0  0  0  0  0  0  0  0  0  0
    7.9308   48.8640  130.2977 C   0  0  0  0  0  0  0  0  0  0  0  0
    8.4153   47.6136  130.5947 C   0  0  0  0  0  0  0  0  0  0  0  0
    9.4225   47.2360  131.3555 O   0  0  0  0  0  0  0  0  0  0  0  0
    4.7314   47.1793  127.6950 H   0  0  0  0  0  0  0  0  0  0  0  0
   13.4515   43.0755  134.1406 O   0  0  0  0  0  0  0  0  0  0  0  0
   12.4652   43.7951  133.4438 C   0  0  0  0  0  0  0  0  0  0  0  0
   11.8194   44.8188  134.1056 C   0  0  0  0  0  0  0  0  0  0  0  0
   10.8475   45.5200  133.4033 C   0  0  0  0  0  0  0  0  0  0  0  0
   10.5452   45.2017  132.0993 C   0  0  0  0  0  0  0  0  0  0  0  0
   11.1967   44.1781  131.4506 C   0  0  0  0  0  0  0  0  0  0  0  0
   12.1625   43.4756  132.1373 C   0  0  0  0  0  0  0  0  0  0  0  0
   14.4034   43.4588  134.0552 H   0  0  0  0  0  0  0  0  0  0  0  0
    8.5941   50.0061  130.8885 C   0  0  0  0  0  0  0  0  0  0  0  0
    9.1261   50.9077  131.3773 N   0  0  0  0  0  0  0  0  0  0  0  0
 12 13  1  0  0  0
 13 14  2  0  0  0
 14 15  1  0  0  0
 15 16  2  0  0  0
 16 17  1  0  0  0
 17 18  2  0  0  0
 16  1  1  0  0  0
  1  2  2  0  0  0
  2  3  1  0  0  0
  3  4  2  0  0  0
  4  5  1  0  0  0
  5  6  1  0  0  0
  5  7  2  0  0  0
  7  8  1  0  0  0
  8 20  1  0  0  0
 20 21  3  0  0  0
  8  9  2  0  0  0
  9 10  1  0  0  0
 18 13  1  0  0  0
 10  1  1  0  0  0
  9  3  1  0  0  0
 12 19  1  0  0  0
  6 11  1  0  0  0
M  END
> <minimizedAffinity>
-5.76590

> <CNNscore>
0.4519976974

> <CNNaffinity>
6.7799453735

> <CNN_VS>
3.0645196438

> <CNNaffinity_variance>
0.8740213513

$$$$
[H]Oc1c([H])c([H])c(-c2nc3c([H])c(O[H])c([H])c(C#N)c3o2)c([H])c1[H]


 21 23  0  0  0  0  0  0  0  0999 V2000
    9.3164   46.0724  130.5540 C   0  0  0  0  0  0  0  0  0  0  0  0
    8.4141   46.2063  129.5680 N   0  0  0  0  0  0  0  0  0  0  0  0
    7.8640   47.4201  129.6530 C   0  0  0  0  0  0  0  0  0  0  0  0
    6.9073   48.1311  128.9525 C   0  0  0  0  0  0  0  0  0  0  0  0
    6.5666   49.4247  129.3336 C   0  0  0  0  0  0  0  0  0  0  0  0
    5.6022   50.1345  128.6233 O   0  0  0  0  0  0  0  0  0  0  0  0
    7.1741   50.0289  130.4182 C   0  0  0  0  0  0  0  0  0  0  0  0
    8.1329   49.3201  131.1225 C   0  0  0  0  0  0  0  0  0  0  0  0
    8.4629   48.0432  130.7389 C   0  0  0  0  0  0  0  0  0  0  0  0
    9.3279   47.1866  131.2427 O   0  0  0  0  0  0  0  0  0  0  0  0
    5.1530   49.7076  127.8334 H   0  0  0  0  0  0  0  0  0  0  0  0
   12.6437   41.7259  131.7157 O   0  0  0  0  0  0  0  0  0  0  0  0
   11.8044   42.8153  131.4244 C   0  0  0  0  0  0  0  0  0  0  0  0
   10.4411   42.6045  131.4310 C   0  0  0  0  0  0  0  0  0  0  0  0
    9.6257   43.6910  131.1411 C   0  0  0  0  0  0  0  0  0  0  0  0
   10.1621   44.9262  130.8593 C   0  0  0  0  0  0  0  0  0  0  0  0
   11.5238   45.1232  130.8559 C   0  0  0  0  0  0  0  0  0  0  0  0
   12.3424   44.0528  131.1419 C   0  0  0  0  0  0  0  0  0  0  0  0
   12.8704   41.6135  132.7138 H   0  0  0  0  0  0  0  0  0  0  0  0
    8.8146   49.8813  132.2688 C   0  0  0  0  0  0  0  0  0  0  0  0
    9.3572   50.3117  133.1934 N   0  0  0  0  0  0  0  0  0  0  0  0
 12 13  1  0  0  0
 13 14  2  0  0  0
 14 15  1  0  0  0
 15 16  2  0  0  0
 16 17  1  0  0  0
 17 18  2  0  0  0
 16  1  1  0  0  0
  1  2  2  0  0  0
  2  3  1  0  0  0
  3  4  2  0  0  0
  4  5  1  0  0  0
  5  6  1  0  0  0
  5  7  2  0  0  0
  7  8  1  0  0  0
  8 20  1  0  0  0
 20 21  3  0  0  0
  8  9  2  0  0  0
  9 10  1  0  0  0
 18 13  1  0  0  0
 10  1  1  0  0  0
  9  3  1  0  0  0
 12 19  1  0  0  0
  6 11  1  0  0  0
M  END
> <minimizedAffinity>
-3.14700

> <CNNscore>
0.4465032816

> <CNNaffinity>
6.6870107651

> <CNN_VS>
2.9857721329

> <CNNaffinity_variance>
0.9125714302

$$$$
[H]Oc1c([H])c([H])c(-c2noc3c([H])c(O[H])c([H])c([H])c23)c([H])c1F


 20 22  0  0  0  0  0  0  0  0999 V2000
    5.8905   49.6814  129.1164 O   0  0  0  0  0  0  0  0  0  0  0  0
    6.9204   49.0650  129.8069 C   0  0  0  0  0  0  0  0  0  0  0  0
    7.1791   47.7172  129.6477 C   0  0  0  0  0  0  0  0  0  0  0  0
    8.2140   47.1282  130.3500 C   0  0  0  0  0  0  0  0  0  0  0  0
    8.9617   47.9163  131.1959 C   0  0  0  0  0  0  0  0  0  0  0  0
   10.0253   47.6201  132.0039 C   0  0  0  0  0  0  0  0  0  0  0  0
   10.3526   48.7995  132.6068 N   0  0  0  0  0  0  0  0  0  0  0  0
    9.5785   49.7387  132.2205 O   0  0  0  0  0  0  0  0  0  0  0  0
    8.7112   49.2601  131.3608 C   0  0  0  0  0  0  0  0  0  0  0  0
    7.6881   49.8469  130.6678 C   0  0  0  0  0  0  0  0  0  0  0  0
    5.3283   49.1336  128.4930 H   0  0  0  0  0  0  0  0  0  0  0  0
   10.7140   46.3465  132.2253 C   0  0  0  0  0  0  0  0  0  0  0  0
   11.3259   45.7033  131.1674 C   0  0  0  0  0  0  0  0  0  0  0  0
   11.9899   44.5014  131.3139 C   0  0  0  0  0  0  0  0  0  0  0  0
   12.0637   43.8932  132.5497 C   0  0  0  0  0  0  0  0  0  0  0  0
   12.7189   42.6811  132.7612 O   0  0  0  0  0  0  0  0  0  0  0  0
   11.4532   44.5339  133.6082 C   0  0  0  0  0  0  0  0  0  0  0  0
   11.5321   43.9204  134.8350 F   0  0  0  0  0  0  0  0  0  0  0  0
   10.7848   45.7424  133.4639 C   0  0  0  0  0  0  0  0  0  0  0  0
   13.1688   42.2034  131.9955 H   0  0  0  0  0  0  0  0  0  0  0  0
  1  2  1  0  0  0
  2  3  2  0  0  0
  3  4  1  0  0  0
  4  5  2  0  0  0
  5  6  1  0  0  0
  6  7  2  0  0  0
  7  8  1  0  0  0
  8  9  1  0  0  0
  9 10  2  0  0  0
  6 12  1  0  0  0
 12 13  2  0  0  0
 13 14  1  0  0  0
 14 15  2  0  0  0
 15 16  1  0  0  0
 15 17  1  0  0  0
 17 18  1  0  0  0
 17 19  2  0  0  0
 10  2  1  0  0  0
 19 12  1  0  0  0
  9  5  1  0  0  0
  1 11  1  0  0  0
 16 20  1  0  0  0
M  END
> <minimizedAffinity>
-9.06002

> <CNNscore>
0.8482134938

> <CNNaffinity>
6.8696031570

> <CNN_VS>
5.8268899918

> <CNNaffinity_variance>
0.3982697129

$$$$
[H]Oc1c([H])c([H])c(-c2noc3c([H])c(O[H])c([H])c([H])c23)c([H])c1F


 20 22  0  0  0  0  0  0  0  0999 V2000
   11.4741   43.5904  134.5431 O   0  0  0  0  0  0  0  0  0  0  0  0
   10.8732   44.3281  133.5371 C   0  0  0  0  0  0  0  0  0  0  0  0
    9.7483   45.0904  133.7868 C   0  0  0  0  0  0  0  0  0  0  0  0
    9.1691   45.8170  132.7631 C   0  0  0  0  0  0  0  0  0  0  0  0
    9.7416   45.7550  131.5125 C   0  0  0  0  0  0  0  0  0  0  0  0
    9.3989   46.3523  130.3302 C   0  0  0  0  0  0  0  0  0  0  0  0
   10.3307   45.9216  129.4315 N   0  0  0  0  0  0  0  0  0  0  0  0
   11.1710   45.1369  129.9872 O   0  0  0  0  0  0  0  0  0  0  0  0
   10.8625   44.9982  131.2544 C   0  0  0  0  0  0  0  0  0  0  0  0
   11.4387   44.2777  132.2645 C   0  0  0  0  0  0  0  0  0  0  0  0
   11.0803   43.6153  135.4645 H   0  0  0  0  0  0  0  0  0  0  0  0
    8.2938   47.2622  130.0204 C   0  0  0  0  0  0  0  0  0  0  0  0
    7.1275   46.7652  129.4724 C   0  0  0  0  0  0  0  0  0  0  0  0
    6.0521   47.5729  129.1591 C   0  0  0  0  0  0  0  0  0  0  0  0
    6.1117   48.9314  129.3895 C   0  0  0  0  0  0  0  0  0  0  0  0
    5.0603   49.7981  129.0948 O   0  0  0  0  0  0  0  0  0  0  0  0
    7.2758   49.4305  129.9369 C   0  0  0  0  0  0  0  0  0  0  0  0
    7.3256   50.7848  130.1626 F   0  0  0  0  0  0  0  0  0  0  0  0
    8.3587   48.6208  130.2529 C   0  0  0  0  0  0  0  0  0  0  0  0
    4.2047   49.4453  128.6946 H   0  0  0  0  0  0  0  0  0  0  0  0
  1  2  1  0  0  0
  2  3  2  0  0  0
  3  4  1  0  0  0
  4  5  2  0  0  0
  5  6  1  0  0  0
  6  7  2  0  0  0
  7  8  1  0  0  0
  8  9  1  0  0  0
  9 10  2  0  0  0
  6 12  1  0  0  0
 12 13  2  0  0  0
 13 14  1  0  0  0
 14 15  2  0  0  0
 15 16  1  0  0  0
 15 17  1  0  0  0
 17 18  1  0  0  0
 17 19  2  0  0  0
 10  2  1  0  0  0
 19 12  1  0  0  0
  9  5  1  0  0  0
  1 11  1  0  0  0
 16 20  1  0  0  0
M  END
> <minimizedAffinity>
-8.28043

> <CNNscore>
0.8124231100

> <CNNaffinity>
6.8772001266

> <CNN_VS>
5.5871963501

> <CNNaffinity_variance>
0.3531111479

$$$$
[H]Oc1c([H])c([H])c(-c2noc3c([H])c(O[H])c([H])c([H])c23)c([H])c1F


 20 22  0  0  0  0  0  0  0  0999 V2000
   12.8957   42.9845  132.8237 O   0  0  0  0  0  0  0  0  0  0  0  0
   11.9064   43.7593  132.2417 C   0  0  0  0  0  0  0  0  0  0  0  0
   12.0247   45.1341  132.1746 C   0  0  0  0  0  0  0  0  0  0  0  0
   11.0213   45.8826  131.5878 C   0  0  0  0  0  0  0  0  0  0  0  0
    9.9233   45.2226  131.0835 C   0  0  0  0  0  0  0  0  0  0  0  0
    8.7971   45.6858  130.4599 C   0  0  0  0  0  0  0  0  0  0  0  0
    8.0600   44.5714  130.1839 N   0  0  0  0  0  0  0  0  0  0  0  0
    8.6573   43.5182  130.5897 O   0  0  0  0  0  0  0  0  0  0  0  0
    9.7969   43.8529  131.1458 C   0  0  0  0  0  0  0  0  0  0  0  0
   10.7875   43.1086  131.7256 C   0  0  0  0  0  0  0  0  0  0  0  0
   13.7074   43.4365  133.1999 H   0  0  0  0  0  0  0  0  0  0  0  0
    8.4005   47.0562  130.1279 C   0  0  0  0  0  0  0  0  0  0  0  0
    7.5797   47.2899  129.0421 C   0  0  0  0  0  0  0  0  0  0  0  0
    7.1723   48.5587  128.6798 C   0  0  0  0  0  0  0  0  0  0  0  0
    7.5822   49.6558  129.4082 C   0  0  0  0  0  0  0  0  0  0  0  0
    7.2051   50.9603  129.0928 O   0  0  0  0  0  0  0  0  0  0  0  0
    8.4022   49.4249  130.4936 C   0  0  0  0  0  0  0  0  0  0  0  0
    8.8052   50.5239  131.2129 F   0  0  0  0  0  0  0  0  0  0  0  0
    8.8135   48.1503  130.8603 C   0  0  0  0  0  0  0  0  0  0  0  0
    6.6062   51.1417  128.3022 H   0  0  0  0  0  0  0  0  0  0  0  0
  1  2  1  0  0  0
  2  3  2  0  0  0
  3  4  1  0  0  0
  4  5  2  0  0  0
  5  6  1  0  0  0
  6  7  2  0  0  0
  7  8  1  0  0  0
  8  9  1  0  0  0
  9 10  2  0  0  0
  6 12  1  0  0  0
 12 13  2  0  0  0
 13 14  1  0  0  0
 14 15  2  0  0  0
 15 16  1  0  0  0
 15 17  1  0  0  0
 17 18  1  0  0  0
 17 19  2  0  0  0
 10  2  1  0  0  0
 19 12  1  0  0  0
  9  5  1  0  0  0
  1 11  1  0  0  0
 16 20  1  0  0  0
M  END
> <minimizedAffinity>
-9.39607

> <CNNscore>
0.7854925394

> <CNNaffinity>
6.9280433655

> <CNN_VS>
5.4419264793

> <CNNaffinity_variance>
0.3925400674

$$$$
[H]Oc1c([H])c([H])c(-c2noc3c([H])c(O[H])c([H])c([H])c23)c([H])c1F


 20 22  0  0  0  0  0  0  0  0999 V2000
    7.0135   51.3446  129.7505 O   0  0  0  0  0  0  0  0  0  0  0  0
    7.5380   50.0931  130.0263 C   0  0  0  0  0  0  0  0  0  0  0  0
    8.6377   49.9466  130.8498 C   0  0  0  0  0  0  0  0  0  0  0  0
    9.1401   48.6847  131.1078 C   0  0  0  0  0  0  0  0  0  0  0  0
    8.5184   47.6023  130.5268 C   0  0  0  0  0  0  0  0  0  0  0  0
    8.7839   46.2620  130.5965 C   0  0  0  0  0  0  0  0  0  0  0  0
    7.8348   45.6708  129.8147 N   0  0  0  0  0  0  0  0  0  0  0  0
    7.0544   46.5445  129.3065 O   0  0  0  0  0  0  0  0  0  0  0  0
    7.4221   47.7387  129.7050 C   0  0  0  0  0  0  0  0  0  0  0  0
    6.9218   48.9855  129.4471 C   0  0  0  0  0  0  0  0  0  0  0  0
    7.4446   52.1521  130.1589 H   0  0  0  0  0  0  0  0  0  0  0  0
    9.8336   45.5464  131.3255 C   0  0  0  0  0  0  0  0  0  0  0  0
    9.6178   45.1550  132.6323 C   0  0  0  0  0  0  0  0  0  0  0  0
   10.5686   44.4780  133.3704 C   0  0  0  0  0  0  0  0  0  0  0  0
   11.7903   44.1652  132.8119 C   0  0  0  0  0  0  0  0  0  0  0  0
   12.7898   43.4843  133.5052 O   0  0  0  0  0  0  0  0  0  0  0  0
   12.0083   44.5552  131.5064 C   0  0  0  0  0  0  0  0  0  0  0  0
   13.2281   44.2393  130.9589 F   0  0  0  0  0  0  0  0  0  0  0  0
   11.0542   45.2360  130.7618 C   0  0  0  0  0  0  0  0  0  0  0  0
   12.6423   43.1941  134.4595 H   0  0  0  0  0  0  0  0  0  0  0  0
  1  2  1  0  0  0
  2  3  2  0  0  0
  3  4  1  0  0  0
  4  5  2  0  0  0
  5  6  1  0  0  0
  6  7  2  0  0  0
  7  8  1  0  0  0
  8  9  1  0  0  0
  9 10  2  0  0  0
  6 12  1  0  0  0
 12 13  2  0  0  0
 13 14  1  0  0  0
 14 15  2  0  0  0
 15 16  1  0  0  0
 15 17  1  0  0  0
 17 18  1  0  0  0
 17 19  2  0  0  0
 10  2  1  0  0  0
 19 12  1  0  0  0
  9  5  1  0  0  0
  1 11  1  0  0  0
 16 20  1  0  0  0
M  END
> <minimizedAffinity>
-8.98195

> <CNNscore>
0.7722140551

> <CNNaffinity>
6.9260544777

> <CNN_VS>
5.3483967781

> <CNNaffinity_variance>
0.5487294197

$$$$
[H]Oc1c([H])c([H])c(-c2noc3c([H])c(O[H])c([H])c([H])c23)c([H])c1F


 20 22  0  0  0  0  0  0  0  0999 V2000
    6.8129   51.5753  128.8576 O   0  0  0  0  0  0  0  0  0  0  0  0
    7.3055   50.3691  129.3266 C   0  0  0  0  0  0  0  0  0  0  0  0
    7.1748   49.2096  128.5868 C   0  0  0  0  0  0  0  0  0  0  0  0
    7.6762   48.0193  129.0799 C   0  0  0  0  0  0  0  0  0  0  0  0
    8.2972   48.0308  130.3087 C   0  0  0  0  0  0  0  0  0  0  0  0
    8.8785   47.0296  131.0378 C   0  0  0  0  0  0  0  0  0  0  0  0
    9.3282   47.6337  132.1754 N   0  0  0  0  0  0  0  0  0  0  0  0
    9.0595   48.8820  132.1650 O   0  0  0  0  0  0  0  0  0  0  0  0
    8.4320   49.1814  131.0529 C   0  0  0  0  0  0  0  0  0  0  0  0
    7.9373   50.3613  130.5686 C   0  0  0  0  0  0  0  0  0  0  0  0
    6.3555   51.5988  127.9660 H   0  0  0  0  0  0  0  0  0  0  0  0
    9.0241   45.6046  130.7320 C   0  0  0  0  0  0  0  0  0  0  0  0
    8.5303   44.6595  131.6097 C   0  0  0  0  0  0  0  0  0  0  0  0
    8.6374   43.3027  131.3762 C   0  0  0  0  0  0  0  0  0  0  0  0
    9.2550   42.8399  130.2331 C   0  0  0  0  0  0  0  0  0  0  0  0
    9.3940   41.4838  129.9415 O   0  0  0  0  0  0  0  0  0  0  0  0
    9.7493   43.7821  129.3546 C   0  0  0  0  0  0  0  0  0  0  0  0
   10.3627   43.3114  128.2190 F   0  0  0  0  0  0  0  0  0  0  0  0
    9.6430   45.1469  129.5867 C   0  0  0  0  0  0  0  0  0  0  0  0
    9.0369   40.7859  130.5757 H   0  0  0  0  0  0  0  0  0  0  0  0
  1  2  1  0  0  0
  2  3  2  0  0  0
  3  4  1  0  0  0
  4  5  2  0  0  0
  5  6  1  0  0  0
  6  7  2  0  0  0
  7  8  1  0  0  0
  8  9  1  0  0  0
  9 10  2  0  0  0
  6 12  1  0  0  0
 12 13  2  0  0  0
 13 14  1  0  0  0
 14 15  2  0  0  0
 15 16  1  0  0  0
 15 17  1  0  0  0
 17 18  1  0  0  0
 17 19  2  0  0  0
 10  2  1  0  0  0
 19 12  1  0  0  0
  9  5  1  0  0  0
  1 11  1  0  0  0
 16 20  1  0  0  0
M  END
> <minimizedAffinity>
-8.11297

> <CNNscore>
0.7664358020

> <CNNaffinity>
6.7878990173

> <CNN_VS>
5.2024888992

> <CNNaffinity_variance>
0.4959202707

$$$$
[H]Oc1c([H])c([H])c(-c2noc3c([H])c(O[H])c([H])c([H])c23)c([H])c1F


 20 22  0  0  0  0  0  0  0  0999 V2000
    7.0832   51.2695  129.6353 O   0  0  0  0  0  0  0  0  0  0  0  0
    7.6028   50.0285  129.9628 C   0  0  0  0  0  0  0  0  0  0  0  0
    8.6808   49.9102  130.8188 C   0  0  0  0  0  0  0  0  0  0  0  0
    9.1788   48.6582  131.1282 C   0  0  0  0  0  0  0  0  0  0  0  0
    8.5747   47.5568  130.5645 C   0  0  0  0  0  0  0  0  0  0  0  0
    8.8410   46.2200  130.6819 C   0  0  0  0  0  0  0  0  0  0  0  0
    7.9138   45.6027  129.8940 N   0  0  0  0  0  0  0  0  0  0  0  0
    7.1452   46.4583  129.3392 O   0  0  0  0  0  0  0  0  0  0  0  0
    7.5000   47.6651  129.7105 C   0  0  0  0  0  0  0  0  0  0  0  0
    7.0042   48.9021  129.4018 C   0  0  0  0  0  0  0  0  0  0  0  0
    7.5019   52.0903  130.0300 H   0  0  0  0  0  0  0  0  0  0  0  0
    9.8726   45.5299  131.4596 C   0  0  0  0  0  0  0  0  0  0  0  0
   10.9295   44.9213  130.8116 C   0  0  0  0  0  0  0  0  0  0  0  0
   11.9317   44.2562  131.4900 C   0  0  0  0  0  0  0  0  0  0  0  0
   11.9068   44.1780  132.8668 C   0  0  0  0  0  0  0  0  0  0  0  0
   12.8882   43.5214  133.6077 O   0  0  0  0  0  0  0  0  0  0  0  0
   10.8519   44.7853  133.5166 C   0  0  0  0  0  0  0  0  0  0  0  0
   10.8357   44.7019  134.8878 F   0  0  0  0  0  0  0  0  0  0  0  0
    9.8428   45.4547  132.8371 C   0  0  0  0  0  0  0  0  0  0  0  0
   13.6639   43.0739  133.1442 H   0  0  0  0  0  0  0  0  0  0  0  0
  1  2  1  0  0  0
  2  3  2  0  0  0
  3  4  1  0  0  0
  4  5  2  0  0  0
  5  6  1  0  0  0
  6  7  2  0  0  0
  7  8  1  0  0  0
  8  9  1  0  0  0
  9 10  2  0  0  0
  6 12  1  0  0  0
 12 13  2  0  0  0
 13 14  1  0  0  0
 14 15  2  0  0  0
 15 16  1  0  0  0
 15 17  1  0  0  0
 17 18  1  0  0  0
 17 19  2  0  0  0
 10  2  1  0  0  0
 19 12  1  0  0  0
  9  5  1  0  0  0
  1 11  1  0  0  0
 16 20  1  0  0  0
M  END
> <minimizedAffinity>
-8.99925

> <CNNscore>
0.7642546296

> <CNNaffinity>
6.9395790100

> <CNN_VS>
5.3036055565

> <CNNaffinity_variance>
0.6026555300

$$$$
[H]Oc1c([H])c([H])c(-c2noc3c([H])c(O[H])c([H])c([H])c23)c([H])c1F


 20 22  0  0  0  0  0  0  0  0999 V2000
   12.7992   43.4097  133.4734 O   0  0  0  0  0  0  0  0  0  0  0  0
   12.0170   44.1542  132.6066 C   0  0  0  0  0  0  0  0  0  0  0  0
   11.0284   44.9943  133.0814 C   0  0  0  0  0  0  0  0  0  0  0  0
   10.2625   45.7259  132.1927 C   0  0  0  0  0  0  0  0  0  0  0  0
   10.5152   45.5898  130.8462 C   0  0  0  0  0  0  0  0  0  0  0  0
    9.9335   46.1723  129.7534 C   0  0  0  0  0  0  0  0  0  0  0  0
   10.5982   45.6559  128.6796 N   0  0  0  0  0  0  0  0  0  0  0  0
   11.5022   44.8357  129.0549 O   0  0  0  0  0  0  0  0  0  0  0  0
   11.4983   44.7551  130.3639 C   0  0  0  0  0  0  0  0  0  0  0  0
   12.2584   44.0295  131.2399 C   0  0  0  0  0  0  0  0  0  0  0  0
   12.6389   43.4874  134.4599 H   0  0  0  0  0  0  0  0  0  0  0  0
    8.8385   47.1417  129.6739 C   0  0  0  0  0  0  0  0  0  0  0  0
    9.0919   48.4832  129.8830 C   0  0  0  0  0  0  0  0  0  0  0  0
    8.1015   49.4436  129.8213 C   0  0  0  0  0  0  0  0  0  0  0  0
    6.7995   49.0837  129.5424 C   0  0  0  0  0  0  0  0  0  0  0  0
    5.7568   50.0058  129.4666 O   0  0  0  0  0  0  0  0  0  0  0  0
    6.5438   47.7441  129.3331 C   0  0  0  0  0  0  0  0  0  0  0  0
    5.2441   47.3955  129.0560 F   0  0  0  0  0  0  0  0  0  0  0  0
    7.5375   46.7762  129.3945 C   0  0  0  0  0  0  0  0  0  0  0  0
    5.9313   50.9874  129.6177 H   0  0  0  0  0  0  0  0  0  0  0  0
  1  2  1  0  0  0
  2  3  2  0  0  0
  3  4  1  0  0  0
  4  5  2  0  0  0
  5  6  1  0  0  0
  6  7  2  0  0  0
  7  8  1  0  0  0
  8  9  1  0  0  0
  9 10  2  0  0  0
  6 12  1  0  0  0
 12 13  2  0  0  0
 13 14  1  0  0  0
 14 15  2  0  0  0
 15 16  1  0  0  0
 15 17  1  0  0  0
 17 18  1  0  0  0
 17 19  2  0  0  0
 10  2  1  0  0  0
 19 12  1  0  0  0
  9  5  1  0  0  0
  1 11  1  0  0  0
 16 20  1  0  0  0
M  END
> <minimizedAffinity>
-9.41304

> <CNNscore>
0.7226268053

> <CNNaffinity>
6.6511354446

> <CNN_VS>
4.8062887192

> <CNNaffinity_variance>
0.2682016492

$$$$
[H]Oc1c([H])c([H])c(-c2noc3c([H])c(O[H])c([H])c([H])c23)c([H])c1F


 20 22  0  0  0  0  0  0  0  0999 V2000
    6.7926   50.2883  128.6998 O   0  0  0  0  0  0  0  0  0  0  0  0
    7.6534   49.5555  129.4996 C   0  0  0  0  0  0  0  0  0  0  0  0
    7.9872   48.2532  129.1814 C   0  0  0  0  0  0  0  0  0  0  0  0
    8.8492   47.5453  129.9982 C   0  0  0  0  0  0  0  0  0  0  0  0
    9.3523   48.1716  131.1164 C   0  0  0  0  0  0  0  0  0  0  0  0
   10.2077   47.7341  132.0904 C   0  0  0  0  0  0  0  0  0  0  0  0
   10.3456   48.7904  132.9427 N   0  0  0  0  0  0  0  0  0  0  0  0
    9.6517   49.7873  132.5487 O   0  0  0  0  0  0  0  0  0  0  0  0
    9.0252   49.4691  131.4413 C   0  0  0  0  0  0  0  0  0  0  0  0
    8.1726   50.1730  130.6357 C   0  0  0  0  0  0  0  0  0  0  0  0
    6.4099   49.8593  127.8786 H   0  0  0  0  0  0  0  0  0  0  0  0
   10.8682   46.4366  132.2503 C   0  0  0  0  0  0  0  0  0  0  0  0
   10.6965   45.7173  133.4167 C   0  0  0  0  0  0  0  0  0  0  0  0
   11.2929   44.4894  133.6255 C   0  0  0  0  0  0  0  0  0  0  0  0
   12.0963   43.9315  132.6531 C   0  0  0  0  0  0  0  0  0  0  0  0
   12.7253   42.6967  132.8046 O   0  0  0  0  0  0  0  0  0  0  0  0
   12.2694   44.6482  131.4868 C   0  0  0  0  0  0  0  0  0  0  0  0
   13.0713   44.0844  130.5242 F   0  0  0  0  0  0  0  0  0  0  0  0
   11.6711   45.8830  131.2740 C   0  0  0  0  0  0  0  0  0  0  0  0
   12.6064   42.1637  133.6522 H   0  0  0  0  0  0  0  0  0  0  0  0
  1  2  1  0  0  0
  2  3  2  0  0  0
  3  4  1  0  0  0
  4  5  2  0  0  0
  5  6  1  0  0  0
  6  7  2  0  0  0
  7  8  1  0  0  0
  8  9  1  0  0  0
  9 10  2  0  0  0
  6 12  1  0  0  0
 12 13  2  0  0  0
 13 14  1  0  0  0
 14 15  2  0  0  0
 15 16  1  0  0  0
 15 17  1  0  0  0
 17 18  1  0  0  0
 17 19  2  0  0  0
 10  2  1  0  0  0
 19 12  1  0  0  0
  9  5  1  0  0  0
  1 11  1  0  0  0
 16 20  1  0  0  0
M  END
> <minimizedAffinity>
-8.99856

> <CNNscore>
0.7059732080

> <CNNaffinity>
6.5160760880

> <CNN_VS>
4.6001749039

> <CNNaffinity_variance>
0.1721427739

$$$$
[H]Oc1c([H])c([H])c(-c2noc3c([H])c(O[H])c([H])c([H])c23)c([H])c1F


 20 22  0  0  0  0  0  0  0  0999 V2000
   12.9155   42.7837  132.8079 O   0  0  0  0  0  0  0  0  0  0  0  0
   11.9453   43.7426  132.5701 C   0  0  0  0  0  0  0  0  0  0  0  0
   12.0243   44.5804  131.4743 C   0  0  0  0  0  0  0  0  0  0  0  0
   11.0411   45.5288  131.2618 C   0  0  0  0  0  0  0  0  0  0  0  0
   10.0025   45.6067  132.1623 C   0  0  0  0  0  0  0  0  0  0  0  0
    8.9084   46.4267  132.2123 C   0  0  0  0  0  0  0  0  0  0  0  0
    8.2281   46.0432  133.3311 N   0  0  0  0  0  0  0  0  0  0  0  0
    8.8286   45.0843  133.9231 O   0  0  0  0  0  0  0  0  0  0  0  0
    9.9155   44.7760  133.2569 C   0  0  0  0  0  0  0  0  0  0  0  0
   10.8862   43.8363  133.4709 C   0  0  0  0  0  0  0  0  0  0  0  0
   13.6844   42.7027  132.1698 H   0  0  0  0  0  0  0  0  0  0  0  0
    8.4927   47.4988  131.3052 C   0  0  0  0  0  0  0  0  0  0  0  0
    8.8511   48.8050  131.5753 C   0  0  0  0  0  0  0  0  0  0  0  0
    8.4892   49.8576  130.7581 C   0  0  0  0  0  0  0  0  0  0  0  0
    7.7417   49.6310  129.6212 C   0  0  0  0  0  0  0  0  0  0  0  0
    7.3457   50.6510  128.7574 O   0  0  0  0  0  0  0  0  0  0  0  0
    7.3824   48.3269  129.3491 C   0  0  0  0  0  0  0  0  0  0  0  0
    6.6380   48.1113  128.2147 F   0  0  0  0  0  0  0  0  0  0  0  0
    7.7449   47.2665  130.1690 C   0  0  0  0  0  0  0  0  0  0  0  0
    7.6022   51.6078  128.9456 H   0  0  0  0  0  0  0  0  0  0  0  0
  1  2  1  0  0  0
  2  3  2  0  0  0
  3  4  1  0  0  0
  4  5  2  0  0  0
  5  6  1  0  0  0
  6  7  2  0  0  0
  7  8  1  0  0  0
  8  9  1  0  0  0
  9 10  2  0  0  0
  6 12  1  0  0  0
 12 13  2  0  0  0
 13 14  1  0  0  0
 14 15  2  0  0  0
 15 16  1  0  0  0
 15 17  1  0  0  0
 17 18  1  0  0  0
 17 19  2  0  0  0
 10  2  1  0  0  0
 19 12  1  0  0  0
  9  5  1  0  0  0
  1 11  1  0  0  0
 16 20  1  0  0  0
M  END
> <minimizedAffinity>
-9.29228

> <CNNscore>
0.6212451458

> <CNNaffinity>
6.7019395828

> <CNN_VS>
4.1635475159

> <CNNaffinity_variance>
0.2178523540

$$$$
[H]Oc1c([H])c([H])c(-c2nc3c([H])c(O[H])c([H])c(Br)c3o2)c([H])c1[H]


 20 22  0  0  0  0  0  0  0  0999 V2000
    9.4766   47.1430  131.1798 C   0  0  0  0  0  0  0  0  0  0  0  0
   10.3001   46.2387  130.6200 N   0  0  0  0  0  0  0  0  0  0  0  0
   10.8157   45.4245  131.5758 C   0  0  0  0  0  0  0  0  0  0  0  0
   11.6751   44.3654  131.5995 C   0  0  0  0  0  0  0  0  0  0  0  0
   12.0419   43.6974  132.7475 C   0  0  0  0  0  0  0  0  0  0  0  0
   12.9212   42.6185  132.7466 O   0  0  0  0  0  0  0  0  0  0  0  0
   11.4823   44.1587  133.9346 C   0  0  0  0  0  0  0  0  0  0  0  0
   10.6111   45.2285  133.9301 C   0  0  0  0  0  0  0  0  0  0  0  0
    9.8722   45.8224  135.5765 Br  0  0  0  0  0  0  0  0  0  0  0  0
   10.2613   45.8812  132.7533 C   0  0  0  0  0  0  0  0  0  0  0  0
    9.4796   46.8950  132.4658 O   0  0  0  0  0  0  0  0  0  0  0  0
   12.4865   41.6941  132.6358 H   0  0  0  0  0  0  0  0  0  0  0  0
    6.6579   51.3067  128.6456 O   0  0  0  0  0  0  0  0  0  0  0  0
    7.3503   50.2500  129.2486 C   0  0  0  0  0  0  0  0  0  0  0  0
    7.4172   49.0220  128.6540 C   0  0  0  0  0  0  0  0  0  0  0  0
    8.1142   47.9865  129.2773 C   0  0  0  0  0  0  0  0  0  0  0  0
    8.7262   48.1978  130.4741 C   0  0  0  0  0  0  0  0  0  0  0  0
    8.6371   49.4490  131.0429 C   0  0  0  0  0  0  0  0  0  0  0  0
    7.9641   50.4957  130.4683 C   0  0  0  0  0  0  0  0  0  0  0  0
    6.5976   52.2190  129.0684 H   0  0  0  0  0  0  0  0  0  0  0  0
 13 14  1  0  0  0
 14 15  2  0  0  0
 15 16  1  0  0  0
 16 17  2  0  0  0
 17 18  1  0  0  0
 18 19  2  0  0  0
 17  1  1  0  0  0
  1  2  2  0  0  0
  2  3  1  0  0  0
  3  4  2  0  0  0
  4  5  1  0  0  0
  5  6  1  0  0  0
  5  7  2  0  0  0
  7  8  1  0  0  0
  8  9  1  0  0  0
  8 10  2  0  0  0
 10 11  1  0  0  0
 19 14  1  0  0  0
 11  1  1  0  0  0
 10  3  1  0  0  0
 13 20  1  0  0  0
  6 12  1  0  0  0
M  END
> <minimizedAffinity>
-8.42539

> <CNNscore>
0.8141398430

> <CNNaffinity>
7.0740537643

> <CNN_VS>
5.7592692375

> <CNNaffinity_variance>
0.4827023447

$$$$
[H]Oc1c([H])c([H])c(-c2nc3c([H])c(O[H])c([H])c(Br)c3o2)c([H])c1[H]


 20 22  0  0  0  0  0  0  0  0999 V2000
    9.4672   47.1471  131.3638 C   0  0  0  0  0  0  0  0  0  0  0  0
    9.2780   46.7905  132.6470 N   0  0  0  0  0  0  0  0  0  0  0  0
   10.1407   45.7991  132.9863 C   0  0  0  0  0  0  0  0  0  0  0  0
   10.3998   45.0695  134.1094 C   0  0  0  0  0  0  0  0  0  0  0  0
   11.3650   44.0890  134.1845 C   0  0  0  0  0  0  0  0  0  0  0  0
   11.6112   43.3572  135.3426 O   0  0  0  0  0  0  0  0  0  0  0  0
   12.0994   43.8569  133.0262 C   0  0  0  0  0  0  0  0  0  0  0  0
   11.8514   44.5850  131.8807 C   0  0  0  0  0  0  0  0  0  0  0  0
   12.8805   44.2321  130.3233 Br  0  0  0  0  0  0  0  0  0  0  0  0
   10.8693   45.5683  131.8382 C   0  0  0  0  0  0  0  0  0  0  0  0
   10.4339   46.3884  130.9111 O   0  0  0  0  0  0  0  0  0  0  0  0
   12.3119   43.7582  135.9782 H   0  0  0  0  0  0  0  0  0  0  0  0
    6.6786   51.2558  128.7093 O   0  0  0  0  0  0  0  0  0  0  0  0
    7.3647   50.2125  129.3421 C   0  0  0  0  0  0  0  0  0  0  0  0
    7.4662   48.9813  128.7593 C   0  0  0  0  0  0  0  0  0  0  0  0
    8.1560   47.9593  129.4123 C   0  0  0  0  0  0  0  0  0  0  0  0
    8.7265   48.1870  130.6265 C   0  0  0  0  0  0  0  0  0  0  0  0
    8.6033   49.4410  131.1827 C   0  0  0  0  0  0  0  0  0  0  0  0
    7.9358   50.4748  130.5790 C   0  0  0  0  0  0  0  0  0  0  0  0
    6.5931   52.1702  129.1230 H   0  0  0  0  0  0  0  0  0  0  0  0
 13 14  1  0  0  0
 14 15  2  0  0  0
 15 16  1  0  0  0
 16 17  2  0  0  0
 17 18  1  0  0  0
 18 19  2  0  0  0
 17  1  1  0  0  0
  1  2  2  0  0  0
  2  3  1  0  0  0
  3  4  2  0  0  0
  4  5  1  0  0  0
  5  6  1  0  0  0
  5  7  2  0  0  0
  7  8  1  0  0  0
  8  9  1  0  0  0
  8 10  2  0  0  0
 10 11  1  0  0  0
 19 14  1  0  0  0
 11  1  1  0  0  0
 10  3  1  0  0  0
 13 20  1  0  0  0
  6 12  1  0  0  0
M  END
> <minimizedAffinity>
-8.59211

> <CNNscore>
0.7273381352

> <CNNaffinity>
6.8480544090

> <CNN_VS>
4.9808511734

> <CNNaffinity_variance>
0.3142943680

$$$$
[H]Oc1c([H])c([H])c(-c2nc3c([H])c(O[H])c([H])c(Br)c3o2)c([H])c1[H]


 20 22  0  0  0  0  0  0  0  0999 V2000
    8.7299   45.8607  130.7891 C   0  0  0  0  0  0  0  0  0  0  0  0
    7.5698   45.9233  130.1112 N   0  0  0  0  0  0  0  0  0  0  0  0
    7.1536   47.2120  130.0194 C   0  0  0  0  0  0  0  0  0  0  0  0
    6.0873   47.8587  129.4668 C   0  0  0  0  0  0  0  0  0  0  0  0
    5.9023   49.2231  129.5208 C   0  0  0  0  0  0  0  0  0  0  0  0
    4.8052   49.8609  128.9490 O   0  0  0  0  0  0  0  0  0  0  0  0
    6.8821   49.9522  130.1868 C   0  0  0  0  0  0  0  0  0  0  0  0
    7.9677   49.3152  130.7519 C   0  0  0  0  0  0  0  0  0  0  0  0
    9.2801   50.3534  131.6512 Br  0  0  0  0  0  0  0  0  0  0  0  0
    8.1247   47.9356  130.6796 C   0  0  0  0  0  0  0  0  0  0  0  0
    9.0315   47.0929  131.1145 O   0  0  0  0  0  0  0  0  0  0  0  0
    4.9261   50.1584  127.9730 H   0  0  0  0  0  0  0  0  0  0  0  0
   11.5328   41.1655  132.1320 O   0  0  0  0  0  0  0  0  0  0  0  0
   10.8583   42.3378  131.7709 C   0  0  0  0  0  0  0  0  0  0  0  0
   11.2615   43.0796  130.6970 C   0  0  0  0  0  0  0  0  0  0  0  0
   10.5709   44.2439  130.3595 C   0  0  0  0  0  0  0  0  0  0  0  0
    9.4984   44.6408  131.0971 C   0  0  0  0  0  0  0  0  0  0  0  0
    9.1214   43.8672  132.1726 C   0  0  0  0  0  0  0  0  0  0  0  0
    9.7688   42.7169  132.5417 C   0  0  0  0  0  0  0  0  0  0  0  0
   11.2505   40.6054  132.9201 H   0  0  0  0  0  0  0  0  0  0  0  0
 13 14  1  0  0  0
 14 15  2  0  0  0
 15 16  1  0  0  0
 16 17  2  0  0  0
 17 18  1  0  0  0
 18 19  2  0  0  0
 17  1  1  0  0  0
  1  2  2  0  0  0
  2  3  1  0  0  0
  3  4  2  0  0  0
  4  5  1  0  0  0
  5  6  1  0  0  0
  5  7  2  0  0  0
  7  8  1  0  0  0
  8  9  1  0  0  0
  8 10  2  0  0  0
 10 11  1  0  0  0
 19 14  1  0  0  0
 11  1  1  0  0  0
 10  3  1  0  0  0
 13 20  1  0  0  0
  6 12  1  0  0  0
M  END
> <minimizedAffinity>
-6.99387

> <CNNscore>
0.7234693170

> <CNNaffinity>
7.0627121925

> <CNN_VS>
5.1096553802

> <CNNaffinity_variance>
0.6749274731

$$$$
[H]Oc1c([H])c([H])c(-c2nc3c([H])c(O[H])c([H])c(Br)c3o2)c([H])c1[H]


 20 22  0  0  0  0  0  0  0  0999 V2000
    9.3987   46.0788  130.8369 C   0  0  0  0  0  0  0  0  0  0  0  0
    8.6258   46.4379  129.7962 N   0  0  0  0  0  0  0  0  0  0  0  0
    8.3344   47.7616  129.8681 C   0  0  0  0  0  0  0  0  0  0  0  0
    7.6174   48.6476  129.1187 C   0  0  0  0  0  0  0  0  0  0  0  0
    7.4790   49.9830  129.4291 C   0  0  0  0  0  0  0  0  0  0  0  0
    6.7416   50.8685  128.6484 O   0  0  0  0  0  0  0  0  0  0  0  0
    8.1229   50.4176  130.5830 C   0  0  0  0  0  0  0  0  0  0  0  0
    8.8526   49.5358  131.3534 C   0  0  0  0  0  0  0  0  0  0  0  0
    9.7145   50.1762  132.9207 Br  0  0  0  0  0  0  0  0  0  0  0  0
    8.9726   48.1933  131.0120 C   0  0  0  0  0  0  0  0  0  0  0  0
    9.5856   47.1637  131.5463 O   0  0  0  0  0  0  0  0  0  0  0  0
    7.2664   51.3438  127.9038 H   0  0  0  0  0  0  0  0  0  0  0  0
   11.5248   41.0069  132.0450 O   0  0  0  0  0  0  0  0  0  0  0  0
   10.9768   42.2530  131.7188 C   0  0  0  0  0  0  0  0  0  0  0  0
   10.0669   42.3790  130.7078 C   0  0  0  0  0  0  0  0  0  0  0  0
    9.5366   43.6332  130.4039 C   0  0  0  0  0  0  0  0  0  0  0  0
    9.9239   44.7289  131.1118 C   0  0  0  0  0  0  0  0  0  0  0  0
   10.8432   44.5628  132.1240 C   0  0  0  0  0  0  0  0  0  0  0  0
   11.3908   43.3516  132.4581 C   0  0  0  0  0  0  0  0  0  0  0  0
   12.1967   40.8941  132.7869 H   0  0  0  0  0  0  0  0  0  0  0  0
 13 14  1  0  0  0
 14 15  2  0  0  0
 15 16  1  0  0  0
 16 17  2  0  0  0
 17 18  1  0  0  0
 18 19  2  0  0  0
 17  1  1  0  0  0
  1  2  2  0  0  0
  2  3  1  0  0  0
  3  4  2  0  0  0
  4  5  1  0  0  0
  5  6  1  0  0  0
  5  7  2  0  0  0
  7  8  1  0  0  0
  8  9  1  0  0  0
  8 10  2  0  0  0
 10 11  1  0  0  0
 19 14  1  0  0  0
 11  1  1  0  0  0
 10  3  1  0  0  0
 13 20  1  0  0  0
  6 12  1  0  0  0
M  END
> <minimizedAffinity>
-6.69321

> <CNNscore>
0.7020575404

> <CNNaffinity>
7.0701322556

> <CNN_VS>
4.9636397362

> <CNNaffinity_variance>
0.9493615031

$$$$
[H]Oc1c([H])c([H])c(-c2nc3c([H])c(O[H])c([H])c(Br)c3o2)c([H])c1[H]


 20 22  0  0  0  0  0  0  0  0999 V2000
    9.5161   47.0418  130.9708 C   0  0  0  0  0  0  0  0  0  0  0  0
   10.4913   47.0531  131.8971 N   0  0  0  0  0  0  0  0  0  0  0  0
   10.9239   45.7883  132.1326 C   0  0  0  0  0  0  0  0  0  0  0  0
   11.8588   45.2082  132.9390 C   0  0  0  0  0  0  0  0  0  0  0  0
   12.1027   43.8527  132.9831 C   0  0  0  0  0  0  0  0  0  0  0  0
   13.0627   43.2837  133.8149 O   0  0  0  0  0  0  0  0  0  0  0  0
   11.3300   43.0597  132.1410 C   0  0  0  0  0  0  0  0  0  0  0  0
   10.3797   43.6287  131.3184 C   0  0  0  0  0  0  0  0  0  0  0  0
    9.3489   42.5046  130.1858 Br  0  0  0  0  0  0  0  0  0  0  0  0
   10.1583   45.0012  131.2979 C   0  0  0  0  0  0  0  0  0  0  0  0
    9.3441   45.7878  130.6346 O   0  0  0  0  0  0  0  0  0  0  0  0
   14.0026   43.1954  133.4092 H   0  0  0  0  0  0  0  0  0  0  0  0
    6.6912   51.4040  128.8037 O   0  0  0  0  0  0  0  0  0  0  0  0
    7.4035   50.3401  129.3698 C   0  0  0  0  0  0  0  0  0  0  0  0
    8.0822   50.4936  130.5452 C   0  0  0  0  0  0  0  0  0  0  0  0
    8.7840   49.4162  131.0870 C   0  0  0  0  0  0  0  0  0  0  0  0
    8.7931   48.2153  130.4473 C   0  0  0  0  0  0  0  0  0  0  0  0
    8.0973   48.0985  129.2644 C   0  0  0  0  0  0  0  0  0  0  0  0
    7.3944   49.1280  128.6946 C   0  0  0  0  0  0  0  0  0  0  0  0
    6.1848   51.3101  127.9381 H   0  0  0  0  0  0  0  0  0  0  0  0
 13 14  1  0  0  0
 14 15  2  0  0  0
 15 16  1  0  0  0
 16 17  2  0  0  0
 17 18  1  0  0  0
 18 19  2  0  0  0
 17  1  1  0  0  0
  1  2  2  0  0  0
  2  3  1  0  0  0
  3  4  2  0  0  0
  4  5  1  0  0  0
  5  6  1  0  0  0
  5  7  2  0  0  0
  7  8  1  0  0  0
  8  9  1  0  0  0
  8 10  2  0  0  0
 10 11  1  0  0  0
 19 14  1  0  0  0
 11  1  1  0  0  0
 10  3  1  0  0  0
 13 20  1  0  0  0
  6 12  1  0  0  0
M  END
> <minimizedAffinity>
-8.69265

> <CNNscore>
0.6517125964

> <CNNaffinity>
7.0037145615

> <CNN_VS>
4.5644087791

> <CNNaffinity_variance>
0.6861490011

$$$$
[H]Oc1c([H])c([H])c(-c2nc3c([H])c(O[H])c([H])c(Br)c3o2)c([H])c1[H]


 20 22  0  0  0  0  0  0  0  0999 V2000
    9.5301   46.8813  131.1732 C   0  0  0  0  0  0  0  0  0  0  0  0
    9.7508   48.2068  131.2340 N   0  0  0  0  0  0  0  0  0  0  0  0
    8.7051   48.8779  130.6878 C   0  0  0  0  0  0  0  0  0  0  0  0
    8.3845   50.1873  130.4793 C   0  0  0  0  0  0  0  0  0  0  0  0
    7.2165   50.6079  129.8814 C   0  0  0  0  0  0  0  0  0  0  0  0
    6.9112   51.9508  129.6793 O   0  0  0  0  0  0  0  0  0  0  0  0
    6.3355   49.6093  129.4792 C   0  0  0  0  0  0  0  0  0  0  0  0
    6.6429   48.2796  129.6819 C   0  0  0  0  0  0  0  0  0  0  0  0
    5.4080   46.9515  129.1156 Br  0  0  0  0  0  0  0  0  0  0  0  0
    7.8310   47.8884  130.2888 C   0  0  0  0  0  0  0  0  0  0  0  0
    8.3637   46.7297  130.5974 O   0  0  0  0  0  0  0  0  0  0  0  0
    6.4006   52.4080  130.4448 H   0  0  0  0  0  0  0  0  0  0  0  0
   12.9345   42.7240  132.8560 O   0  0  0  0  0  0  0  0  0  0  0  0
   12.0947   43.7747  132.4681 C   0  0  0  0  0  0  0  0  0  0  0  0
   11.8977   44.8550  133.2805 C   0  0  0  0  0  0  0  0  0  0  0  0
   11.0553   45.8882  132.8689 C   0  0  0  0  0  0  0  0  0  0  0  0
   10.4308   45.8212  131.6617 C   0  0  0  0  0  0  0  0  0  0  0  0
   10.6538   44.7164  130.8699 C   0  0  0  0  0  0  0  0  0  0  0  0
   11.4720   43.6781  131.2321 C   0  0  0  0  0  0  0  0  0  0  0  0
   13.0922   41.9195  132.2709 H   0  0  0  0  0  0  0  0  0  0  0  0
 13 14  1  0  0  0
 14 15  2  0  0  0
 15 16  1  0  0  0
 16 17  2  0  0  0
 17 18  1  0  0  0
 18 19  2  0  0  0
 17  1  1  0  0  0
  1  2  2  0  0  0
  2  3  1  0  0  0
  3  4  2  0  0  0
  4  5  1  0  0  0
  5  6  1  0  0  0
  5  7  2  0  0  0
  7  8  1  0  0  0
  8  9  1  0  0  0
  8 10  2  0  0  0
 10 11  1  0  0  0
 19 14  1  0  0  0
 11  1  1  0  0  0
 10  3  1  0  0  0
 13 20  1  0  0  0
  6 12  1  0  0  0
M  END
> <minimizedAffinity>
-7.93650

> <CNNscore>
0.5861751437

> <CNNaffinity>
6.9342436790

> <CNN_VS>
4.0646810532

> <CNNaffinity_variance>
0.7488760948

$$$$
[H]Oc1c([H])c([H])c(-c2nc3c([H])c(O[H])c([H])c(Br)c3o2)c([H])c1[H]


 20 22  0  0  0  0  0  0  0  0999 V2000
    9.5402   46.1026  131.4338 C   0  0  0  0  0  0  0  0  0  0  0  0
    8.6038   45.5902  130.6153 N   0  0  0  0  0  0  0  0  0  0  0  0
    7.8487   46.5884  130.0899 C   0  0  0  0  0  0  0  0  0  0  0  0
    6.7929   46.6673  129.2298 C   0  0  0  0  0  0  0  0  0  0  0  0
    6.1952   47.8499  128.8515 C   0  0  0  0  0  0  0  0  0  0  0  0
    5.1182   47.9054  127.9716 O   0  0  0  0  0  0  0  0  0  0  0  0
    6.7272   49.0124  129.3997 C   0  0  0  0  0  0  0  0  0  0  0  0
    7.7950   48.9520  130.2714 C   0  0  0  0  0  0  0  0  0  0  0  0
    8.4871   50.5668  130.9943 Br  0  0  0  0  0  0  0  0  0  0  0  0
    8.3755   47.7415  130.6330 C   0  0  0  0  0  0  0  0  0  0  0  0
    9.3702   47.4011  131.4180 O   0  0  0  0  0  0  0  0  0  0  0  0
    5.3635   47.9912  126.9775 H   0  0  0  0  0  0  0  0  0  0  0  0
   13.4584   43.1017  134.1442 O   0  0  0  0  0  0  0  0  0  0  0  0
   12.4753   43.8630  133.5012 C   0  0  0  0  0  0  0  0  0  0  0  0
   11.6958   44.7408  134.1997 C   0  0  0  0  0  0  0  0  0  0  0  0
   10.7233   45.4871  133.5335 C   0  0  0  0  0  0  0  0  0  0  0  0
   10.5506   45.3420  132.1916 C   0  0  0  0  0  0  0  0  0  0  0  0
   11.3552   44.4476  131.5210 C   0  0  0  0  0  0  0  0  0  0  0  0
   12.3227   43.6935  132.1327 C   0  0  0  0  0  0  0  0  0  0  0  0
   14.0428   42.4496  133.6463 H   0  0  0  0  0  0  0  0  0  0  0  0
 13 14  1  0  0  0
 14 15  2  0  0  0
 15 16  1  0  0  0
 16 17  2  0  0  0
 17 18  1  0  0  0
 18 19  2  0  0  0
 17  1  1  0  0  0
  1  2  2  0  0  0
  2  3  1  0  0  0
  3  4  2  0  0  0
  4  5  1  0  0  0
  5  6  1  0  0  0
  5  7  2  0  0  0
  7  8  1  0  0  0
  8  9  1  0  0  0
  8 10  2  0  0  0
 10 11  1  0  0  0
 19 14  1  0  0  0
 11  1  1  0  0  0
 10  3  1  0  0  0
 13 20  1  0  0  0
  6 12  1  0  0  0
M  END
> <minimizedAffinity>
-5.44682

> <CNNscore>
0.5590352416

> <CNNaffinity>
6.9120712280

> <CNN_VS>
3.8640913963

> <CNNaffinity_variance>
0.9415744543

$$$$
[H]Oc1c([H])c([H])c(-c2nc3c([H])c(O[H])c([H])c(Br)c3o2)c([H])c1[H]


 20 22  0  0  0  0  0  0  0  0999 V2000
   10.9105   45.0714  131.2375 C   0  0  0  0  0  0  0  0  0  0  0  0
   12.1982   45.1065  131.6245 N   0  0  0  0  0  0  0  0  0  0  0  0
   12.3175   45.8079  132.7805 C   0  0  0  0  0  0  0  0  0  0  0  0
   13.3418   46.1606  133.6095 C   0  0  0  0  0  0  0  0  0  0  0  0
   13.1805   46.9031  134.7591 C   0  0  0  0  0  0  0  0  0  0  0  0
   14.2417   47.2510  135.5898 O   0  0  0  0  0  0  0  0  0  0  0  0
   11.8814   47.2988  135.0602 C   0  0  0  0  0  0  0  0  0  0  0  0
   10.8329   46.9512  134.2334 C   0  0  0  0  0  0  0  0  0  0  0  0
    9.0761   47.5148  134.6864 Br  0  0  0  0  0  0  0  0  0  0  0  0
   11.0297   46.2006  133.0798 C   0  0  0  0  0  0  0  0  0  0  0  0
   10.2380   45.7414  132.1397 O   0  0  0  0  0  0  0  0  0  0  0  0
   14.4539   46.5814  136.3398 H   0  0  0  0  0  0  0  0  0  0  0  0
    9.0215   42.6343  126.5261 O   0  0  0  0  0  0  0  0  0  0  0  0
    9.4659   43.2231  127.7158 C   0  0  0  0  0  0  0  0  0  0  0  0
    8.8535   42.9530  128.9066 C   0  0  0  0  0  0  0  0  0  0  0  0
    9.3171   43.5539  130.0773 C   0  0  0  0  0  0  0  0  0  0  0  0
   10.3764   44.4071  130.0345 C   0  0  0  0  0  0  0  0  0  0  0  0
   10.9682   44.6551  128.8157 C   0  0  0  0  0  0  0  0  0  0  0  0
   10.5477   44.0885  127.6406 C   0  0  0  0  0  0  0  0  0  0  0  0
    9.4601   42.8210  125.6388 H   0  0  0  0  0  0  0  0  0  0  0  0
 13 14  1  0  0  0
 14 15  2  0  0  0
 15 16  1  0  0  0
 16 17  2  0  0  0
 17 18  1  0  0  0
 18 19  2  0  0  0
 17  1  1  0  0  0
  1  2  2  0  0  0
  2  3  1  0  0  0
  3  4  2  0  0  0
  4  5  1  0  0  0
  5  6  1  0  0  0
  5  7  2  0  0  0
  7  8  1  0  0  0
  8  9  1  0  0  0
  8 10  2  0  0  0
 10 11  1  0  0  0
 19 14  1  0  0  0
 11  1  1  0  0  0
 10  3  1  0  0  0
 13 20  1  0  0  0
  6 12  1  0  0  0
M  END
> <minimizedAffinity>
5.39303

> <CNNscore>
0.4552806020

> <CNNaffinity>
6.1259951591

> <CNN_VS>
2.7890467644

> <CNNaffinity_variance>
1.3660391569

$$$$
[H]Oc1c([H])c([H])c(-c2nc3c([H])c(O[H])c([H])c(Br)c3o2)c([H])c1[H]


 20 22  0  0  0  0  0  0  0  0999 V2000
    8.8958   46.7874  130.2708 C   0  0  0  0  0  0  0  0  0  0  0  0
    9.8144   46.3357  129.3982 N   0  0  0  0  0  0  0  0  0  0  0  0
   10.7845   45.6519  130.0566 C   0  0  0  0  0  0  0  0  0  0  0  0
   11.9270   44.9939  129.7066 C   0  0  0  0  0  0  0  0  0  0  0  0
   12.7587   44.3637  130.6066 C   0  0  0  0  0  0  0  0  0  0  0  0
   13.9202   43.6982  130.2253 O   0  0  0  0  0  0  0  0  0  0  0  0
   12.3784   44.4230  131.9433 C   0  0  0  0  0  0  0  0  0  0  0  0
   11.2261   45.0840  132.3161 C   0  0  0  0  0  0  0  0  0  0  0  0
   10.7480   45.1379  134.1539 Br  0  0  0  0  0  0  0  0  0  0  0  0
   10.4082   45.7101  131.3822 C   0  0  0  0  0  0  0  0  0  0  0  0
    9.2886   46.3903  131.4553 O   0  0  0  0  0  0  0  0  0  0  0  0
   13.8055   42.7020  130.0014 H   0  0  0  0  0  0  0  0  0  0  0  0
    4.3956   49.9614  129.0965 O   0  0  0  0  0  0  0  0  0  0  0  0
    5.4968   49.1438  129.3764 C   0  0  0  0  0  0  0  0  0  0  0  0
    5.4616   47.8028  129.1185 C   0  0  0  0  0  0  0  0  0  0  0  0
    6.5737   47.0113  129.4074 C   0  0  0  0  0  0  0  0  0  0  0  0
    7.6910   47.5723  129.9446 C   0  0  0  0  0  0  0  0  0  0  0  0
    7.6894   48.9275  130.1908 C   0  0  0  0  0  0  0  0  0  0  0  0
    6.6215   49.7442  129.9237 C   0  0  0  0  0  0  0  0  0  0  0  0
    4.4026   50.9519  129.2796 H   0  0  0  0  0  0  0  0  0  0  0  0
 13 14  1  0  0  0
 14 15  2  0  0  0
 15 16  1  0  0  0
 16 17  2  0  0  0
 17 18  1  0  0  0
 18 19  2  0  0  0
 17  1  1  0  0  0
  1  2  2  0  0  0
  2  3  1  0  0  0
  3  4  2  0  0  0
  4  5  1  0  0  0
  5  6  1  0  0  0
  5  7  2  0  0  0
  7  8  1  0  0  0
  8  9  1  0  0  0
  8 10  2  0  0  0
 10 11  1  0  0  0
 19 14  1  0  0  0
 11  1  1  0  0  0
 10  3  1  0  0  0
 13 20  1  0  0  0
  6 12  1  0  0  0
M  END
> <minimizedAffinity>
-7.30208

> <CNNscore>
0.4394844174

> <CNNaffinity>
6.5633988380

> <CNN_VS>
2.8845114708

> <CNNaffinity_variance>
0.6015707254

$$$$
[H]Oc1c([H])c([H])c(-c2sc3c([H])c(O[H])c([H])c([H])c3c2C(=O)c2c([H])c([H])c([H])c([H])c2[H])c([H])c1[H]


 27 30  0  0  0  0  0  0  0  0999 V2000
    8.8845   46.0759  130.6852 C   0  0  0  0  0  0  0  0  0  0  0  0
    8.1096   46.4794  129.1823 S   0  0  0  0  0  0  0  0  0  0  0  0
    7.8568   48.1364  129.4443 C   0  0  0  0  0  0  0  0  0  0  0  0
    7.2883   49.1717  128.6749 C   0  0  0  0  0  0  0  0  0  0  0  0
    7.2363   50.4518  129.1652 C   0  0  0  0  0  0  0  0  0  0  0  0
    6.6910   51.5005  128.4538 O   0  0  0  0  0  0  0  0  0  0  0  0
    7.7549   50.6695  130.4170 C   0  0  0  0  0  0  0  0  0  0  0  0
    8.3034   49.6592  131.1546 C   0  0  0  0  0  0  0  0  0  0  0  0
    8.3724   48.3427  130.6843 C   0  0  0  0  0  0  0  0  0  0  0  0
    8.9071   47.2641  131.3326 C   0  0  0  0  0  0  0  0  0  0  0  0
    6.2904   51.4438  127.5374 H   0  0  0  0  0  0  0  0  0  0  0  0
   11.0868   41.0332  131.9408 O   0  0  0  0  0  0  0  0  0  0  0  0
   10.4782   42.2505  131.6604 C   0  0  0  0  0  0  0  0  0  0  0  0
   11.1589   43.1053  130.8431 C   0  0  0  0  0  0  0  0  0  0  0  0
   10.5752   44.3049  130.5572 C   0  0  0  0  0  0  0  0  0  0  0  0
    9.3267   44.7116  131.0490 C   0  0  0  0  0  0  0  0  0  0  0  0
    8.6841   43.8471  131.8523 C   0  0  0  0  0  0  0  0  0  0  0  0
    9.2628   42.6070  132.1600 C   0  0  0  0  0  0  0  0  0  0  0  0
   11.6912   41.0079  132.7578 H   0  0  0  0  0  0  0  0  0  0  0  0
    9.4153   47.3626  132.7439 C   0  0  0  0  0  0  0  0  0  0  0  0
    9.0019   48.3520  133.4258 O   0  0  0  0  0  0  0  0  0  0  0  0
   10.3315   46.3953  133.3134 C   0  0  0  0  0  0  0  0  0  0  0  0
   11.6308   46.3355  132.8009 C   0  0  0  0  0  0  0  0  0  0  0  0
   12.5629   45.4431  133.2718 C   0  0  0  0  0  0  0  0  0  0  0  0
   12.2477   44.5633  134.2778 C   0  0  0  0  0  0  0  0  0  0  0  0
   10.9747   44.5991  134.8020 C   0  0  0  0  0  0  0  0  0  0  0  0
   10.0269   45.5099  134.3209 C   0  0  0  0  0  0  0  0  0  0  0  0
 12 13  1  0  0  0
 13 14  2  0  0  0
 14 15  1  0  0  0
 15 16  2  0  0  0
 16 17  1  0  0  0
 17 18  2  0  0  0
 16  1  1  0  0  0
  1  2  1  0  0  0
  2  3  1  0  0  0
  3  4  2  0  0  0
  4  5  1  0  0  0
  5  6  1  0  0  0
  5  7  2  0  0  0
  7  8  1  0  0  0
  8  9  2  0  0  0
  9 10  1  0  0  0
 10 20  1  0  0  0
 20 21  2  0  0  0
 20 22  1  0  0  0
 22 23  2  0  0  0
 23 24  1  0  0  0
 24 25  2  0  0  0
 25 26  1  0  0  0
 26 27  2  0  0  0
 18 13  1  0  0  0
 10  1  2  0  0  0
 27 22  1  0  0  0
  9  3  1  0  0  0
 12 19  1  0  0  0
  6 11  1  0  0  0
M  END
> <minimizedAffinity>
-8.88953

> <CNNscore>
0.7066709399

> <CNNaffinity>
7.7236175537

> <CNN_VS>
5.4580559731

> <CNNaffinity_variance>
0.3990953863

$$$$
[H]Oc1c([H])c([H])c(-c2sc3c([H])c(O[H])c([H])c([H])c3c2C(=O)c2c([H])c([H])c([H])c([H])c2[H])c([H])c1[H]


 27 30  0  0  0  0  0  0  0  0999 V2000
    9.5360   47.1806  132.0820 C   0  0  0  0  0  0  0  0  0  0  0  0
    9.6849   48.9090  132.1919 S   0  0  0  0  0  0  0  0  0  0  0  0
    8.6191   49.3523  130.9486 C   0  0  0  0  0  0  0  0  0  0  0  0
    8.1869   50.5883  130.4263 C   0  0  0  0  0  0  0  0  0  0  0  0
    7.2805   50.6276  129.3976 C   0  0  0  0  0  0  0  0  0  0  0  0
    6.8253   51.8095  128.8504 O   0  0  0  0  0  0  0  0  0  0  0  0
    6.8248   49.4277  128.9118 C   0  0  0  0  0  0  0  0  0  0  0  0
    7.2501   48.2354  129.4248 C   0  0  0  0  0  0  0  0  0  0  0  0
    8.1735   48.1598  130.4740 C   0  0  0  0  0  0  0  0  0  0  0  0
    8.6555   47.0254  131.0659 C   0  0  0  0  0  0  0  0  0  0  0  0
    7.0957   52.7313  129.1344 H   0  0  0  0  0  0  0  0  0  0  0  0
   11.8917   43.4033  135.5514 O   0  0  0  0  0  0  0  0  0  0  0  0
   11.3800   44.3423  134.6642 C   0  0  0  0  0  0  0  0  0  0  0  0
   10.1355   44.8318  134.9360 C   0  0  0  0  0  0  0  0  0  0  0  0
    9.6183   45.7552  134.0751 C   0  0  0  0  0  0  0  0  0  0  0  0
   10.2821   46.2290  132.9345 C   0  0  0  0  0  0  0  0  0  0  0  0
   11.5047   45.7252  132.6953 C   0  0  0  0  0  0  0  0  0  0  0  0
   12.0588   44.7757  133.5664 C   0  0  0  0  0  0  0  0  0  0  0  0
   11.6870   42.4290  135.3458 H   0  0  0  0  0  0  0  0  0  0  0  0
    8.3024   45.6564  130.5552 C   0  0  0  0  0  0  0  0  0  0  0  0
    7.2245   45.1488  130.9971 O   0  0  0  0  0  0  0  0  0  0  0  0
    9.1350   44.9353  129.6138 C   0  0  0  0  0  0  0  0  0  0  0  0
   10.3054   45.5515  129.1610 C   0  0  0  0  0  0  0  0  0  0  0  0
   11.1491   44.9479  128.2606 C   0  0  0  0  0  0  0  0  0  0  0  0
   10.8693   43.6985  127.7643 C   0  0  0  0  0  0  0  0  0  0  0  0
    9.7227   43.0672  128.1922 C   0  0  0  0  0  0  0  0  0  0  0  0
    8.8650   43.6842  129.1104 C   0  0  0  0  0  0  0  0  0  0  0  0
 12 13  1  0  0  0
 13 14  2  0  0  0
 14 15  1  0  0  0
 15 16  2  0  0  0
 16 17  1  0  0  0
 17 18  2  0  0  0
 16  1  1  0  0  0
  1  2  1  0  0  0
  2  3  1  0  0  0
  3  4  2  0  0  0
  4  5  1  0  0  0
  5  6  1  0  0  0
  5  7  2  0  0  0
  7  8  1  0  0  0
  8  9  2  0  0  0
  9 10  1  0  0  0
 10 20  1  0  0  0
 20 21  2  0  0  0
 20 22  1  0  0  0
 22 23  2  0  0  0
 23 24  1  0  0  0
 24 25  2  0  0  0
 25 26  1  0  0  0
 26 27  2  0  0  0
 18 13  1  0  0  0
 10  1  2  0  0  0
 27 22  1  0  0  0
  9  3  1  0  0  0
 12 19  1  0  0  0
  6 11  1  0  0  0
M  END
> <minimizedAffinity>
-9.41282

> <CNNscore>
0.5773340464

> <CNNaffinity>
7.4625296593

> <CNN_VS>
4.3083724976

> <CNNaffinity_variance>
0.3415615559

$$$$
[H]Oc1c([H])c([H])c(-c2sc3c([H])c(O[H])c([H])c([H])c3c2C(=O)c2c([H])c([H])c([H])c([H])c2[H])c([H])c1[H]


 27 30  0  0  0  0  0  0  0  0999 V2000
    9.5188   47.3619  131.9937 C   0  0  0  0  0  0  0  0  0  0  0  0
    9.8444   49.0690  131.9572 S   0  0  0  0  0  0  0  0  0  0  0  0
    8.6365   49.5520  130.8683 C   0  0  0  0  0  0  0  0  0  0  0  0
    8.2425   50.7958  130.3347 C   0  0  0  0  0  0  0  0  0  0  0  0
    7.1882   50.8728  129.4605 C   0  0  0  0  0  0  0  0  0  0  0  0
    6.7624   52.0639  128.9098 O   0  0  0  0  0  0  0  0  0  0  0  0
    6.5493   49.7019  129.1378 C   0  0  0  0  0  0  0  0  0  0  0  0
    6.9392   48.5016  129.6602 C   0  0  0  0  0  0  0  0  0  0  0  0
    8.0100   48.3880  130.5544 C   0  0  0  0  0  0  0  0  0  0  0  0
    8.4739   47.2437  131.1417 C   0  0  0  0  0  0  0  0  0  0  0  0
    7.1604   52.9669  129.0824 H   0  0  0  0  0  0  0  0  0  0  0  0
   12.0246   43.4850  135.2411 O   0  0  0  0  0  0  0  0  0  0  0  0
   11.4743   44.4496  134.4059 C   0  0  0  0  0  0  0  0  0  0  0  0
   10.2438   44.9303  134.7476 C   0  0  0  0  0  0  0  0  0  0  0  0
    9.6892   45.8785  133.9383 C   0  0  0  0  0  0  0  0  0  0  0  0
   10.3016   46.3859  132.7835 C   0  0  0  0  0  0  0  0  0  0  0  0
   11.5117   45.8898  132.4748 C   0  0  0  0  0  0  0  0  0  0  0  0
   12.1035   44.9154  133.2918 C   0  0  0  0  0  0  0  0  0  0  0  0
   11.8100   42.5172  135.0163 H   0  0  0  0  0  0  0  0  0  0  0  0
    7.9159   45.8928  130.7901 C   0  0  0  0  0  0  0  0  0  0  0  0
    6.6646   45.7391  130.9495 O   0  0  0  0  0  0  0  0  0  0  0  0
    8.7436   44.8095  130.2993 C   0  0  0  0  0  0  0  0  0  0  0  0
    8.9384   43.7003  131.1276 C   0  0  0  0  0  0  0  0  0  0  0  0
    9.7157   42.6325  130.7501 C   0  0  0  0  0  0  0  0  0  0  0  0
   10.3397   42.6155  129.5271 C   0  0  0  0  0  0  0  0  0  0  0  0
   10.1661   43.6950  128.6899 C   0  0  0  0  0  0  0  0  0  0  0  0
    9.3729   44.7816  129.0767 C   0  0  0  0  0  0  0  0  0  0  0  0
 12 13  1  0  0  0
 13 14  2  0  0  0
 14 15  1  0  0  0
 15 16  2  0  0  0
 16 17  1  0  0  0
 17 18  2  0  0  0
 16  1  1  0  0  0
  1  2  1  0  0  0
  2  3  1  0  0  0
  3  4  2  0  0  0
  4  5  1  0  0  0
  5  6  1  0  0  0
  5  7  2  0  0  0
  7  8  1  0  0  0
  8  9  2  0  0  0
  9 10  1  0  0  0
 10 20  1  0  0  0
 20 21  2  0  0  0
 20 22  1  0  0  0
 22 23  2  0  0  0
 23 24  1  0  0  0
 24 25  2  0  0  0
 25 26  1  0  0  0
 26 27  2  0  0  0
 18 13  1  0  0  0
 10  1  2  0  0  0
 27 22  1  0  0  0
  9  3  1  0  0  0
 12 19  1  0  0  0
  6 11  1  0  0  0
M  END
> <minimizedAffinity>
-8.20889

> <CNNscore>
0.5419717431

> <CNNaffinity>
7.4694223404

> <CNN_VS>
4.0482158661

> <CNNaffinity_variance>
0.2759540081

$$$$
[H]Oc1c([H])c([H])c(-c2sc3c([H])c(O[H])c([H])c([H])c3c2C(=O)c2c([H])c([H])c([H])c([H])c2[H])c([H])c1[H]


 27 30  0  0  0  0  0  0  0  0999 V2000
    8.6774   46.5066  129.7827 C   0  0  0  0  0  0  0  0  0  0  0  0
    7.4063   47.1989  128.8201 S   0  0  0  0  0  0  0  0  0  0  0  0
    7.5172   48.8092  129.3426 C   0  0  0  0  0  0  0  0  0  0  0  0
    6.8262   49.9930  129.0138 C   0  0  0  0  0  0  0  0  0  0  0  0
    7.1615   51.1808  129.6124 C   0  0  0  0  0  0  0  0  0  0  0  0
    6.5175   52.3669  129.3267 O   0  0  0  0  0  0  0  0  0  0  0  0
    8.1826   51.1593  130.5290 C   0  0  0  0  0  0  0  0  0  0  0  0
    8.8458   50.0066  130.8408 C   0  0  0  0  0  0  0  0  0  0  0  0
    8.5291   48.7785  130.2487 C   0  0  0  0  0  0  0  0  0  0  0  0
    9.1330   47.5737  130.4794 C   0  0  0  0  0  0  0  0  0  0  0  0
    5.7653   52.4855  128.6759 H   0  0  0  0  0  0  0  0  0  0  0  0
    9.5926   40.9423  130.0184 O   0  0  0  0  0  0  0  0  0  0  0  0
    9.4266   42.3178  129.9128 C   0  0  0  0  0  0  0  0  0  0  0  0
    8.5868   42.9074  130.8122 C   0  0  0  0  0  0  0  0  0  0  0  0
    8.4129   44.2577  130.7227 C   0  0  0  0  0  0  0  0  0  0  0  0
    9.0395   45.0721  129.7687 C   0  0  0  0  0  0  0  0  0  0  0  0
    9.8585   44.4594  128.8971 C   0  0  0  0  0  0  0  0  0  0  0  0
   10.0548   43.0725  128.9695 C   0  0  0  0  0  0  0  0  0  0  0  0
    8.9471   40.3669  129.4839 H   0  0  0  0  0  0  0  0  0  0  0  0
   10.1955   47.4106  131.5303 C   0  0  0  0  0  0  0  0  0  0  0  0
   11.3605   47.8154  131.2239 O   0  0  0  0  0  0  0  0  0  0  0  0
    9.9278   46.8217  132.8268 C   0  0  0  0  0  0  0  0  0  0  0  0
   10.7218   45.7480  133.2406 C   0  0  0  0  0  0  0  0  0  0  0  0
   10.5333   45.1211  134.4482 C   0  0  0  0  0  0  0  0  0  0  0  0
    9.5427   45.5318  135.3059 C   0  0  0  0  0  0  0  0  0  0  0  0
    8.7446   46.5872  134.9246 C   0  0  0  0  0  0  0  0  0  0  0  0
    8.9392   47.2248  133.6938 C   0  0  0  0  0  0  0  0  0  0  0  0
 12 13  1  0  0  0
 13 14  2  0  0  0
 14 15  1  0  0  0
 15 16  2  0  0  0
 16 17  1  0  0  0
 17 18  2  0  0  0
 16  1  1  0  0  0
  1  2  1  0  0  0
  2  3  1  0  0  0
  3  4  2  0  0  0
  4  5  1  0  0  0
  5  6  1  0  0  0
  5  7  2  0  0  0
  7  8  1  0  0  0
  8  9  2  0  0  0
  9 10  1  0  0  0
 10 20  1  0  0  0
 20 21  2  0  0  0
 20 22  1  0  0  0
 22 23  2  0  0  0
 23 24  1  0  0  0
 24 25  2  0  0  0
 25 26  1  0  0  0
 26 27  2  0  0  0
 18 13  1  0  0  0
 10  1  2  0  0  0
 27 22  1  0  0  0
  9  3  1  0  0  0
 12 19  1  0  0  0
  6 11  1  0  0  0
M  END
> <minimizedAffinity>
-4.43735

> <CNNscore>
0.4826461077

> <CNNaffinity>
7.3695716858

> <CNN_VS>
3.5568950176

> <CNNaffinity_variance>
0.5732990503

$$$$
[H]Oc1c([H])c([H])c(-c2sc3c([H])c(O[H])c([H])c([H])c3c2C(=O)c2c([H])c([H])c([H])c([H])c2[H])c([H])c1[H]


 27 30  0  0  0  0  0  0  0  0999 V2000
    9.6288   47.1845  131.9520 C   0  0  0  0  0  0  0  0  0  0  0  0
    9.8646   48.8993  132.1115 S   0  0  0  0  0  0  0  0  0  0  0  0
    8.6786   49.4381  131.0245 C   0  0  0  0  0  0  0  0  0  0  0  0
    8.2415   50.7117  130.6076 C   0  0  0  0  0  0  0  0  0  0  0  0
    7.2216   50.8315  129.6982 C   0  0  0  0  0  0  0  0  0  0  0  0
    6.7563   52.0531  129.2572 O   0  0  0  0  0  0  0  0  0  0  0  0
    6.6596   49.6728  129.2239 C   0  0  0  0  0  0  0  0  0  0  0  0
    7.0908   48.4433  129.6342 C   0  0  0  0  0  0  0  0  0  0  0  0
    8.1283   48.2858  130.5604 C   0  0  0  0  0  0  0  0  0  0  0  0
    8.6277   47.1085  131.0444 C   0  0  0  0  0  0  0  0  0  0  0  0
    7.0983   52.9503  129.5427 H   0  0  0  0  0  0  0  0  0  0  0  0
   13.1046   43.4438  134.3562 O   0  0  0  0  0  0  0  0  0  0  0  0
   12.1979   44.3492  133.8188 C   0  0  0  0  0  0  0  0  0  0  0  0
   12.4680   44.8219  132.5676 C   0  0  0  0  0  0  0  0  0  0  0  0
   11.5874   45.7115  132.0249 C   0  0  0  0  0  0  0  0  0  0  0  0
   10.4291   46.1680  132.6698 C   0  0  0  0  0  0  0  0  0  0  0  0
   10.1939   45.6842  133.9012 C   0  0  0  0  0  0  0  0  0  0  0  0
   11.0836   44.7674  134.4803 C   0  0  0  0  0  0  0  0  0  0  0  0
   13.8725   43.8382  134.8932 H   0  0  0  0  0  0  0  0  0  0  0  0
    8.1572   45.7781  130.5262 C   0  0  0  0  0  0  0  0  0  0  0  0
    7.0014   45.4033  130.8982 O   0  0  0  0  0  0  0  0  0  0  0  0
    8.9645   44.9502  129.6532 C   0  0  0  0  0  0  0  0  0  0  0  0
    9.9655   45.5679  128.8976 C   0  0  0  0  0  0  0  0  0  0  0  0
   10.7713   44.8644  128.0359 C   0  0  0  0  0  0  0  0  0  0  0  0
   10.6205   43.5082  127.8822 C   0  0  0  0  0  0  0  0  0  0  0  0
    9.6420   42.8726  128.6136 C   0  0  0  0  0  0  0  0  0  0  0  0
    8.8226   43.5917  129.4916 C   0  0  0  0  0  0  0  0  0  0  0  0
 12 13  1  0  0  0
 13 14  2  0  0  0
 14 15  1  0  0  0
 15 16  2  0  0  0
 16 17  1  0  0  0
 17 18  2  0  0  0
 16  1  1  0  0  0
  1  2  1  0  0  0
  2  3  1  0  0  0
  3  4  2  0  0  0
  4  5  1  0  0  0
  5  6  1  0  0  0
  5  7  2  0  0  0
  7  8  1  0  0  0
  8  9  2  0  0  0
  9 10  1  0  0  0
 10 20  1  0  0  0
 20 21  2  0  0  0
 20 22  1  0  0  0
 22 23  2  0  0  0
 23 24  1  0  0  0
 24 25  2  0  0  0
 25 26  1  0  0  0
 26 27  2  0  0  0
 18 13  1  0  0  0
 10  1  2  0  0  0
 27 22  1  0  0  0
  9  3  1  0  0  0
 12 19  1  0  0  0
  6 11  1  0  0  0
M  END
> <minimizedAffinity>
-9.26284

> <CNNscore>
0.4754346609

> <CNNaffinity>
7.3531179428

> <CNN_VS>
3.4959270954

> <CNNaffinity_variance>
0.2294657677

$$$$
[H]Oc1c([H])c([H])c(-c2sc3c([H])c(O[H])c([H])c([H])c3c2C(=O)c2c([H])c([H])c([H])c([H])c2[H])c([H])c1[H]


 27 30  0  0  0  0  0  0  0  0999 V2000
    8.5656   46.7740  129.5358 C   0  0  0  0  0  0  0  0  0  0  0  0
    9.3382   46.0298  128.1680 S   0  0  0  0  0  0  0  0  0  0  0  0
    9.4060   44.4312  128.7318 C   0  0  0  0  0  0  0  0  0  0  0  0
    9.8845   43.2223  128.1870 C   0  0  0  0  0  0  0  0  0  0  0  0
    9.7857   42.0538  128.8986 C   0  0  0  0  0  0  0  0  0  0  0  0
   10.2379   40.8447  128.4120 O   0  0  0  0  0  0  0  0  0  0  0  0
    9.2095   42.1193  130.1425 C   0  0  0  0  0  0  0  0  0  0  0  0
    8.7492   43.2959  130.6615 C   0  0  0  0  0  0  0  0  0  0  0  0
    8.8344   44.5054  129.9622 C   0  0  0  0  0  0  0  0  0  0  0  0
    8.3977   45.7312  130.3820 C   0  0  0  0  0  0  0  0  0  0  0  0
   10.6697   40.6941  127.5208 H   0  0  0  0  0  0  0  0  0  0  0  0
    6.9100   52.1684  129.6562 O   0  0  0  0  0  0  0  0  0  0  0  0
    7.3784   50.8602  129.6682 C   0  0  0  0  0  0  0  0  0  0  0  0
    6.7860   49.9863  128.8037 C   0  0  0  0  0  0  0  0  0  0  0  0
    7.2343   48.6978  128.8023 C   0  0  0  0  0  0  0  0  0  0  0  0
    8.2598   48.2186  129.6299 C   0  0  0  0  0  0  0  0  0  0  0  0
    8.8203   49.1047  130.4703 C   0  0  0  0  0  0  0  0  0  0  0  0
    8.3777   50.4355  130.4896 C   0  0  0  0  0  0  0  0  0  0  0  0
    6.1434   52.3796  130.2896 H   0  0  0  0  0  0  0  0  0  0  0  0
    7.8397   45.9412  131.7619 C   0  0  0  0  0  0  0  0  0  0  0  0
    6.5731   45.9492  131.8643 O   0  0  0  0  0  0  0  0  0  0  0  0
    8.6829   46.1315  132.9248 C   0  0  0  0  0  0  0  0  0  0  0  0
    9.9895   46.5870  132.7253 C   0  0  0  0  0  0  0  0  0  0  0  0
   10.8625   46.7854  133.7670 C   0  0  0  0  0  0  0  0  0  0  0  0
   10.4782   46.5393  135.0622 C   0  0  0  0  0  0  0  0  0  0  0  0
    9.1967   46.0893  135.2892 C   0  0  0  0  0  0  0  0  0  0  0  0
    8.3088   45.8886  134.2258 C   0  0  0  0  0  0  0  0  0  0  0  0
 12 13  1  0  0  0
 13 14  2  0  0  0
 14 15  1  0  0  0
 15 16  2  0  0  0
 16 17  1  0  0  0
 17 18  2  0  0  0
 16  1  1  0  0  0
  1  2  1  0  0  0
  2  3  1  0  0  0
  3  4  2  0  0  0
  4  5  1  0  0  0
  5  6  1  0  0  0
  5  7  2  0  0  0
  7  8  1  0  0  0
  8  9  2  0  0  0
  9 10  1  0  0  0
 10 20  1  0  0  0
 20 21  2  0  0  0
 20 22  1  0  0  0
 22 23  2  0  0  0
 23 24  1  0  0  0
 24 25  2  0  0  0
 25 26  1  0  0  0
 26 27  2  0  0  0
 18 13  1  0  0  0
 10  1  2  0  0  0
 27 22  1  0  0  0
  9  3  1  0  0  0
 12 19  1  0  0  0
  6 11  1  0  0  0
M  END
> <minimizedAffinity>
-1.54569

> <CNNscore>
0.4260371923

> <CNNaffinity>
7.1385965347

> <CNN_VS>
3.0413076878

> <CNNaffinity_variance>
0.8500761986

$$$$
[H]Oc1c([H])c([H])c(-c2sc3c([H])c(O[H])c([H])c([H])c3c2C(=O)c2c([H])c([H])c([H])c([H])c2[H])c([H])c1[H]


 27 30  0  0  0  0  0  0  0  0999 V2000
    9.9825   44.7686  131.4423 C   0  0  0  0  0  0  0  0  0  0  0  0
   11.0973   44.1059  132.5998 S   0  0  0  0  0  0  0  0  0  0  0  0
   10.4404   44.7667  134.0175 C   0  0  0  0  0  0  0  0  0  0  0  0
   10.7782   44.6808  135.3834 C   0  0  0  0  0  0  0  0  0  0  0  0
   10.0271   45.3355  136.3261 C   0  0  0  0  0  0  0  0  0  0  0  0
   10.3142   45.2844  137.6745 O   0  0  0  0  0  0  0  0  0  0  0  0
    8.9521   46.0639  135.8819 C   0  0  0  0  0  0  0  0  0  0  0  0
    8.6334   46.1410  134.5559 C   0  0  0  0  0  0  0  0  0  0  0  0
    9.3783   45.4853  133.5688 C   0  0  0  0  0  0  0  0  0  0  0  0
    9.1416   45.4872  132.2221 C   0  0  0  0  0  0  0  0  0  0  0  0
   11.0720   44.7825  138.0956 H   0  0  0  0  0  0  0  0  0  0  0  0
   10.6840   44.3539  125.8574 O   0  0  0  0  0  0  0  0  0  0  0  0
   10.4722   44.3906  127.2302 C   0  0  0  0  0  0  0  0  0  0  0  0
   10.7596   45.5631  127.8664 C   0  0  0  0  0  0  0  0  0  0  0  0
   10.5567   45.6162  129.2145 C   0  0  0  0  0  0  0  0  0  0  0  0
   10.0747   44.5466  129.9824 C   0  0  0  0  0  0  0  0  0  0  0  0
    9.8035   43.4063  129.3252 C   0  0  0  0  0  0  0  0  0  0  0  0
   10.0024   43.3272  127.9390 C   0  0  0  0  0  0  0  0  0  0  0  0
   11.6066   44.0573  125.5505 H   0  0  0  0  0  0  0  0  0  0  0  0
    8.0532   46.3258  131.6122 C   0  0  0  0  0  0  0  0  0  0  0  0
    6.9351   45.7516  131.4250 O   0  0  0  0  0  0  0  0  0  0  0  0
    8.2492   47.7138  131.2457 C   0  0  0  0  0  0  0  0  0  0  0  0
    7.5525   48.2091  130.1395 C   0  0  0  0  0  0  0  0  0  0  0  0
    7.6846   49.5081  129.7129 C   0  0  0  0  0  0  0  0  0  0  0  0
    8.5191   50.3808  130.3669 C   0  0  0  0  0  0  0  0  0  0  0  0
    9.2187   49.9206  131.4601 C   0  0  0  0  0  0  0  0  0  0  0  0
    9.0816   48.5966  131.8932 C   0  0  0  0  0  0  0  0  0  0  0  0
 12 13  1  0  0  0
 13 14  2  0  0  0
 14 15  1  0  0  0
 15 16  2  0  0  0
 16 17  1  0  0  0
 17 18  2  0  0  0
 16  1  1  0  0  0
  1  2  1  0  0  0
  2  3  1  0  0  0
  3  4  2  0  0  0
  4  5  1  0  0  0
  5  6  1  0  0  0
  5  7  2  0  0  0
  7  8  1  0  0  0
  8  9  2  0  0  0
  9 10  1  0  0  0
 10 20  1  0  0  0
 20 21  2  0  0  0
 20 22  1  0  0  0
 22 23  2  0  0  0
 23 24  1  0  0  0
 24 25  2  0  0  0
 25 26  1  0  0  0
 26 27  2  0  0  0
 18 13  1  0  0  0
 10  1  2  0  0  0
 27 22  1  0  0  0
  9  3  1  0  0  0
 12 19  1  0  0  0
  6 11  1  0  0  0
M  END
> <minimizedAffinity>
0.73752

> <CNNscore>
0.4090404510

> <CNNaffinity>
7.2778296471

> <CNN_VS>
2.9769268036

> <CNNaffinity_variance>
1.3785821199

$$$$
[H]Oc1c([H])c([H])c(-c2sc3c([H])c(O[H])c([H])c([H])c3c2C(=O)c2c([H])c([H])c([H])c([H])c2[H])c([H])c1[H]


 27 30  0  0  0  0  0  0  0  0999 V2000
    9.0698   46.4595  129.6219 C   0  0  0  0  0  0  0  0  0  0  0  0
   10.3953   46.5974  128.5058 S   0  0  0  0  0  0  0  0  0  0  0  0
   11.4801   45.5184  129.2388 C   0  0  0  0  0  0  0  0  0  0  0  0
   12.7797   45.0736  128.9224 C   0  0  0  0  0  0  0  0  0  0  0  0
   13.4138   44.1585  129.7237 C   0  0  0  0  0  0  0  0  0  0  0  0
   14.6845   43.6907  129.4593 O   0  0  0  0  0  0  0  0  0  0  0  0
   12.7334   43.7070  130.8267 C   0  0  0  0  0  0  0  0  0  0  0  0
   11.4743   44.1446  131.1246 C   0  0  0  0  0  0  0  0  0  0  0  0
   10.7991   45.0771  130.3285 C   0  0  0  0  0  0  0  0  0  0  0  0
    9.5402   45.5717  130.5287 C   0  0  0  0  0  0  0  0  0  0  0  0
   15.2594   43.9571  128.6834 H   0  0  0  0  0  0  0  0  0  0  0  0
    4.5591   49.8142  129.1186 O   0  0  0  0  0  0  0  0  0  0  0  0
    5.6226   48.9282  129.2396 C   0  0  0  0  0  0  0  0  0  0  0  0
    6.8262   49.4575  129.6045 C   0  0  0  0  0  0  0  0  0  0  0  0
    7.8812   48.6012  129.7284 C   0  0  0  0  0  0  0  0  0  0  0  0
    7.8056   47.2191  129.5045 C   0  0  0  0  0  0  0  0  0  0  0  0
    6.6064   46.7310  129.1448 C   0  0  0  0  0  0  0  0  0  0  0  0
    5.5062   47.5909  129.0121 C   0  0  0  0  0  0  0  0  0  0  0  0
    4.4218   50.2329  128.2024 H   0  0  0  0  0  0  0  0  0  0  0  0
    8.7398   45.2238  131.7527 C   0  0  0  0  0  0  0  0  0  0  0  0
    7.8472   44.3307  131.6094 O   0  0  0  0  0  0  0  0  0  0  0  0
    8.9551   45.8638  133.0346 C   0  0  0  0  0  0  0  0  0  0  0  0
    8.7064   47.2357  133.1374 C   0  0  0  0  0  0  0  0  0  0  0  0
    8.8932   47.9275  134.3093 C   0  0  0  0  0  0  0  0  0  0  0  0
    9.3384   47.2875  135.4396 C   0  0  0  0  0  0  0  0  0  0  0  0
    9.5922   45.9359  135.3680 C   0  0  0  0  0  0  0  0  0  0  0  0
    9.4003   45.2330  134.1728 C   0  0  0  0  0  0  0  0  0  0  0  0
 12 13  1  0  0  0
 13 14  2  0  0  0
 14 15  1  0  0  0
 15 16  2  0  0  0
 16 17  1  0  0  0
 17 18  2  0  0  0
 16  1  1  0  0  0
  1  2  1  0  0  0
  2  3  1  0  0  0
  3  4  2  0  0  0
  4  5  1  0  0  0
  5  6  1  0  0  0
  5  7  2  0  0  0
  7  8  1  0  0  0
  8  9  2  0  0  0
  9 10  1  0  0  0
 10 20  1  0  0  0
 20 21  2  0  0  0
 20 22  1  0  0  0
 22 23  2  0  0  0
 23 24  1  0  0  0
 24 25  2  0  0  0
 25 26  1  0  0  0
 26 27  2  0  0  0
 18 13  1  0  0  0
 10  1  2  0  0  0
 27 22  1  0  0  0
  9  3  1  0  0  0
 12 19  1  0  0  0
  6 11  1  0  0  0
M  END
> <minimizedAffinity>
-4.95368

> <CNNscore>
0.3935146034

> <CNNaffinity>
7.0443010330

> <CNN_VS>
2.7720353603

> <CNNaffinity_variance>
0.7149227858

$$$$
[H]Oc1c([H])c([H])c(-c2sc3c([H])c(O[H])c([H])c([H])c3c2C(=O)c2c([H])c([H])c([H])c([H])c2[H])c([H])c1[H]


 27 30  0  0  0  0  0  0  0  0999 V2000
   10.1726   46.1060  131.1490 C   0  0  0  0  0  0  0  0  0  0  0  0
   10.0525   47.3734  129.9654 S   0  0  0  0  0  0  0  0  0  0  0  0
   10.2272   46.4453  128.5560 C   0  0  0  0  0  0  0  0  0  0  0  0
   10.2272   46.7494  127.1796 C   0  0  0  0  0  0  0  0  0  0  0  0
   10.3815   45.7532  126.2493 C   0  0  0  0  0  0  0  0  0  0  0  0
   10.3888   45.9966  124.8914 O   0  0  0  0  0  0  0  0  0  0  0  0
   10.5331   44.4717  126.7163 C   0  0  0  0  0  0  0  0  0  0  0  0
   10.5319   44.1877  128.0523 C   0  0  0  0  0  0  0  0  0  0  0  0
   10.3767   45.1798  129.0274 C   0  0  0  0  0  0  0  0  0  0  0  0
   10.3503   45.0044  130.3831 C   0  0  0  0  0  0  0  0  0  0  0  0
   10.2853   46.8918  124.4540 H   0  0  0  0  0  0  0  0  0  0  0  0
    9.3993   46.9078  136.6820 O   0  0  0  0  0  0  0  0  0  0  0  0
    9.6648   46.7081  135.3327 C   0  0  0  0  0  0  0  0  0  0  0  0
    8.6315   46.9122  134.4652 C   0  0  0  0  0  0  0  0  0  0  0  0
    8.8754   46.7209  133.1365 C   0  0  0  0  0  0  0  0  0  0  0  0
   10.1147   46.3292  132.6105 C   0  0  0  0  0  0  0  0  0  0  0  0
   11.1100   46.1350  133.4922 C   0  0  0  0  0  0  0  0  0  0  0  0
   10.8846   46.3266  134.8633 C   0  0  0  0  0  0  0  0  0  0  0  0
    9.0714   46.0985  137.2025 H   0  0  0  0  0  0  0  0  0  0  0  0
   10.6023   43.6621  131.0113 C   0  0  0  0  0  0  0  0  0  0  0  0
   11.6971   43.0926  130.7078 O   0  0  0  0  0  0  0  0  0  0  0  0
    9.6588   43.0320  131.9125 C   0  0  0  0  0  0  0  0  0  0  0  0
    8.4259   42.6224  131.3964 C   0  0  0  0  0  0  0  0  0  0  0  0
    7.4666   42.0267  132.1785 C   0  0  0  0  0  0  0  0  0  0  0  0
    7.6866   41.8090  133.5163 C   0  0  0  0  0  0  0  0  0  0  0  0
    8.8923   42.2026  134.0527 C   0  0  0  0  0  0  0  0  0  0  0  0
    9.8685   42.8088  133.2533 C   0  0  0  0  0  0  0  0  0  0  0  0
 12 13  1  0  0  0
 13 14  2  0  0  0
 14 15  1  0  0  0
 15 16  2  0  0  0
 16 17  1  0  0  0
 17 18  2  0  0  0
 16  1  1  0  0  0
  1  2  1  0  0  0
  2  3  1  0  0  0
  3  4  2  0  0  0
  4  5  1  0  0  0
  5  6  1  0  0  0
  5  7  2  0  0  0
  7  8  1  0  0  0
  8  9  2  0  0  0
  9 10  1  0  0  0
 10 20  1  0  0  0
 20 21  2  0  0  0
 20 22  1  0  0  0
 22 23  2  0  0  0
 23 24  1  0  0  0
 24 25  2  0  0  0
 25 26  1  0  0  0
 26 27  2  0  0  0
 18 13  1  0  0  0
 10  1  2  0  0  0
 27 22  1  0  0  0
  9  3  1  0  0  0
 12 19  1  0  0  0
  6 11  1  0  0  0
M  END
> <minimizedAffinity>
9.03160

> <CNNscore>
0.3468175232

> <CNNaffinity>
6.7330183983

> <CNN_VS>
2.3351287842

> <CNNaffinity_variance>
1.3566144705

$$$$
