[H]c1c([H])c(C(=O)N([H])[C@]2([H])C([H])([H])[C@]3([H])C([H])([H])N(S(=O)(=O)c4c([H])c([H])c(OC([H])([H])[H])c([H])c4[H])C([H])([H])[C@]32[H])c([H])c(C(F)(F)F)c1[H]


 32 35  0  0  0  0  0  0  0  0999 V2000
    9.0102   46.2667  129.5364 N   0  0  0  0  0  0  0  0  0  0  0  0
    7.9660   47.2313  129.2396 C   0  0  0  0  0  0  0  0  0  0  0  0
    8.6678   48.5082  129.4348 C   0  0  0  0  0  0  0  0  0  0  0  0
    8.2797   49.6522  130.2047 C   0  0  0  0  0  0  0  0  0  0  0  0
    9.7421   49.4890  130.7846 C   0  0  0  0  0  0  0  0  0  0  0  0
    9.3145   48.1003  130.7990 C   0  0  0  0  0  0  0  0  0  0  0  0
   10.0203   46.9463  130.3127 C   0  0  0  0  0  0  0  0  0  0  0  0
    8.1102   50.9636  129.6779 N   0  0  0  0  0  0  0  0  0  0  0  0
    7.5330   51.0810  128.3862 C   0  0  0  0  0  0  0  0  0  0  0  0
    7.1855   50.0342  127.7243 O   0  0  0  0  0  0  0  0  0  0  0  0
    8.3976   51.7935  130.2099 H   0  0  0  0  0  0  0  0  0  0  0  0
    7.2782   52.3301  127.7069 C   0  0  0  0  0  0  0  0  0  0  0  0
    6.5846   53.3213  128.3495 C   0  0  0  0  0  0  0  0  0  0  0  0
    6.3988   54.4969  127.6503 C   0  0  0  0  0  0  0  0  0  0  0  0
    6.8834   54.6611  126.3818 C   0  0  0  0  0  0  0  0  0  0  0  0
    7.5733   53.6696  125.7485 C   0  0  0  0  0  0  0  0  0  0  0  0
    7.7764   52.4743  126.4256 C   0  0  0  0  0  0  0  0  0  0  0  0
    8.1177   53.8143  124.3688 C   0  0  0  0  0  0  0  0  0  0  0  0
    9.3281   54.4508  124.4597 F   0  0  0  0  0  0  0  0  0  0  0  0
    8.2258   52.5813  123.7274 F   0  0  0  0  0  0  0  0  0  0  0  0
    7.2712   54.6570  123.6667 F   0  0  0  0  0  0  0  0  0  0  0  0
    8.3370   44.8886  130.2591 S   0  0  0  0  0  0  0  0  0  0  0  0
    8.2158   43.7441  129.2638 O   0  0  0  0  0  0  0  0  0  0  0  0
    6.9308   45.1407  130.7457 O   0  0  0  0  0  0  0  0  0  0  0  0
   10.9993   43.5365  133.6957 C   0  0  0  0  0  0  0  0  0  0  0  0
   10.0643   44.5799  133.8121 C   0  0  0  0  0  0  0  0  0  0  0  0
    9.2599   44.9763  132.7716 C   0  0  0  0  0  0  0  0  0  0  0  0
    9.3550   44.3317  131.5397 C   0  0  0  0  0  0  0  0  0  0  0  0
   10.2447   43.3206  131.3915 C   0  0  0  0  0  0  0  0  0  0  0  0
   11.0581   42.9298  132.4656 C   0  0  0  0  0  0  0  0  0  0  0  0
   11.3460   43.5382  136.0912 C   0  0  0  0  0  0  0  0  0  0  0  0
   11.7690   43.2063  134.7937 O   0  0  0  0  0  0  0  0  0  0  0  0
 31 32  1  0  0  0
 32 25  1  0  0  0
 25 26  2  0  0  0
 26 27  1  0  0  0
 27 28  2  0  0  0
 28 29  1  0  0  0
 29 30  2  0  0  0
 28 22  1  0  0  0
 22 23  2  0  0  0
 22 24  2  0  0  0
 22  1  1  0  0  0
  1  2  1  0  0  0
  2  3  1  0  0  0
  3  4  1  0  0  0
  4  5  1  0  0  0
  5  6  1  0  0  0
  6  7  1  0  0  0
  4  8  1  0  0  0
  8  9  1  0  0  0
  9 10  2  0  0  0
  9 12  1  0  0  0
 12 13  2  0  0  0
 13 14  1  0  0  0
 14 15  2  0  0  0
 15 16  1  0  0  0
 16 17  2  0  0  0
 16 18  1  0  0  0
 18 19  1  0  0  0
 18 20  1  0  0  0
 18 21  1  0  0  0
 30 25  1  0  0  0
  7  1  1  0  0  0
 17 12  1  0  0  0
  6  3  1  0  0  0
  8 11  1  0  0  0
M  END
> <minimizedAffinity>
5.55779

> <CNNscore>
0.4716715813

> <CNNaffinity>
6.8969054222

> <CNN_VS>
3.2530741692

> <CNNaffinity_variance>
0.4234698713

$$$$
[H]c1c([H])c(C(=O)N([H])[C@]2([H])C([H])([H])[C@]3([H])C([H])([H])N(S(=O)(=O)c4c([H])c([H])c(OC([H])([H])[H])c([H])c4[H])C([H])([H])[C@]32[H])c([H])c(C(F)(F)F)c1[H]


 32 35  0  0  0  0  0  0  0  0999 V2000
   10.3588   43.0270  130.4054 N   0  0  0  0  0  0  0  0  0  0  0  0
    9.7159   44.2502  130.8522 C   0  0  0  0  0  0  0  0  0  0  0  0
    9.7512   45.0738  129.6349 C   0  0  0  0  0  0  0  0  0  0  0  0
   10.2032   46.4218  129.4604 C   0  0  0  0  0  0  0  0  0  0  0  0
   11.0201   45.7661  128.2753 C   0  0  0  0  0  0  0  0  0  0  0  0
   11.2521   44.7755  129.3129 C   0  0  0  0  0  0  0  0  0  0  0  0
   11.1247   43.3464  129.2239 C   0  0  0  0  0  0  0  0  0  0  0  0
    9.4005   47.4876  128.9647 N   0  0  0  0  0  0  0  0  0  0  0  0
    8.6495   48.2358  129.9091 C   0  0  0  0  0  0  0  0  0  0  0  0
    8.6964   47.9481  131.1619 O   0  0  0  0  0  0  0  0  0  0  0  0
    9.3628   47.7055  127.9620 H   0  0  0  0  0  0  0  0  0  0  0  0
    7.7947   49.3539  129.5837 C   0  0  0  0  0  0  0  0  0  0  0  0
    8.3539   50.5514  129.2234 C   0  0  0  0  0  0  0  0  0  0  0  0
    7.4783   51.5691  128.9020 C   0  0  0  0  0  0  0  0  0  0  0  0
    6.1231   51.3884  128.9418 C   0  0  0  0  0  0  0  0  0  0  0  0
    5.5737   50.1929  129.3014 C   0  0  0  0  0  0  0  0  0  0  0  0
    6.4285   49.1493  129.6310 C   0  0  0  0  0  0  0  0  0  0  0  0
    4.1027   49.9594  129.3532 C   0  0  0  0  0  0  0  0  0  0  0  0
    3.6271   50.5316  130.5042 F   0  0  0  0  0  0  0  0  0  0  0  0
    3.4630   50.4608  128.2207 F   0  0  0  0  0  0  0  0  0  0  0  0
    3.8953   48.5942  129.4665 F   0  0  0  0  0  0  0  0  0  0  0  0
   11.2361   42.3351  131.6805 S   0  0  0  0  0  0  0  0  0  0  0  0
   12.7304   42.3434  131.3937 O   0  0  0  0  0  0  0  0  0  0  0  0
   10.8800   40.8825  131.8831 O   0  0  0  0  0  0  0  0  0  0  0  0
   10.5014   44.7882  135.4446 C   0  0  0  0  0  0  0  0  0  0  0  0
    9.4866   44.4659  134.5268 C   0  0  0  0  0  0  0  0  0  0  0  0
    9.7161   43.7189  133.3972 C   0  0  0  0  0  0  0  0  0  0  0  0
   11.0000   43.2481  133.1286 C   0  0  0  0  0  0  0  0  0  0  0  0
   12.0029   43.5386  133.9922 C   0  0  0  0  0  0  0  0  0  0  0  0
   11.7493   44.3033  135.1407 C   0  0  0  0  0  0  0  0  0  0  0  0
    9.5422   46.7898  136.4100 C   0  0  0  0  0  0  0  0  0  0  0  0
   10.1808   45.5471  136.5529 O   0  0  0  0  0  0  0  0  0  0  0  0
 31 32  1  0  0  0
 32 25  1  0  0  0
 25 26  2  0  0  0
 26 27  1  0  0  0
 27 28  2  0  0  0
 28 29  1  0  0  0
 29 30  2  0  0  0
 28 22  1  0  0  0
 22 23  2  0  0  0
 22 24  2  0  0  0
 22  1  1  0  0  0
  1  2  1  0  0  0
  2  3  1  0  0  0
  3  4  1  0  0  0
  4  5  1  0  0  0
  5  6  1  0  0  0
  6  7  1  0  0  0
  4  8  1  0  0  0
  8  9  1  0  0  0
  9 10  2  0  0  0
  9 12  1  0  0  0
 12 13  2  0  0  0
 13 14  1  0  0  0
 14 15  2  0  0  0
 15 16  1  0  0  0
 16 17  2  0  0  0
 16 18  1  0  0  0
 18 19  1  0  0  0
 18 20  1  0  0  0
 18 21  1  0  0  0
 30 25  1  0  0  0
  7  1  1  0  0  0
 17 12  1  0  0  0
  6  3  1  0  0  0
  8 11  1  0  0  0
M  END
> <minimizedAffinity>
9.09830

> <CNNscore>
0.4203251898

> <CNNaffinity>
7.5932664871

> <CNN_VS>
3.1916410923

> <CNNaffinity_variance>
2.4119911194

$$$$
[H]c1c([H])c(C(=O)N([H])[C@]2([H])C([H])([H])[C@]3([H])C([H])([H])N(S(=O)(=O)c4c([H])c([H])c(OC([H])([H])[H])c([H])c4[H])C([H])([H])[C@]32[H])c([H])c(C(F)(F)F)c1[H]


 32 35  0  0  0  0  0  0  0  0999 V2000
    7.9082   46.6902  131.4411 N   0  0  0  0  0  0  0  0  0  0  0  0
    8.7370   47.4014  130.4838 C   0  0  0  0  0  0  0  0  0  0  0  0
    7.7494   48.2445  129.7946 C   0  0  0  0  0  0  0  0  0  0  0  0
    7.5229   48.4194  128.3910 C   0  0  0  0  0  0  0  0  0  0  0  0
    6.0287   48.1197  128.8141 C   0  0  0  0  0  0  0  0  0  0  0  0
    6.7132   47.0928  129.5814 C   0  0  0  0  0  0  0  0  0  0  0  0
    6.5453   46.7579  130.9691 C   0  0  0  0  0  0  0  0  0  0  0  0
    7.5929   49.6664  127.7083 N   0  0  0  0  0  0  0  0  0  0  0  0
    7.1979   50.8276  128.4233 C   0  0  0  0  0  0  0  0  0  0  0  0
    6.7885   50.7424  129.6397 O   0  0  0  0  0  0  0  0  0  0  0  0
    7.9136   49.7244  126.7346 H   0  0  0  0  0  0  0  0  0  0  0  0
    7.2169   52.1704  127.8912 C   0  0  0  0  0  0  0  0  0  0  0  0
    6.9259   53.2282  128.7115 C   0  0  0  0  0  0  0  0  0  0  0  0
    6.9869   54.4846  128.1430 C   0  0  0  0  0  0  0  0  0  0  0  0
    7.3210   54.6614  126.8284 C   0  0  0  0  0  0  0  0  0  0  0  0
    7.6096   53.6032  126.0178 C   0  0  0  0  0  0  0  0  0  0  0  0
    7.5565   52.3259  126.5603 C   0  0  0  0  0  0  0  0  0  0  0  0
    7.9799   53.7585  124.5826 C   0  0  0  0  0  0  0  0  0  0  0  0
    6.9826   54.4684  123.9662 F   0  0  0  0  0  0  0  0  0  0  0  0
    9.2223   54.3736  124.4366 F   0  0  0  0  0  0  0  0  0  0  0  0
    7.9896   52.4970  124.0098 F   0  0  0  0  0  0  0  0  0  0  0  0
    8.5194   45.1283  131.6884 S   0  0  0  0  0  0  0  0  0  0  0  0
    7.5709   44.0697  131.1455 O   0  0  0  0  0  0  0  0  0  0  0  0
    8.6692   44.8104  133.1562 O   0  0  0  0  0  0  0  0  0  0  0  0
   12.3988   44.5645  129.3735 C   0  0  0  0  0  0  0  0  0  0  0  0
   11.1303   44.5276  128.7686 C   0  0  0  0  0  0  0  0  0  0  0  0
    9.9653   44.7061  129.4740 C   0  0  0  0  0  0  0  0  0  0  0  0
   10.0169   44.9362  130.8475 C   0  0  0  0  0  0  0  0  0  0  0  0
   11.2228   44.9795  131.4639 C   0  0  0  0  0  0  0  0  0  0  0  0
   12.4020   44.7946  130.7269 C   0  0  0  0  0  0  0  0  0  0  0  0
   14.7996   44.3428  129.1601 C   0  0  0  0  0  0  0  0  0  0  0  0
   13.5176   44.3720  128.5872 O   0  0  0  0  0  0  0  0  0  0  0  0
 31 32  1  0  0  0
 32 25  1  0  0  0
 25 26  2  0  0  0
 26 27  1  0  0  0
 27 28  2  0  0  0
 28 29  1  0  0  0
 29 30  2  0  0  0
 28 22  1  0  0  0
 22 23  2  0  0  0
 22 24  2  0  0  0
 22  1  1  0  0  0
  1  2  1  0  0  0
  2  3  1  0  0  0
  3  4  1  0  0  0
  4  5  1  0  0  0
  5  6  1  0  0  0
  6  7  1  0  0  0
  4  8  1  0  0  0
  8  9  1  0  0  0
  9 10  2  0  0  0
  9 12  1  0  0  0
 12 13  2  0  0  0
 13 14  1  0  0  0
 14 15  2  0  0  0
 15 16  1  0  0  0
 16 17  2  0  0  0
 16 18  1  0  0  0
 18 19  1  0  0  0
 18 20  1  0  0  0
 18 21  1  0  0  0
 30 25  1  0  0  0
  7  1  1  0  0  0
 17 12  1  0  0  0
  6  3  1  0  0  0
  8 11  1  0  0  0
M  END
> <minimizedAffinity>
5.28684

> <CNNscore>
0.4000127316

> <CNNaffinity>
6.7179212570

> <CNN_VS>
2.6872539520

> <CNNaffinity_variance>
0.3609225750

$$$$
[H]c1c([H])c(C(=O)N([H])[C@]2([H])C([H])([H])[C@]3([H])C([H])([H])N(S(=O)(=O)c4c([H])c([H])c(OC([H])([H])[H])c([H])c4[H])C([H])([H])[C@]32[H])c([H])c(C(F)(F)F)c1[H]


 32 35  0  0  0  0  0  0  0  0999 V2000
   11.6962   45.6285  134.5054 N   0  0  0  0  0  0  0  0  0  0  0  0
   11.2365   46.1551  133.2325 C   0  0  0  0  0  0  0  0  0  0  0  0
   10.1736   47.0798  133.6524 C   0  0  0  0  0  0  0  0  0  0  0  0
    8.8260   47.1930  133.1801 C   0  0  0  0  0  0  0  0  0  0  0  0
    8.5066   47.1300  134.7279 C   0  0  0  0  0  0  0  0  0  0  0  0
    9.4970   46.0705  134.6369 C   0  0  0  0  0  0  0  0  0  0  0  0
   10.6468   45.8526  135.4716 C   0  0  0  0  0  0  0  0  0  0  0  0
    8.2616   48.3716  132.6159 N   0  0  0  0  0  0  0  0  0  0  0  0
    7.9780   48.3608  131.2248 C   0  0  0  0  0  0  0  0  0  0  0  0
    8.2312   47.3213  130.5108 O   0  0  0  0  0  0  0  0  0  0  0  0
    8.0699   49.1998  133.1918 H   0  0  0  0  0  0  0  0  0  0  0  0
    7.3954   49.4616  130.4931 C   0  0  0  0  0  0  0  0  0  0  0  0
    8.0876   50.6378  130.3747 C   0  0  0  0  0  0  0  0  0  0  0  0
    7.4821   51.6386  129.6416 C   0  0  0  0  0  0  0  0  0  0  0  0
    6.2547   51.4623  129.0642 C   0  0  0  0  0  0  0  0  0  0  0  0
    5.5717   50.2881  129.1864 C   0  0  0  0  0  0  0  0  0  0  0  0
    6.1542   49.2618  129.9184 C   0  0  0  0  0  0  0  0  0  0  0  0
    4.2345   50.0598  128.5691 C   0  0  0  0  0  0  0  0  0  0  0  0
    3.3870   49.6219  129.5532 F   0  0  0  0  0  0  0  0  0  0  0  0
    3.7548   51.2095  127.9436 F   0  0  0  0  0  0  0  0  0  0  0  0
    4.3614   49.0248  127.6568 F   0  0  0  0  0  0  0  0  0  0  0  0
   12.1884   44.0166  134.3213 S   0  0  0  0  0  0  0  0  0  0  0  0
   11.6704   43.1459  135.4565 O   0  0  0  0  0  0  0  0  0  0  0  0
   13.6906   43.8797  134.3711 O   0  0  0  0  0  0  0  0  0  0  0  0
   10.5473   42.3961  130.3961 C   0  0  0  0  0  0  0  0  0  0  0  0
   11.5957   43.3303  130.4638 C   0  0  0  0  0  0  0  0  0  0  0  0
   12.0894   43.8083  131.6531 C   0  0  0  0  0  0  0  0  0  0  0  0
   11.5457   43.3626  132.8565 C   0  0  0  0  0  0  0  0  0  0  0  0
   10.5345   42.4611  132.8294 C   0  0  0  0  0  0  0  0  0  0  0  0
   10.0432   41.9845  131.6048 C   0  0  0  0  0  0  0  0  0  0  0  0
    9.8333   42.8994  128.1388 C   0  0  0  0  0  0  0  0  0  0  0  0
   10.1120   41.9720  129.1560 O   0  0  0  0  0  0  0  0  0  0  0  0
 31 32  1  0  0  0
 32 25  1  0  0  0
 25 26  2  0  0  0
 26 27  1  0  0  0
 27 28  2  0  0  0
 28 29  1  0  0  0
 29 30  2  0  0  0
 28 22  1  0  0  0
 22 23  2  0  0  0
 22 24  2  0  0  0
 22  1  1  0  0  0
  1  2  1  0  0  0
  2  3  1  0  0  0
  3  4  1  0  0  0
  4  5  1  0  0  0
  5  6  1  0  0  0
  6  7  1  0  0  0
  4  8  1  0  0  0
  8  9  1  0  0  0
  9 10  2  0  0  0
  9 12  1  0  0  0
 12 13  2  0  0  0
 13 14  1  0  0  0
 14 15  2  0  0  0
 15 16  1  0  0  0
 16 17  2  0  0  0
 16 18  1  0  0  0
 18 19  1  0  0  0
 18 20  1  0  0  0
 18 21  1  0  0  0
 30 25  1  0  0  0
  7  1  1  0  0  0
 17 12  1  0  0  0
  6  3  1  0  0  0
  8 11  1  0  0  0
M  END
> <minimizedAffinity>
8.02015

> <CNNscore>
0.3965105712

> <CNNaffinity>
7.3574190140

> <CNN_VS>
2.9172945023

> <CNNaffinity_variance>
1.2205650806

$$$$
[H]c1c([H])c(C(=O)N([H])[C@]2([H])C([H])([H])[C@]3([H])C([H])([H])N(S(=O)(=O)c4c([H])c([H])c(OC([H])([H])[H])c([H])c4[H])C([H])([H])[C@]32[H])c([H])c(C(F)(F)F)c1[H]


 32 35  0  0  0  0  0  0  0  0999 V2000
   10.0001   48.0244  132.8152 N   0  0  0  0  0  0  0  0  0  0  0  0
   10.4306   48.4433  131.4930 C   0  0  0  0  0  0  0  0  0  0  0  0
    9.4427   49.4820  131.1669 C   0  0  0  0  0  0  0  0  0  0  0  0
    8.6436   49.6408  129.9888 C   0  0  0  0  0  0  0  0  0  0  0  0
    7.4822   49.7675  131.0549 C   0  0  0  0  0  0  0  0  0  0  0  0
    8.2047   48.6356  131.6104 C   0  0  0  0  0  0  0  0  0  0  0  0
    8.6219   48.4261  132.9699 C   0  0  0  0  0  0  0  0  0  0  0  0
    8.6583   50.7897  129.1487 N   0  0  0  0  0  0  0  0  0  0  0  0
    7.4055   51.3285  128.7539 C   0  0  0  0  0  0  0  0  0  0  0  0
    6.3056   50.7866  129.1425 O   0  0  0  0  0  0  0  0  0  0  0  0
    9.5411   51.2113  128.8367 H   0  0  0  0  0  0  0  0  0  0  0  0
    7.2355   52.4934  127.9168 C   0  0  0  0  0  0  0  0  0  0  0  0
    6.5397   53.5734  128.3924 C   0  0  0  0  0  0  0  0  0  0  0  0
    6.4369   54.6611  127.5487 C   0  0  0  0  0  0  0  0  0  0  0  0
    7.0018   54.6582  126.3029 C   0  0  0  0  0  0  0  0  0  0  0  0
    7.6934   53.5792  125.8365 C   0  0  0  0  0  0  0  0  0  0  0  0
    7.8140   52.4688  126.6617 C   0  0  0  0  0  0  0  0  0  0  0  0
    8.3239   53.5420  124.4866 C   0  0  0  0  0  0  0  0  0  0  0  0
    9.6675   53.7620  124.6446 F   0  0  0  0  0  0  0  0  0  0  0  0
    8.0678   52.3375  123.8332 F   0  0  0  0  0  0  0  0  0  0  0  0
    7.8241   54.6087  123.7572 F   0  0  0  0  0  0  0  0  0  0  0  0
   10.3079   46.3708  133.0275 S   0  0  0  0  0  0  0  0  0  0  0  0
    9.4931   45.7987  134.1781 O   0  0  0  0  0  0  0  0  0  0  0  0
   11.7485   46.1110  133.3951 O   0  0  0  0  0  0  0  0  0  0  0  0
    9.2261   44.0962  129.2351 C   0  0  0  0  0  0  0  0  0  0  0  0
   10.5458   44.4426  129.5738 C   0  0  0  0  0  0  0  0  0  0  0  0
   10.8637   45.1227  130.7240 C   0  0  0  0  0  0  0  0  0  0  0  0
    9.8533   45.4948  131.6089 C   0  0  0  0  0  0  0  0  0  0  0  0
    8.5694   45.1764  131.3153 C   0  0  0  0  0  0  0  0  0  0  0  0
    8.2641   44.4816  130.1355 C   0  0  0  0  0  0  0  0  0  0  0  0
   10.0465   42.7505  127.3982 C   0  0  0  0  0  0  0  0  0  0  0  0
    8.9981   43.4139  128.0563 O   0  0  0  0  0  0  0  0  0  0  0  0
 31 32  1  0  0  0
 32 25  1  0  0  0
 25 26  2  0  0  0
 26 27  1  0  0  0
 27 28  2  0  0  0
 28 29  1  0  0  0
 29 30  2  0  0  0
 28 22  1  0  0  0
 22 23  2  0  0  0
 22 24  2  0  0  0
 22  1  1  0  0  0
  1  2  1  0  0  0
  2  3  1  0  0  0
  3  4  1  0  0  0
  4  5  1  0  0  0
  5  6  1  0  0  0
  6  7  1  0  0  0
  4  8  1  0  0  0
  8  9  1  0  0  0
  9 10  2  0  0  0
  9 12  1  0  0  0
 12 13  2  0  0  0
 13 14  1  0  0  0
 14 15  2  0  0  0
 15 16  1  0  0  0
 16 17  2  0  0  0
 16 18  1  0  0  0
 18 19  1  0  0  0
 18 20  1  0  0  0
 18 21  1  0  0  0
 30 25  1  0  0  0
  7  1  1  0  0  0
 17 12  1  0  0  0
  6  3  1  0  0  0
  8 11  1  0  0  0
M  END
> <minimizedAffinity>
5.55670

> <CNNscore>
0.3102453351

> <CNNaffinity>
6.8305406570

> <CNN_VS>
2.1191434860

> <CNNaffinity_variance>
0.2567395568

$$$$
[H]c1c([H])c(C(=O)N([H])[C@]2([H])C([H])([H])[C@]3([H])C([H])([H])N(S(=O)(=O)c4c([H])c([H])c(OC([H])([H])[H])c([H])c4[H])C([H])([H])[C@]32[H])c([H])c(C(F)(F)F)c1[H]


 32 35  0  0  0  0  0  0  0  0999 V2000
   10.3919   43.1427  130.2289 N   0  0  0  0  0  0  0  0  0  0  0  0
    9.4130   44.1284  130.6521 C   0  0  0  0  0  0  0  0  0  0  0  0
    9.3956   45.0501  129.5069 C   0  0  0  0  0  0  0  0  0  0  0  0
    9.5155   46.4774  129.4849 C   0  0  0  0  0  0  0  0  0  0  0  0
   10.6134   46.1527  128.3937 C   0  0  0  0  0  0  0  0  0  0  0  0
   10.9519   45.1506  129.3902 C   0  0  0  0  0  0  0  0  0  0  0  0
   11.1973   43.7478  129.1945 C   0  0  0  0  0  0  0  0  0  0  0  0
    8.5418   47.3639  128.9445 N   0  0  0  0  0  0  0  0  0  0  0  0
    7.9386   48.2937  129.8317 C   0  0  0  0  0  0  0  0  0  0  0  0
    8.2639   48.3206  131.0759 O   0  0  0  0  0  0  0  0  0  0  0  0
    8.2824   47.3303  127.9516 H   0  0  0  0  0  0  0  0  0  0  0  0
    6.9445   49.2705  129.4521 C   0  0  0  0  0  0  0  0  0  0  0  0
    5.6181   49.0072  129.6711 C   0  0  0  0  0  0  0  0  0  0  0  0
    4.7249   49.9946  129.3067 C   0  0  0  0  0  0  0  0  0  0  0  0
    5.1451   51.1741  128.7560 C   0  0  0  0  0  0  0  0  0  0  0  0
    6.4677   51.4291  128.5412 C   0  0  0  0  0  0  0  0  0  0  0  0
    7.3912   50.4550  128.8969 C   0  0  0  0  0  0  0  0  0  0  0  0
    6.9615   52.7032  127.9462 C   0  0  0  0  0  0  0  0  0  0  0  0
    7.3850   53.5087  128.9711 F   0  0  0  0  0  0  0  0  0  0  0  0
    7.9712   52.4762  127.0123 F   0  0  0  0  0  0  0  0  0  0  0  0
    5.8825   53.3390  127.3536 F   0  0  0  0  0  0  0  0  0  0  0  0
   11.2453   42.5602  131.5731 S   0  0  0  0  0  0  0  0  0  0  0  0
   12.7474   42.5932  131.3327 O   0  0  0  0  0  0  0  0  0  0  0  0
   10.9219   41.1140  131.8592 O   0  0  0  0  0  0  0  0  0  0  0  0
   10.3176   45.2215  135.1484 C   0  0  0  0  0  0  0  0  0  0  0  0
    9.3302   44.7424  134.2699 C   0  0  0  0  0  0  0  0  0  0  0  0
    9.6185   43.9338  133.1976 C   0  0  0  0  0  0  0  0  0  0  0  0
   10.9375   43.5576  132.9503 C   0  0  0  0  0  0  0  0  0  0  0  0
   11.9154   43.9998  133.7774 C   0  0  0  0  0  0  0  0  0  0  0  0
   11.6016   44.8253  134.8674 C   0  0  0  0  0  0  0  0  0  0  0  0
    9.2409   47.2293  135.9656 C   0  0  0  0  0  0  0  0  0  0  0  0
    9.9373   46.0323  136.1996 O   0  0  0  0  0  0  0  0  0  0  0  0
 31 32  1  0  0  0
 32 25  1  0  0  0
 25 26  2  0  0  0
 26 27  1  0  0  0
 27 28  2  0  0  0
 28 29  1  0  0  0
 29 30  2  0  0  0
 28 22  1  0  0  0
 22 23  2  0  0  0
 22 24  2  0  0  0
 22  1  1  0  0  0
  1  2  1  0  0  0
  2  3  1  0  0  0
  3  4  1  0  0  0
  4  5  1  0  0  0
  5  6  1  0  0  0
  6  7  1  0  0  0
  4  8  1  0  0  0
  8  9  1  0  0  0
  9 10  2  0  0  0
  9 12  1  0  0  0
 12 13  2  0  0  0
 13 14  1  0  0  0
 14 15  2  0  0  0
 15 16  1  0  0  0
 16 17  2  0  0  0
 16 18  1  0  0  0
 18 19  1  0  0  0
 18 20  1  0  0  0
 18 21  1  0  0  0
 30 25  1  0  0  0
  7  1  1  0  0  0
 17 12  1  0  0  0
  6  3  1  0  0  0
  8 11  1  0  0  0
M  END
> <minimizedAffinity>
6.33325

> <CNNscore>
0.2942273021

> <CNNaffinity>
7.3073797226

> <CNN_VS>
2.1500306129

> <CNNaffinity_variance>
1.0490366220

$$$$
[H]c1c([H])c(C(=O)N([H])[C@]2([H])C([H])([H])[C@]3([H])C([H])([H])N(S(=O)(=O)c4c([H])c([H])c(OC([H])([H])[H])c([H])c4[H])C([H])([H])[C@]32[H])c([H])c(C(F)(F)F)c1[H]


 32 35  0  0  0  0  0  0  0  0999 V2000
    9.2493   42.0501  131.5195 N   0  0  0  0  0  0  0  0  0  0  0  0
    8.8871   43.4454  131.6956 C   0  0  0  0  0  0  0  0  0  0  0  0
    8.4608   43.8219  130.3400 C   0  0  0  0  0  0  0  0  0  0  0  0
    8.8549   44.9428  129.5399 C   0  0  0  0  0  0  0  0  0  0  0  0
    9.1006   43.8121  128.4616 C   0  0  0  0  0  0  0  0  0  0  0  0
    9.6929   43.1756  129.6260 C   0  0  0  0  0  0  0  0  0  0  0  0
    9.4866   41.8383  130.1111 C   0  0  0  0  0  0  0  0  0  0  0  0
    7.9615   45.9219  129.0211 N   0  0  0  0  0  0  0  0  0  0  0  0
    7.5247   46.9437  129.9048 C   0  0  0  0  0  0  0  0  0  0  0  0
    7.9238   46.9697  131.1273 O   0  0  0  0  0  0  0  0  0  0  0  0
    7.6418   45.8891  128.0459 H   0  0  0  0  0  0  0  0  0  0  0  0
    6.6311   48.0198  129.5442 C   0  0  0  0  0  0  0  0  0  0  0  0
    5.3289   47.7401  129.2237 C   0  0  0  0  0  0  0  0  0  0  0  0
    4.5250   48.8184  128.9130 C   0  0  0  0  0  0  0  0  0  0  0  0
    5.0061   50.0988  128.9256 C   0  0  0  0  0  0  0  0  0  0  0  0
    6.3039   50.3693  129.2460 C   0  0  0  0  0  0  0  0  0  0  0  0
    7.1383   49.3055  129.5629 C   0  0  0  0  0  0  0  0  0  0  0  0
    6.8613   51.7513  129.2725 C   0  0  0  0  0  0  0  0  0  0  0  0
    8.1210   51.6856  129.8085 F   0  0  0  0  0  0  0  0  0  0  0  0
    6.8660   52.3275  128.0031 F   0  0  0  0  0  0  0  0  0  0  0  0
    6.0904   52.5012  130.1460 F   0  0  0  0  0  0  0  0  0  0  0  0
   10.5387   41.6526  132.5461 S   0  0  0  0  0  0  0  0  0  0  0  0
   11.5814   40.8108  131.8255 O   0  0  0  0  0  0  0  0  0  0  0  0
   10.0869   40.8094  133.7134 O   0  0  0  0  0  0  0  0  0  0  0  0
   12.5525   45.4493  134.0480 C   0  0  0  0  0  0  0  0  0  0  0  0
   11.6631   44.6905  134.8286 C   0  0  0  0  0  0  0  0  0  0  0  0
   11.0656   43.5420  134.3696 C   0  0  0  0  0  0  0  0  0  0  0  0
   11.3378   43.0889  133.0800 C   0  0  0  0  0  0  0  0  0  0  0  0
   12.1914   43.7946  132.2996 C   0  0  0  0  0  0  0  0  0  0  0  0
   12.7919   44.9656  132.7857 C   0  0  0  0  0  0  0  0  0  0  0  0
   12.2991   47.7000  134.9014 C   0  0  0  0  0  0  0  0  0  0  0  0
   13.1052   46.5930  134.5899 O   0  0  0  0  0  0  0  0  0  0  0  0
 31 32  1  0  0  0
 32 25  1  0  0  0
 25 26  2  0  0  0
 26 27  1  0  0  0
 27 28  2  0  0  0
 28 29  1  0  0  0
 29 30  2  0  0  0
 28 22  1  0  0  0
 22 23  2  0  0  0
 22 24  2  0  0  0
 22  1  1  0  0  0
  1  2  1  0  0  0
  2  3  1  0  0  0
  3  4  1  0  0  0
  4  5  1  0  0  0
  5  6  1  0  0  0
  6  7  1  0  0  0
  4  8  1  0  0  0
  8  9  1  0  0  0
  9 10  2  0  0  0
  9 12  1  0  0  0
 12 13  2  0  0  0
 13 14  1  0  0  0
 14 15  2  0  0  0
 15 16  1  0  0  0
 16 17  2  0  0  0
 16 18  1  0  0  0
 18 19  1  0  0  0
 18 20  1  0  0  0
 18 21  1  0  0  0
 30 25  1  0  0  0
  7  1  1  0  0  0
 17 12  1  0  0  0
  6  3  1  0  0  0
  8 11  1  0  0  0
M  END
> <minimizedAffinity>
8.61796

> <CNNscore>
0.2661956251

> <CNNaffinity>
7.2031545639

> <CNN_VS>
1.9174482822

> <CNNaffinity_variance>
0.9153760672

$$$$
[H]c1c([H])c(C(=O)N([H])[C@]2([H])C([H])([H])[C@]3([H])C([H])([H])N(S(=O)(=O)c4c([H])c([H])c(OC([H])([H])[H])c([H])c4[H])C([H])([H])[C@]32[H])c([H])c(C(F)(F)F)c1[H]


 32 35  0  0  0  0  0  0  0  0999 V2000
    8.5365   43.9456  129.2079 N   0  0  0  0  0  0  0  0  0  0  0  0
    8.2075   44.9542  130.1996 C   0  0  0  0  0  0  0  0  0  0  0  0
    8.5834   46.1952  129.5068 C   0  0  0  0  0  0  0  0  0  0  0  0
    9.3978   47.2818  129.9628 C   0  0  0  0  0  0  0  0  0  0  0  0
   10.1194   47.0396  128.5764 C   0  0  0  0  0  0  0  0  0  0  0  0
    9.9720   45.6641  129.0215 C   0  0  0  0  0  0  0  0  0  0  0  0
    9.4725   44.5375  128.2815 C   0  0  0  0  0  0  0  0  0  0  0  0
    8.9658   48.6348  130.0550 N   0  0  0  0  0  0  0  0  0  0  0  0
    7.8458   49.0195  129.2719 C   0  0  0  0  0  0  0  0  0  0  0  0
    7.2557   48.1698  128.5076 O   0  0  0  0  0  0  0  0  0  0  0  0
    9.4475   49.3086  130.6619 H   0  0  0  0  0  0  0  0  0  0  0  0
    7.2684   50.3435  129.2525 C   0  0  0  0  0  0  0  0  0  0  0  0
    6.4842   50.7557  130.2973 C   0  0  0  0  0  0  0  0  0  0  0  0
    5.9855   52.0409  130.2246 C   0  0  0  0  0  0  0  0  0  0  0  0
    6.2619   52.8583  129.1633 C   0  0  0  0  0  0  0  0  0  0  0  0
    7.0437   52.4408  128.1267 C   0  0  0  0  0  0  0  0  0  0  0  0
    7.5602   51.1524  128.1703 C   0  0  0  0  0  0  0  0  0  0  0  0
    7.3677   53.3046  126.9562 C   0  0  0  0  0  0  0  0  0  0  0  0
    8.1903   54.3105  127.3918 F   0  0  0  0  0  0  0  0  0  0  0  0
    7.9463   52.5713  125.9214 F   0  0  0  0  0  0  0  0  0  0  0  0
    6.1910   53.9013  126.5329 F   0  0  0  0  0  0  0  0  0  0  0  0
    9.0645   42.5293  129.9758 S   0  0  0  0  0  0  0  0  0  0  0  0
    9.9533   41.7007  129.0600 O   0  0  0  0  0  0  0  0  0  0  0  0
    7.9123   41.6231  130.3352 O   0  0  0  0  0  0  0  0  0  0  0  0
   11.4455   43.5952  133.7070 C   0  0  0  0  0  0  0  0  0  0  0  0
   10.0863   43.2373  133.7384 C   0  0  0  0  0  0  0  0  0  0  0  0
    9.3776   42.9101  132.6082 C   0  0  0  0  0  0  0  0  0  0  0  0
   10.0108   42.9248  131.3667 C   0  0  0  0  0  0  0  0  0  0  0  0
   11.3209   43.2639  131.2986 C   0  0  0  0  0  0  0  0  0  0  0  0
   12.0281   43.5953  132.4639 C   0  0  0  0  0  0  0  0  0  0  0  0
   11.5468   43.4924  136.1231 C   0  0  0  0  0  0  0  0  0  0  0  0
   12.0785   43.9119  134.8927 O   0  0  0  0  0  0  0  0  0  0  0  0
 31 32  1  0  0  0
 32 25  1  0  0  0
 25 26  2  0  0  0
 26 27  1  0  0  0
 27 28  2  0  0  0
 28 29  1  0  0  0
 29 30  2  0  0  0
 28 22  1  0  0  0
 22 23  2  0  0  0
 22 24  2  0  0  0
 22  1  1  0  0  0
  1  2  1  0  0  0
  2  3  1  0  0  0
  3  4  1  0  0  0
  4  5  1  0  0  0
  5  6  1  0  0  0
  6  7  1  0  0  0
  4  8  1  0  0  0
  8  9  1  0  0  0
  9 10  2  0  0  0
  9 12  1  0  0  0
 12 13  2  0  0  0
 13 14  1  0  0  0
 14 15  2  0  0  0
 15 16  1  0  0  0
 16 17  2  0  0  0
 16 18  1  0  0  0
 18 19  1  0  0  0
 18 20  1  0  0  0
 18 21  1  0  0  0
 30 25  1  0  0  0
  7  1  1  0  0  0
 17 12  1  0  0  0
  6  3  1  0  0  0
  8 11  1  0  0  0
M  END
> <minimizedAffinity>
5.75772

> <CNNscore>
0.2153762728

> <CNNaffinity>
6.8901414871

> <CNN_VS>
1.4839730263

> <CNNaffinity_variance>
0.3738486767

$$$$
[H]c1c([H])c(C(=O)N([H])[C@]2([H])C([H])([H])[C@]3([H])C([H])([H])N(S(=O)(=O)c4c([H])c([H])c(OC([H])([H])[H])c([H])c4[H])C([H])([H])[C@]32[H])c([H])c(C(F)(F)F)c1[H]


 32 35  0  0  0  0  0  0  0  0999 V2000
   11.4830   46.3050  133.9216 N   0  0  0  0  0  0  0  0  0  0  0  0
   11.0094   46.7462  132.6216 C   0  0  0  0  0  0  0  0  0  0  0  0
    9.8248   47.5384  132.9827 C   0  0  0  0  0  0  0  0  0  0  0  0
    8.4922   47.4733  132.4613 C   0  0  0  0  0  0  0  0  0  0  0  0
    8.1254   47.3996  133.9980 C   0  0  0  0  0  0  0  0  0  0  0  0
    9.2426   46.4709  133.9661 C   0  0  0  0  0  0  0  0  0  0  0  0
   10.3785   46.4140  134.8452 C   0  0  0  0  0  0  0  0  0  0  0  0
    7.8072   48.5613  131.8506 N   0  0  0  0  0  0  0  0  0  0  0  0
    7.1118   48.3011  130.6405 C   0  0  0  0  0  0  0  0  0  0  0  0
    7.1129   47.1238  130.1224 O   0  0  0  0  0  0  0  0  0  0  0  0
    7.8181   49.4998  132.2671 H   0  0  0  0  0  0  0  0  0  0  0  0
    6.3567   49.2818  129.8958 C   0  0  0  0  0  0  0  0  0  0  0  0
    5.0077   49.1130  129.7277 C   0  0  0  0  0  0  0  0  0  0  0  0
    4.3451   50.1006  129.0268 C   0  0  0  0  0  0  0  0  0  0  0  0
    5.0038   51.1904  128.5274 C   0  0  0  0  0  0  0  0  0  0  0  0
    6.3472   51.3517  128.6991 C   0  0  0  0  0  0  0  0  0  0  0  0
    7.0423   50.3747  129.3996 C   0  0  0  0  0  0  0  0  0  0  0  0
    7.0968   52.5268  128.1715 C   0  0  0  0  0  0  0  0  0  0  0  0
    7.5077   53.2776  129.2419 F   0  0  0  0  0  0  0  0  0  0  0  0
    8.1677   52.1350  127.3697 F   0  0  0  0  0  0  0  0  0  0  0  0
    6.2070   53.3065  127.4504 F   0  0  0  0  0  0  0  0  0  0  0  0
   12.1783   44.7642  133.7921 S   0  0  0  0  0  0  0  0  0  0  0  0
   11.8296   43.8962  134.9922 O   0  0  0  0  0  0  0  0  0  0  0  0
   13.6861   44.8288  133.7750 O   0  0  0  0  0  0  0  0  0  0  0  0
   10.6071   42.7292  130.0348 C   0  0  0  0  0  0  0  0  0  0  0  0
   11.5360   43.7841  130.0066 C   0  0  0  0  0  0  0  0  0  0  0  0
   12.0102   44.3873  131.1459 C   0  0  0  0  0  0  0  0  0  0  0  0
   11.5679   43.9523  132.3939 C   0  0  0  0  0  0  0  0  0  0  0  0
   10.6733   42.9368  132.4592 C   0  0  0  0  0  0  0  0  0  0  0  0
   10.2001   42.3331  131.2847 C   0  0  0  0  0  0  0  0  0  0  0  0
    9.7137   43.0063  127.8025 C   0  0  0  0  0  0  0  0  0  0  0  0
   10.1825   42.1834  128.8395 O   0  0  0  0  0  0  0  0  0  0  0  0
 31 32  1  0  0  0
 32 25  1  0  0  0
 25 26  2  0  0  0
 26 27  1  0  0  0
 27 28  2  0  0  0
 28 29  1  0  0  0
 29 30  2  0  0  0
 28 22  1  0  0  0
 22 23  2  0  0  0
 22 24  2  0  0  0
 22  1  1  0  0  0
  1  2  1  0  0  0
  2  3  1  0  0  0
  3  4  1  0  0  0
  4  5  1  0  0  0
  5  6  1  0  0  0
  6  7  1  0  0  0
  4  8  1  0  0  0
  8  9  1  0  0  0
  9 10  2  0  0  0
  9 12  1  0  0  0
 12 13  2  0  0  0
 13 14  1  0  0  0
 14 15  2  0  0  0
 15 16  1  0  0  0
 16 17  2  0  0  0
 16 18  1  0  0  0
 18 19  1  0  0  0
 18 20  1  0  0  0
 18 21  1  0  0  0
 30 25  1  0  0  0
  7  1  1  0  0  0
 17 12  1  0  0  0
  6  3  1  0  0  0
  8 11  1  0  0  0
M  END
> <minimizedAffinity>
9.30941

> <CNNscore>
0.2123700976

> <CNNaffinity>
7.0521125793

> <CNN_VS>
1.4976578951

> <CNNaffinity_variance>
0.5374907255

$$$$
[H]c1c([H])c(S(=O)(=O)N2C([H])([H])[C@@]3([H])[C@]([H])(c4c([H])n([H])c5c([H])c([H])c([H])c([H])c45)C([H])([H])[C@@]23[H])c([H])c([H])c1OC([H])([H])[H]


 27 31  0  0  0  0  0  0  0  0999 V2000
   11.5080   45.0628  131.6059 N   0  0  0  0  0  0  0  0  0  0  0  0
   10.9149   44.6955  130.3343 C   0  0  0  0  0  0  0  0  0  0  0  0
    9.6952   44.2591  131.0607 C   0  0  0  0  0  0  0  0  0  0  0  0
    9.7438   42.9228  131.7061 C   0  0  0  0  0  0  0  0  0  0  0  0
   10.0568   43.5977  133.0100 C   0  0  0  0  0  0  0  0  0  0  0  0
   10.2501   44.8953  132.3090 C   0  0  0  0  0  0  0  0  0  0  0  0
    8.5030   42.1239  131.6546 C   0  0  0  0  0  0  0  0  0  0  0  0
    7.9200   41.5740  130.5331 C   0  0  0  0  0  0  0  0  0  0  0  0
    6.7883   40.9049  130.9055 N   0  0  0  0  0  0  0  0  0  0  0  0
    6.6230   41.0067  132.2355 C   0  0  0  0  0  0  0  0  0  0  0  0
    5.6683   40.5325  133.1027 C   0  0  0  0  0  0  0  0  0  0  0  0
    5.7672   40.8101  134.4488 C   0  0  0  0  0  0  0  0  0  0  0  0
    6.8158   41.5616  134.9446 C   0  0  0  0  0  0  0  0  0  0  0  0
    7.7583   42.0244  134.0565 C   0  0  0  0  0  0  0  0  0  0  0  0
    7.6896   41.7653  132.7051 C   0  0  0  0  0  0  0  0  0  0  0  0
    6.1307   40.3813  130.2627 H   0  0  0  0  0  0  0  0  0  0  0  0
   11.9837   46.7148  131.5984 S   0  0  0  0  0  0  0  0  0  0  0  0
   12.6317   47.0319  132.9359 O   0  0  0  0  0  0  0  0  0  0  0  0
   13.0609   46.9562  130.5687 O   0  0  0  0  0  0  0  0  0  0  0  0
    8.5739   49.6506  131.0623 C   0  0  0  0  0  0  0  0  0  0  0  0
    9.6741   49.9860  131.8066 C   0  0  0  0  0  0  0  0  0  0  0  0
   10.7228   49.0727  131.9700 C   0  0  0  0  0  0  0  0  0  0  0  0
   10.6707   47.8247  131.3888 C   0  0  0  0  0  0  0  0  0  0  0  0
    9.5689   47.5029  130.6500 C   0  0  0  0  0  0  0  0  0  0  0  0
    8.5095   48.3985  130.4732 C   0  0  0  0  0  0  0  0  0  0  0  0
    7.0957   50.8705  129.5725 C   0  0  0  0  0  0  0  0  0  0  0  0
    7.5113   50.5496  130.8842 O   0  0  0  0  0  0  0  0  0  0  0  0
 26 27  1  0  0  0
 27 20  1  0  0  0
 20 21  2  0  0  0
 21 22  1  0  0  0
 22 23  2  0  0  0
 23 24  1  0  0  0
 24 25  2  0  0  0
 23 17  1  0  0  0
 17 18  2  0  0  0
 17 19  2  0  0  0
 17  1  1  0  0  0
  1  2  1  0  0  0
  2  3  1  0  0  0
  3  4  1  0  0  0
  4  5  1  0  0  0
  5  6  1  0  0  0
  4  7  1  0  0  0
  7  8  2  0  0  0
  8  9  1  0  0  0
  9 10  1  0  0  0
 10 11  2  0  0  0
 11 12  1  0  0  0
 12 13  2  0  0  0
 13 14  1  0  0  0
 14 15  2  0  0  0
 25 20  1  0  0  0
  6  1  1  0  0  0
 15  7  1  0  0  0
  6  3  1  0  0  0
 15 10  1  0  0  0
  9 16  1  0  0  0
M  END
> <minimizedAffinity>
25.30543

> <CNNscore>
0.5706757903

> <CNNaffinity>
7.4483323097

> <CNN_VS>
4.2505826950

> <CNNaffinity_variance>
3.1654896736

$$$$
[H]c1c([H])c(S(=O)(=O)N2C([H])([H])[C@@]3([H])[C@]([H])(c4c([H])n([H])c5c([H])c([H])c([H])c([H])c45)C([H])([H])[C@@]23[H])c([H])c([H])c1OC([H])([H])[H]


 27 31  0  0  0  0  0  0  0  0999 V2000
    8.4416   43.8370  131.6533 N   0  0  0  0  0  0  0  0  0  0  0  0
    8.3015   43.8842  130.2104 C   0  0  0  0  0  0  0  0  0  0  0  0
    8.1998   45.3634  130.2965 C   0  0  0  0  0  0  0  0  0  0  0  0
    6.8815   45.9209  130.6913 C   0  0  0  0  0  0  0  0  0  0  0  0
    7.3940   46.0575  132.0956 C   0  0  0  0  0  0  0  0  0  0  0  0
    8.6092   45.2752  131.7440 C   0  0  0  0  0  0  0  0  0  0  0  0
    6.4658   47.1652  130.0136 C   0  0  0  0  0  0  0  0  0  0  0  0
    5.4022   47.3208  129.1506 C   0  0  0  0  0  0  0  0  0  0  0  0
    5.3498   48.6240  128.7432 N   0  0  0  0  0  0  0  0  0  0  0  0
    6.3490   49.3152  129.3180 C   0  0  0  0  0  0  0  0  0  0  0  0
    6.7441   50.6295  129.2478 C   0  0  0  0  0  0  0  0  0  0  0  0
    7.8394   51.0548  129.9677 C   0  0  0  0  0  0  0  0  0  0  0  0
    8.5517   50.1775  130.7632 C   0  0  0  0  0  0  0  0  0  0  0  0
    8.1363   48.8676  130.8167 C   0  0  0  0  0  0  0  0  0  0  0  0
    7.0459   48.4094  130.1101 C   0  0  0  0  0  0  0  0  0  0  0  0
    4.6408   49.0441  128.0794 H   0  0  0  0  0  0  0  0  0  0  0  0
    9.8926   43.0278  132.0954 S   0  0  0  0  0  0  0  0  0  0  0  0
   10.1746   43.3181  133.5602 O   0  0  0  0  0  0  0  0  0  0  0  0
    9.7156   41.5308  132.0148 O   0  0  0  0  0  0  0  0  0  0  0  0
   13.5557   44.3410  129.7738 C   0  0  0  0  0  0  0  0  0  0  0  0
   13.6037   44.2048  131.1362 C   0  0  0  0  0  0  0  0  0  0  0  0
   12.4671   43.8010  131.8472 C   0  0  0  0  0  0  0  0  0  0  0  0
   11.2831   43.5336  131.1953 C   0  0  0  0  0  0  0  0  0  0  0  0
   11.2486   43.6733  129.8379 C   0  0  0  0  0  0  0  0  0  0  0  0
   12.3709   44.0754  129.1069 C   0  0  0  0  0  0  0  0  0  0  0  0
   15.5268   43.7578  128.4826 C   0  0  0  0  0  0  0  0  0  0  0  0
   14.6821   44.7435  129.0403 O   0  0  0  0  0  0  0  0  0  0  0  0
 26 27  1  0  0  0
 27 20  1  0  0  0
 20 21  2  0  0  0
 21 22  1  0  0  0
 22 23  2  0  0  0
 23 24  1  0  0  0
 24 25  2  0  0  0
 23 17  1  0  0  0
 17 18  2  0  0  0
 17 19  2  0  0  0
 17  1  1  0  0  0
  1  2  1  0  0  0
  2  3  1  0  0  0
  3  4  1  0  0  0
  4  5  1  0  0  0
  5  6  1  0  0  0
  4  7  1  0  0  0
  7  8  2  0  0  0
  8  9  1  0  0  0
  9 10  1  0  0  0
 10 11  2  0  0  0
 11 12  1  0  0  0
 12 13  2  0  0  0
 13 14  1  0  0  0
 14 15  2  0  0  0
 25 20  1  0  0  0
  6  1  1  0  0  0
 15  7  1  0  0  0
  6  3  1  0  0  0
 15 10  1  0  0  0
  9 16  1  0  0  0
M  END
> <minimizedAffinity>
-1.58097

> <CNNscore>
0.5475694537

> <CNNaffinity>
7.5947790146

> <CNN_VS>
4.1586689949

> <CNNaffinity_variance>
1.2764456272

$$$$
[H]c1c([H])c(S(=O)(=O)N2C([H])([H])[C@@]3([H])[C@]([H])(c4c([H])n([H])c5c([H])c([H])c([H])c([H])c45)C([H])([H])[C@@]23[H])c([H])c([H])c1OC([H])([H])[H]


 27 31  0  0  0  0  0  0  0  0999 V2000
   11.2197   45.2790  131.9947 N   0  0  0  0  0  0  0  0  0  0  0  0
   12.0538   44.2984  132.6628 C   0  0  0  0  0  0  0  0  0  0  0  0
   12.1875   45.2337  133.8087 C   0  0  0  0  0  0  0  0  0  0  0  0
   13.1716   46.3356  133.6607 C   0  0  0  0  0  0  0  0  0  0  0  0
   12.0438   47.2510  133.2816 C   0  0  0  0  0  0  0  0  0  0  0  0
   11.1147   46.0929  133.1911 C   0  0  0  0  0  0  0  0  0  0  0  0
   13.9397   46.6959  134.8693 C   0  0  0  0  0  0  0  0  0  0  0  0
   14.9939   45.9971  135.4174 C   0  0  0  0  0  0  0  0  0  0  0  0
   15.4358   46.6611  136.5270 N   0  0  0  0  0  0  0  0  0  0  0  0
   14.6973   47.7688  136.7118 C   0  0  0  0  0  0  0  0  0  0  0  0
   14.7187   48.7652  137.6580 C   0  0  0  0  0  0  0  0  0  0  0  0
   13.8091   49.7978  137.5857 C   0  0  0  0  0  0  0  0  0  0  0  0
   12.8704   49.8489  136.5727 C   0  0  0  0  0  0  0  0  0  0  0  0
   12.8697   48.8401  135.6381 C   0  0  0  0  0  0  0  0  0  0  0  0
   13.7646   47.7935  135.6808 C   0  0  0  0  0  0  0  0  0  0  0  0
   16.2338   46.3662  137.1564 H   0  0  0  0  0  0  0  0  0  0  0  0
    9.6939   44.6000  131.5868 S   0  0  0  0  0  0  0  0  0  0  0  0
    9.9222   43.4734  130.5928 O   0  0  0  0  0  0  0  0  0  0  0  0
    9.0615   43.9445  132.7907 O   0  0  0  0  0  0  0  0  0  0  0  0
    6.7974   47.5167  129.6800 C   0  0  0  0  0  0  0  0  0  0  0  0
    6.3386   46.4087  130.3424 C   0  0  0  0  0  0  0  0  0  0  0  0
    7.2397   45.5105  130.9270 C   0  0  0  0  0  0  0  0  0  0  0  0
    8.5990   45.7209  130.8489 C   0  0  0  0  0  0  0  0  0  0  0  0
    9.0430   46.8285  130.1860 C   0  0  0  0  0  0  0  0  0  0  0  0
    8.1621   47.7392  129.5943 C   0  0  0  0  0  0  0  0  0  0  0  0
    6.0803   49.8109  129.3405 C   0  0  0  0  0  0  0  0  0  0  0  0
    5.9134   48.4310  129.0871 O   0  0  0  0  0  0  0  0  0  0  0  0
 26 27  1  0  0  0
 27 20  1  0  0  0
 20 21  2  0  0  0
 21 22  1  0  0  0
 22 23  2  0  0  0
 23 24  1  0  0  0
 24 25  2  0  0  0
 23 17  1  0  0  0
 17 18  2  0  0  0
 17 19  2  0  0  0
 17  1  1  0  0  0
  1  2  1  0  0  0
  2  3  1  0  0  0
  3  4  1  0  0  0
  4  5  1  0  0  0
  5  6  1  0  0  0
  4  7  1  0  0  0
  7  8  2  0  0  0
  8  9  1  0  0  0
  9 10  1  0  0  0
 10 11  2  0  0  0
 11 12  1  0  0  0
 12 13  2  0  0  0
 13 14  1  0  0  0
 14 15  2  0  0  0
 25 20  1  0  0  0
  6  1  1  0  0  0
 15  7  1  0  0  0
  6  3  1  0  0  0
 15 10  1  0  0  0
  9 16  1  0  0  0
M  END
> <minimizedAffinity>
19.03705

> <CNNscore>
0.5405322313

> <CNNaffinity>
7.0465345383

> <CNN_VS>
3.8088791370

> <CNNaffinity_variance>
1.2757083178

$$$$
[H]c1c([H])c(S(=O)(=O)N2C([H])([H])[C@@]3([H])[C@]([H])(c4c([H])n([H])c5c([H])c([H])c([H])c([H])c45)C([H])([H])[C@@]23[H])c([H])c([H])c1OC([H])([H])[H]


 27 31  0  0  0  0  0  0  0  0999 V2000
    9.3908   44.9836  128.6904 N   0  0  0  0  0  0  0  0  0  0  0  0
   10.4638   45.9591  128.7159 C   0  0  0  0  0  0  0  0  0  0  0  0
    9.6593   46.7784  129.6578 C   0  0  0  0  0  0  0  0  0  0  0  0
    8.5817   47.6115  129.0667 C   0  0  0  0  0  0  0  0  0  0  0  0
    7.5941   46.5441  129.4391 C   0  0  0  0  0  0  0  0  0  0  0  0
    8.7042   45.6213  129.7979 C   0  0  0  0  0  0  0  0  0  0  0  0
    8.3767   48.9436  129.6700 C   0  0  0  0  0  0  0  0  0  0  0  0
    7.5981   49.9659  129.1712 C   0  0  0  0  0  0  0  0  0  0  0  0
    7.6662   51.0309  130.0246 N   0  0  0  0  0  0  0  0  0  0  0  0
    8.4667   50.7264  131.0605 C   0  0  0  0  0  0  0  0  0  0  0  0
    8.8698   51.4246  132.1733 C   0  0  0  0  0  0  0  0  0  0  0  0
    9.7211   50.8336  133.0815 C   0  0  0  0  0  0  0  0  0  0  0  0
   10.1790   49.5435  132.8916 C   0  0  0  0  0  0  0  0  0  0  0  0
    9.7609   48.8658  131.7703 C   0  0  0  0  0  0  0  0  0  0  0  0
    8.9107   49.4268  130.8427 C   0  0  0  0  0  0  0  0  0  0  0  0
    7.1730   51.9597  129.9068 H   0  0  0  0  0  0  0  0  0  0  0  0
    9.9712   43.4317  129.1489 S   0  0  0  0  0  0  0  0  0  0  0  0
    9.5678   42.4341  128.0759 O   0  0  0  0  0  0  0  0  0  0  0  0
   11.4806   43.4087  129.1644 O   0  0  0  0  0  0  0  0  0  0  0  0
    8.3253   41.9466  133.1009 C   0  0  0  0  0  0  0  0  0  0  0  0
    9.5973   42.4488  133.0182 C   0  0  0  0  0  0  0  0  0  0  0  0
   10.1000   42.9035  131.7931 C   0  0  0  0  0  0  0  0  0  0  0  0
    9.3304   42.8560  130.6514 C   0  0  0  0  0  0  0  0  0  0  0  0
    8.0649   42.3532  130.7473 C   0  0  0  0  0  0  0  0  0  0  0  0
    7.5417   41.8932  131.9598 C   0  0  0  0  0  0  0  0  0  0  0  0
    6.4302   41.1473  134.3903 C   0  0  0  0  0  0  0  0  0  0  0  0
    7.8000   41.4859  134.3177 O   0  0  0  0  0  0  0  0  0  0  0  0
 26 27  1  0  0  0
 27 20  1  0  0  0
 20 21  2  0  0  0
 21 22  1  0  0  0
 22 23  2  0  0  0
 23 24  1  0  0  0
 24 25  2  0  0  0
 23 17  1  0  0  0
 17 18  2  0  0  0
 17 19  2  0  0  0
 17  1  1  0  0  0
  1  2  1  0  0  0
  2  3  1  0  0  0
  3  4  1  0  0  0
  4  5  1  0  0  0
  5  6  1  0  0  0
  4  7  1  0  0  0
  7  8  2  0  0  0
  8  9  1  0  0  0
  9 10  1  0  0  0
 10 11  2  0  0  0
 11 12  1  0  0  0
 12 13  2  0  0  0
 13 14  1  0  0  0
 14 15  2  0  0  0
 25 20  1  0  0  0
  6  1  1  0  0  0
 15  7  1  0  0  0
  6  3  1  0  0  0
 15 10  1  0  0  0
  9 16  1  0  0  0
M  END
> <minimizedAffinity>
2.90454

> <CNNscore>
0.5284332037

> <CNNaffinity>
7.4637336731

> <CNN_VS>
3.9440846443

> <CNNaffinity_variance>
1.9640653133

$$$$
[H]c1c([H])c(S(=O)(=O)N2C([H])([H])[C@@]3([H])[C@]([H])(c4c([H])n([H])c5c([H])c([H])c([H])c([H])c45)C([H])([H])[C@@]23[H])c([H])c([H])c1OC([H])([H])[H]


 27 31  0  0  0  0  0  0  0  0999 V2000
    7.8448   44.7639  129.2712 N   0  0  0  0  0  0  0  0  0  0  0  0
    8.3131   45.7445  128.3106 C   0  0  0  0  0  0  0  0  0  0  0  0
    8.5049   46.7054  129.4267 C   0  0  0  0  0  0  0  0  0  0  0  0
    7.2924   47.4044  129.9226 C   0  0  0  0  0  0  0  0  0  0  0  0
    7.2104   46.4051  131.0398 C   0  0  0  0  0  0  0  0  0  0  0  0
    8.2655   45.5772  130.3965 C   0  0  0  0  0  0  0  0  0  0  0  0
    7.4631   48.8190  130.3102 C   0  0  0  0  0  0  0  0  0  0  0  0
    6.7650   49.9009  129.8179 C   0  0  0  0  0  0  0  0  0  0  0  0
    7.2140   51.0349  130.4341 N   0  0  0  0  0  0  0  0  0  0  0  0
    8.1823   50.7170  131.3103 C   0  0  0  0  0  0  0  0  0  0  0  0
    8.9547   51.4624  132.1684 C   0  0  0  0  0  0  0  0  0  0  0  0
    9.8932   50.8392  132.9619 C   0  0  0  0  0  0  0  0  0  0  0  0
   10.0722   49.4698  132.9093 C   0  0  0  0  0  0  0  0  0  0  0  0
    9.2869   48.7462  132.0427 C   0  0  0  0  0  0  0  0  0  0  0  0
    8.3397   49.3375  131.2357 C   0  0  0  0  0  0  0  0  0  0  0  0
    6.8666   52.0197  130.2627 H   0  0  0  0  0  0  0  0  0  0  0  0
    8.7833   43.3266  129.1768 S   0  0  0  0  0  0  0  0  0  0  0  0
    8.2800   42.3567  130.2330 O   0  0  0  0  0  0  0  0  0  0  0  0
    8.5593   42.6276  127.8576 O   0  0  0  0  0  0  0  0  0  0  0  0
   13.2071   43.9872  129.9025 C   0  0  0  0  0  0  0  0  0  0  0  0
   12.6411   44.3091  128.6971 C   0  0  0  0  0  0  0  0  0  0  0  0
   11.2739   44.0998  128.4792 C   0  0  0  0  0  0  0  0  0  0  0  0
   10.4735   43.5689  129.4670 C   0  0  0  0  0  0  0  0  0  0  0  0
   11.0498   43.2524  130.6632 C   0  0  0  0  0  0  0  0  0  0  0  0
   12.4128   43.4524  130.9036 C   0  0  0  0  0  0  0  0  0  0  0  0
   15.4293   44.4747  129.0558 C   0  0  0  0  0  0  0  0  0  0  0  0
   14.5746   44.1888  130.1439 O   0  0  0  0  0  0  0  0  0  0  0  0
 26 27  1  0  0  0
 27 20  1  0  0  0
 20 21  2  0  0  0
 21 22  1  0  0  0
 22 23  2  0  0  0
 23 24  1  0  0  0
 24 25  2  0  0  0
 23 17  1  0  0  0
 17 18  2  0  0  0
 17 19  2  0  0  0
 17  1  1  0  0  0
  1  2  1  0  0  0
  2  3  1  0  0  0
  3  4  1  0  0  0
  4  5  1  0  0  0
  5  6  1  0  0  0
  4  7  1  0  0  0
  7  8  2  0  0  0
  8  9  1  0  0  0
  9 10  1  0  0  0
 10 11  2  0  0  0
 11 12  1  0  0  0
 12 13  2  0  0  0
 13 14  1  0  0  0
 14 15  2  0  0  0
 25 20  1  0  0  0
  6  1  1  0  0  0
 15  7  1  0  0  0
  6  3  1  0  0  0
 15 10  1  0  0  0
  9 16  1  0  0  0
M  END
> <minimizedAffinity>
3.42877

> <CNNscore>
0.4966633618

> <CNNaffinity>
7.1783533096

> <CNN_VS>
3.5652251244

> <CNNaffinity_variance>
1.0394085646

$$$$
[H]c1c([H])c(S(=O)(=O)N2C([H])([H])[C@@]3([H])[C@]([H])(c4c([H])n([H])c5c([H])c([H])c([H])c([H])c45)C([H])([H])[C@@]23[H])c([H])c([H])c1OC([H])([H])[H]


 27 31  0  0  0  0  0  0  0  0999 V2000
   11.4596   46.1593  130.4726 N   0  0  0  0  0  0  0  0  0  0  0  0
   10.8025   47.1251  131.3324 C   0  0  0  0  0  0  0  0  0  0  0  0
    9.5050   46.7518  130.7135 C   0  0  0  0  0  0  0  0  0  0  0  0
    9.1989   47.3507  129.3898 C   0  0  0  0  0  0  0  0  0  0  0  0
    9.6652   46.0798  128.7411 C   0  0  0  0  0  0  0  0  0  0  0  0
   10.1952   45.5924  130.0426 C   0  0  0  0  0  0  0  0  0  0  0  0
    7.7936   47.7381  129.1541 C   0  0  0  0  0  0  0  0  0  0  0  0
    6.8415   47.0163  128.4667 C   0  0  0  0  0  0  0  0  0  0  0  0
    5.6659   47.7128  128.4763 N   0  0  0  0  0  0  0  0  0  0  0  0
    5.8309   48.8639  129.1501 C   0  0  0  0  0  0  0  0  0  0  0  0
    4.9880   49.9077  129.4475 C   0  0  0  0  0  0  0  0  0  0  0  0
    5.4574   50.9823  130.1712 C   0  0  0  0  0  0  0  0  0  0  0  0
    6.7686   51.0288  130.6056 C   0  0  0  0  0  0  0  0  0  0  0  0
    7.5920   49.9720  130.2953 C   0  0  0  0  0  0  0  0  0  0  0  0
    7.1552   48.8827  129.5738 C   0  0  0  0  0  0  0  0  0  0  0  0
    4.7557   47.4103  128.0292 H   0  0  0  0  0  0  0  0  0  0  0  0
   12.3483   45.0220  131.4064 S   0  0  0  0  0  0  0  0  0  0  0  0
   13.1966   44.1866  130.4620 O   0  0  0  0  0  0  0  0  0  0  0  0
   13.3341   45.7248  132.3082 O   0  0  0  0  0  0  0  0  0  0  0  0
    9.7645   42.1251  133.7441 C   0  0  0  0  0  0  0  0  0  0  0  0
   10.0814   41.8783  132.4343 C   0  0  0  0  0  0  0  0  0  0  0  0
   10.8782   42.7793  131.7175 C   0  0  0  0  0  0  0  0  0  0  0  0
   11.3578   43.9264  132.3110 C   0  0  0  0  0  0  0  0  0  0  0  0
   11.0346   44.1606  133.6164 C   0  0  0  0  0  0  0  0  0  0  0  0
   10.2403   43.2754  134.3520 C   0  0  0  0  0  0  0  0  0  0  0  0
    7.5750   41.2065  134.2495 C   0  0  0  0  0  0  0  0  0  0  0  0
    8.9683   41.2364  134.4824 O   0  0  0  0  0  0  0  0  0  0  0  0
 26 27  1  0  0  0
 27 20  1  0  0  0
 20 21  2  0  0  0
 21 22  1  0  0  0
 22 23  2  0  0  0
 23 24  1  0  0  0
 24 25  2  0  0  0
 23 17  1  0  0  0
 17 18  2  0  0  0
 17 19  2  0  0  0
 17  1  1  0  0  0
  1  2  1  0  0  0
  2  3  1  0  0  0
  3  4  1  0  0  0
  4  5  1  0  0  0
  5  6  1  0  0  0
  4  7  1  0  0  0
  7  8  2  0  0  0
  8  9  1  0  0  0
  9 10  1  0  0  0
 10 11  2  0  0  0
 11 12  1  0  0  0
 12 13  2  0  0  0
 13 14  1  0  0  0
 14 15  2  0  0  0
 25 20  1  0  0  0
  6  1  1  0  0  0
 15  7  1  0  0  0
  6  3  1  0  0  0
 15 10  1  0  0  0
  9 16  1  0  0  0
M  END
> <minimizedAffinity>
2.36005

> <CNNscore>
0.4896198511

> <CNNaffinity>
7.5547790527

> <CNN_VS>
3.6989698410

> <CNNaffinity_variance>
2.0890274048

$$$$
[H]c1c([H])c(S(=O)(=O)N2C([H])([H])[C@@]3([H])[C@]([H])(c4c([H])n([H])c5c([H])c([H])c([H])c([H])c45)C([H])([H])[C@@]23[H])c([H])c([H])c1OC([H])([H])[H]


 27 31  0  0  0  0  0  0  0  0999 V2000
   10.7132   47.6201  130.6022 N   0  0  0  0  0  0  0  0  0  0  0  0
   10.1147   47.0867  129.3935 C   0  0  0  0  0  0  0  0  0  0  0  0
    9.4322   46.0576  130.2186 C   0  0  0  0  0  0  0  0  0  0  0  0
   10.2443   44.8848  130.6307 C   0  0  0  0  0  0  0  0  0  0  0  0
   10.4641   45.5432  131.9618 C   0  0  0  0  0  0  0  0  0  0  0  0
    9.8653   46.8060  131.4527 C   0  0  0  0  0  0  0  0  0  0  0  0
    9.5532   43.5799  130.6429 C   0  0  0  0  0  0  0  0  0  0  0  0
    9.5567   42.6335  129.6407 C   0  0  0  0  0  0  0  0  0  0  0  0
    8.8042   41.5646  130.0389 N   0  0  0  0  0  0  0  0  0  0  0  0
    8.3144   41.7932  131.2695 C   0  0  0  0  0  0  0  0  0  0  0  0
    7.5132   41.0614  132.1127 C   0  0  0  0  0  0  0  0  0  0  0  0
    7.1667   41.5736  133.3441 C   0  0  0  0  0  0  0  0  0  0  0  0
    7.6135   42.8175  133.7481 C   0  0  0  0  0  0  0  0  0  0  0  0
    8.4141   43.5299  132.8864 C   0  0  0  0  0  0  0  0  0  0  0  0
    8.7793   43.0476  131.6486 C   0  0  0  0  0  0  0  0  0  0  0  0
    8.6231   40.6841  129.4806 H   0  0  0  0  0  0  0  0  0  0  0  0
   10.3325   49.2868  130.7828 S   0  0  0  0  0  0  0  0  0  0  0  0
   10.5627   49.6753  132.2338 O   0  0  0  0  0  0  0  0  0  0  0  0
   11.2879   50.1426  129.9867 O   0  0  0  0  0  0  0  0  0  0  0  0
    6.0268   50.3248  129.8255 C   0  0  0  0  0  0  0  0  0  0  0  0
    6.4292   50.1396  131.1219 C   0  0  0  0  0  0  0  0  0  0  0  0
    7.7608   49.8165  131.4099 C   0  0  0  0  0  0  0  0  0  0  0  0
    8.6892   49.6790  130.4014 C   0  0  0  0  0  0  0  0  0  0  0  0
    8.2753   49.8660  129.1141 C   0  0  0  0  0  0  0  0  0  0  0  0
    6.9509   50.1890  128.8024 C   0  0  0  0  0  0  0  0  0  0  0  0
    3.8389   49.6377  129.0294 C   0  0  0  0  0  0  0  0  0  0  0  0
    4.6981   50.6498  129.5129 O   0  0  0  0  0  0  0  0  0  0  0  0
 26 27  1  0  0  0
 27 20  1  0  0  0
 20 21  2  0  0  0
 21 22  1  0  0  0
 22 23  2  0  0  0
 23 24  1  0  0  0
 24 25  2  0  0  0
 23 17  1  0  0  0
 17 18  2  0  0  0
 17 19  2  0  0  0
 17  1  1  0  0  0
  1  2  1  0  0  0
  2  3  1  0  0  0
  3  4  1  0  0  0
  4  5  1  0  0  0
  5  6  1  0  0  0
  4  7  1  0  0  0
  7  8  2  0  0  0
  8  9  1  0  0  0
  9 10  1  0  0  0
 10 11  2  0  0  0
 11 12  1  0  0  0
 12 13  2  0  0  0
 13 14  1  0  0  0
 14 15  2  0  0  0
 25 20  1  0  0  0
  6  1  1  0  0  0
 15  7  1  0  0  0
  6  3  1  0  0  0
 15 10  1  0  0  0
  9 16  1  0  0  0
M  END
> <minimizedAffinity>
11.18777

> <CNNscore>
0.4879910648

> <CNNaffinity>
7.5560255051

> <CNN_VS>
3.6872730255

> <CNNaffinity_variance>
3.1503777504

$$$$
[H]c1c([H])c(S(=O)(=O)N2C([H])([H])[C@@]3([H])[C@]([H])(c4c([H])n([H])c5c([H])c([H])c([H])c([H])c45)C([H])([H])[C@@]23[H])c([H])c([H])c1OC([H])([H])[H]


 27 31  0  0  0  0  0  0  0  0999 V2000
    8.4355   44.3112  129.2777 N   0  0  0  0  0  0  0  0  0  0  0  0
    9.4652   45.1775  128.7365 C   0  0  0  0  0  0  0  0  0  0  0  0
    9.0378   46.2342  129.6886 C   0  0  0  0  0  0  0  0  0  0  0  0
    7.8337   47.0201  129.3184 C   0  0  0  0  0  0  0  0  0  0  0  0
    7.0181   46.1367  130.2172 C   0  0  0  0  0  0  0  0  0  0  0  0
    8.1730   45.2139  130.3827 C   0  0  0  0  0  0  0  0  0  0  0  0
    7.8614   48.4586  129.6508 C   0  0  0  0  0  0  0  0  0  0  0  0
    7.2400   49.4782  128.9620 C   0  0  0  0  0  0  0  0  0  0  0  0
    7.5026   50.6620  129.5919 N   0  0  0  0  0  0  0  0  0  0  0  0
    8.2760   50.4369  130.6678 C   0  0  0  0  0  0  0  0  0  0  0  0
    8.8189   51.2614  131.6238 C   0  0  0  0  0  0  0  0  0  0  0  0
    9.5930   50.7261  132.6304 C   0  0  0  0  0  0  0  0  0  0  0  0
    9.8342   49.3668  132.6954 C   0  0  0  0  0  0  0  0  0  0  0  0
    9.2796   48.5631  131.7272 C   0  0  0  0  0  0  0  0  0  0  0  0
    8.5011   49.0653  130.7074 C   0  0  0  0  0  0  0  0  0  0  0  0
    7.1598   51.6182  129.2952 H   0  0  0  0  0  0  0  0  0  0  0  0
    9.1184   42.8393  129.8457 S   0  0  0  0  0  0  0  0  0  0  0  0
    7.9865   41.8676  130.1358 O   0  0  0  0  0  0  0  0  0  0  0  0
    9.9403   42.1793  128.7650 O   0  0  0  0  0  0  0  0  0  0  0  0
   11.5549   43.2936  133.6391 C   0  0  0  0  0  0  0  0  0  0  0  0
   12.1545   43.3731  132.4098 C   0  0  0  0  0  0  0  0  0  0  0  0
   11.3956   43.2292  131.2420 C   0  0  0  0  0  0  0  0  0  0  0  0
   10.0375   43.0061  131.3041 C   0  0  0  0  0  0  0  0  0  0  0  0
    9.4524   42.9288  132.5350 C   0  0  0  0  0  0  0  0  0  0  0  0
   10.1900   43.0691  133.7147 C   0  0  0  0  0  0  0  0  0  0  0  0
   11.6125   43.4700  136.0595 C   0  0  0  0  0  0  0  0  0  0  0  0
   12.2949   43.4354  134.8228 O   0  0  0  0  0  0  0  0  0  0  0  0
 26 27  1  0  0  0
 27 20  1  0  0  0
 20 21  2  0  0  0
 21 22  1  0  0  0
 22 23  2  0  0  0
 23 24  1  0  0  0
 24 25  2  0  0  0
 23 17  1  0  0  0
 17 18  2  0  0  0
 17 19  2  0  0  0
 17  1  1  0  0  0
  1  2  1  0  0  0
  2  3  1  0  0  0
  3  4  1  0  0  0
  4  5  1  0  0  0
  5  6  1  0  0  0
  4  7  1  0  0  0
  7  8  2  0  0  0
  8  9  1  0  0  0
  9 10  1  0  0  0
 10 11  2  0  0  0
 11 12  1  0  0  0
 12 13  2  0  0  0
 13 14  1  0  0  0
 14 15  2  0  0  0
 25 20  1  0  0  0
  6  1  1  0  0  0
 15  7  1  0  0  0
  6  3  1  0  0  0
 15 10  1  0  0  0
  9 16  1  0  0  0
M  END
> <minimizedAffinity>
-4.35268

> <CNNscore>
0.4862847924

> <CNNaffinity>
7.6674299240

> <CNN_VS>
3.7285544872

> <CNNaffinity_variance>
0.9818978310

$$$$
[H]c1c([H])c(S(=O)(=O)N2C([H])([H])[C@@]3([H])[C@]([H])(c4c([H])n([H])c5c([H])c([H])c([H])c([H])c45)C([H])([H])[C@@]23[H])c([H])c([H])c1OC([H])([H])[H]


 27 31  0  0  0  0  0  0  0  0999 V2000
    8.7863   44.6995  132.0233 N   0  0  0  0  0  0  0  0  0  0  0  0
    8.0499   45.0797  130.8330 C   0  0  0  0  0  0  0  0  0  0  0  0
    8.7001   46.4137  130.8905 C   0  0  0  0  0  0  0  0  0  0  0  0
    8.1348   47.3919  131.8540 C   0  0  0  0  0  0  0  0  0  0  0  0
    9.2229   47.0230  132.8201 C   0  0  0  0  0  0  0  0  0  0  0  0
    9.6245   45.8816  131.9549 C   0  0  0  0  0  0  0  0  0  0  0  0
    8.0918   48.7997  131.4104 C   0  0  0  0  0  0  0  0  0  0  0  0
    8.9157   49.8232  131.8274 C   0  0  0  0  0  0  0  0  0  0  0  0
    8.5581   50.9714  131.1786 N   0  0  0  0  0  0  0  0  0  0  0  0
    7.5266   50.7195  130.3546 C   0  0  0  0  0  0  0  0  0  0  0  0
    6.7982   51.5049  129.4939 C   0  0  0  0  0  0  0  0  0  0  0  0
    5.7689   50.9498  128.7649 C   0  0  0  0  0  0  0  0  0  0  0  0
    5.4548   49.6093  128.8851 C   0  0  0  0  0  0  0  0  0  0  0  0
    6.1987   48.8446  129.7529 C   0  0  0  0  0  0  0  0  0  0  0  0
    7.2339   49.3675  130.4965 C   0  0  0  0  0  0  0  0  0  0  0  0
    9.0102   51.9214  131.2927 H   0  0  0  0  0  0  0  0  0  0  0  0
    9.7134   43.2807  131.7354 S   0  0  0  0  0  0  0  0  0  0  0  0
   10.0201   42.6301  133.0740 O   0  0  0  0  0  0  0  0  0  0  0  0
    8.9041   42.2588  130.9740 O   0  0  0  0  0  0  0  0  0  0  0  0
   13.6565   44.0769  129.6496 C   0  0  0  0  0  0  0  0  0  0  0  0
   12.4705   44.2134  128.9775 C   0  0  0  0  0  0  0  0  0  0  0  0
   11.2561   43.9631  129.6278 C   0  0  0  0  0  0  0  0  0  0  0  0
   11.2283   43.5768  130.9500 C   0  0  0  0  0  0  0  0  0  0  0  0
   12.4169   43.4444  131.6081 C   0  0  0  0  0  0  0  0  0  0  0  0
   13.6418   43.6886  130.9793 C   0  0  0  0  0  0  0  0  0  0  0  0
   15.5905   43.2424  128.4429 C   0  0  0  0  0  0  0  0  0  0  0  0
   14.8856   44.3230  129.0189 O   0  0  0  0  0  0  0  0  0  0  0  0
 26 27  1  0  0  0
 27 20  1  0  0  0
 20 21  2  0  0  0
 21 22  1  0  0  0
 22 23  2  0  0  0
 23 24  1  0  0  0
 24 25  2  0  0  0
 23 17  1  0  0  0
 17 18  2  0  0  0
 17 19  2  0  0  0
 17  1  1  0  0  0
  1  2  1  0  0  0
  2  3  1  0  0  0
  3  4  1  0  0  0
  4  5  1  0  0  0
  5  6  1  0  0  0
  4  7  1  0  0  0
  7  8  2  0  0  0
  8  9  1  0  0  0
  9 10  1  0  0  0
 10 11  2  0  0  0
 11 12  1  0  0  0
 12 13  2  0  0  0
 13 14  1  0  0  0
 14 15  2  0  0  0
 25 20  1  0  0  0
  6  1  1  0  0  0
 15  7  1  0  0  0
  6  3  1  0  0  0
 15 10  1  0  0  0
  9 16  1  0  0  0
M  END
> <minimizedAffinity>
2.07100

> <CNNscore>
0.4817437828

> <CNNaffinity>
7.5839133263

> <CNN_VS>
3.6535031796

> <CNNaffinity_variance>
1.9021037817

$$$$
[H]c1c([H])c(S(=O)(=O)N2C([H])([H])[C@@]3([H])[C@]([H])(c4c([H])n([H])c5c([H])c([H])c(C(C([H])([H])[H])(C([H])([H])[H])C([H])([H])[H])c([H])c45)C([H])([H])[C@@]23[H])c([H])c([H])c1OC([H])([H])[H]


 31 35  0  0  0  0  0  0  0  0999 V2000
   10.0089   44.5757  128.9585 N   0  0  0  0  0  0  0  0  0  0  0  0
    9.3658   44.8390  127.7381 C   0  0  0  0  0  0  0  0  0  0  0  0
    8.9174   46.1744  128.3772 C   0  0  0  0  0  0  0  0  0  0  0  0
    7.6296   46.0368  129.1003 C   0  0  0  0  0  0  0  0  0  0  0  0
    8.5241   46.0075  130.3871 C   0  0  0  0  0  0  0  0  0  0  0  0
    9.7334   45.7882  129.5608 C   0  0  0  0  0  0  0  0  0  0  0  0
    6.8049   47.2548  129.1990 C   0  0  0  0  0  0  0  0  0  0  0  0
    5.6341   47.5318  128.5640 C   0  0  0  0  0  0  0  0  0  0  0  0
    5.3222   48.8268  128.7952 N   0  0  0  0  0  0  0  0  0  0  0  0
    6.2650   49.4177  129.5816 C   0  0  0  0  0  0  0  0  0  0  0  0
    6.3747   50.6626  130.1940 C   0  0  0  0  0  0  0  0  0  0  0  0
    7.4379   50.8968  131.0858 C   0  0  0  0  0  0  0  0  0  0  0  0
    8.3525   49.8872  131.3246 C   0  0  0  0  0  0  0  0  0  0  0  0
    8.2239   48.6520  130.6954 C   0  0  0  0  0  0  0  0  0  0  0  0
    7.1761   48.4149  129.8167 C   0  0  0  0  0  0  0  0  0  0  0  0
    4.4886   49.3395  128.4364 H   0  0  0  0  0  0  0  0  0  0  0  0
    9.4059   50.0152  132.3557 C   0  0  0  0  0  0  0  0  0  0  0  0
    9.1285   49.0656  133.5257 C   0  0  0  0  0  0  0  0  0  0  0  0
   10.7422   49.4832  131.7697 C   0  0  0  0  0  0  0  0  0  0  0  0
    9.6116   51.3909  132.9106 C   0  0  0  0  0  0  0  0  0  0  0  0
   10.5307   43.1675  129.5629 S   0  0  0  0  0  0  0  0  0  0  0  0
   10.4274   41.9568  128.6802 O   0  0  0  0  0  0  0  0  0  0  0  0
   12.0133   43.2274  129.9465 O   0  0  0  0  0  0  0  0  0  0  0  0
    8.1925   42.1276  133.3677 C   0  0  0  0  0  0  0  0  0  0  0  0
    7.5665   42.1616  132.1065 C   0  0  0  0  0  0  0  0  0  0  0  0
    8.2721   42.4824  130.9654 C   0  0  0  0  0  0  0  0  0  0  0  0
    9.6545   42.7857  131.0282 C   0  0  0  0  0  0  0  0  0  0  0  0
   10.2610   42.7494  132.2552 C   0  0  0  0  0  0  0  0  0  0  0  0
    9.5117   42.4268  133.3698 C   0  0  0  0  0  0  0  0  0  0  0  0
    6.2934   41.0086  134.3224 C   0  0  0  0  0  0  0  0  0  0  0  0
    7.4830   41.7989  134.5127 O   0  0  0  0  0  0  0  0  0  0  0  0
 30 31  1  0  0  0
 31 24  1  0  0  0
 24 25  2  0  0  0
 25 26  1  0  0  0
 26 27  2  0  0  0
 27 28  1  0  0  0
 28 29  2  0  0  0
 27 21  1  0  0  0
 21 22  2  0  0  0
 21 23  2  0  0  0
 21  1  1  0  0  0
  1  2  1  0  0  0
  2  3  1  0  0  0
  3  4  1  0  0  0
  4  5  1  0  0  0
  5  6  1  0  0  0
  4  7  1  0  0  0
  7  8  2  0  0  0
  8  9  1  0  0  0
  9 10  1  0  0  0
 10 11  2  0  0  0
 11 12  1  0  0  0
 12 13  2  0  0  0
 13 14  1  0  0  0
 14 15  2  0  0  0
 13 17  1  0  0  0
 17 18  1  0  0  0
 17 19  1  0  0  0
 17 20  1  0  0  0
 29 24  1  0  0  0
  6  1  1  0  0  0
 15  7  1  0  0  0
  6  3  1  0  0  0
 15 10  1  0  0  0
  9 16  1  0  0  0
M  END
> <minimizedAffinity>
6.19255

> <CNNscore>
0.5430409908

> <CNNaffinity>
7.7594146729

> <CNN_VS>
4.2136802673

> <CNNaffinity_variance>
1.3231222630

$$$$
[H]c1c([H])c(S(=O)(=O)N2C([H])([H])[C@@]3([H])[C@]([H])(c4c([H])n([H])c5c([H])c([H])c(C(C([H])([H])[H])(C([H])([H])[H])C([H])([H])[H])c([H])c45)C([H])([H])[C@@]23[H])c([H])c([H])c1OC([H])([H])[H]


 31 35  0  0  0  0  0  0  0  0999 V2000
    9.0180   44.0206  129.3414 N   0  0  0  0  0  0  0  0  0  0  0  0
    8.3823   44.2760  128.1154 C   0  0  0  0  0  0  0  0  0  0  0  0
    8.2405   45.7357  128.6072 C   0  0  0  0  0  0  0  0  0  0  0  0
    6.9874   45.9420  129.3736 C   0  0  0  0  0  0  0  0  0  0  0  0
    7.9189   45.8703  130.6322 C   0  0  0  0  0  0  0  0  0  0  0  0
    9.0190   45.3215  129.8065 C   0  0  0  0  0  0  0  0  0  0  0  0
    6.4279   47.3058  129.3519 C   0  0  0  0  0  0  0  0  0  0  0  0
    5.3268   47.7529  128.6898 C   0  0  0  0  0  0  0  0  0  0  0  0
    5.2872   49.1003  128.7939 N   0  0  0  0  0  0  0  0  0  0  0  0
    6.3431   49.5596  129.5224 C   0  0  0  0  0  0  0  0  0  0  0  0
    6.7126   50.8089  130.0120 C   0  0  0  0  0  0  0  0  0  0  0  0
    7.8160   50.9061  130.8801 C   0  0  0  0  0  0  0  0  0  0  0  0
    8.5114   49.7594  131.2178 C   0  0  0  0  0  0  0  0  0  0  0  0
    8.1250   48.5218  130.7105 C   0  0  0  0  0  0  0  0  0  0  0  0
    7.0363   48.4198  129.8558 C   0  0  0  0  0  0  0  0  0  0  0  0
    4.5686   49.7350  128.3849 H   0  0  0  0  0  0  0  0  0  0  0  0
    9.5860   49.7684  132.2348 C   0  0  0  0  0  0  0  0  0  0  0  0
    9.3328   48.6881  133.2915 C   0  0  0  0  0  0  0  0  0  0  0  0
   10.9097   49.3113  131.5632 C   0  0  0  0  0  0  0  0  0  0  0  0
    9.8036   51.0704  132.9421 C   0  0  0  0  0  0  0  0  0  0  0  0
    9.2768   42.6093  130.0908 S   0  0  0  0  0  0  0  0  0  0  0  0
    8.0748   41.7699  130.4167 O   0  0  0  0  0  0  0  0  0  0  0  0
   10.1702   41.6802  129.2616 O   0  0  0  0  0  0  0  0  0  0  0  0
   11.5138   43.3599  134.0225 C   0  0  0  0  0  0  0  0  0  0  0  0
   12.1888   43.3313  132.7867 C   0  0  0  0  0  0  0  0  0  0  0  0
   11.5130   43.0976  131.6070 C   0  0  0  0  0  0  0  0  0  0  0  0
   10.1130   42.8813  131.6033 C   0  0  0  0  0  0  0  0  0  0  0  0
    9.4590   42.9121  132.8058 C   0  0  0  0  0  0  0  0  0  0  0  0
   10.1796   43.1458  133.9608 C   0  0  0  0  0  0  0  0  0  0  0  0
   11.4583   43.3718  136.4240 C   0  0  0  0  0  0  0  0  0  0  0  0
   12.1938   43.6012  135.2065 O   0  0  0  0  0  0  0  0  0  0  0  0
 30 31  1  0  0  0
 31 24  1  0  0  0
 24 25  2  0  0  0
 25 26  1  0  0  0
 26 27  2  0  0  0
 27 28  1  0  0  0
 28 29  2  0  0  0
 27 21  1  0  0  0
 21 22  2  0  0  0
 21 23  2  0  0  0
 21  1  1  0  0  0
  1  2  1  0  0  0
  2  3  1  0  0  0
  3  4  1  0  0  0
  4  5  1  0  0  0
  5  6  1  0  0  0
  4  7  1  0  0  0
  7  8  2  0  0  0
  8  9  1  0  0  0
  9 10  1  0  0  0
 10 11  2  0  0  0
 11 12  1  0  0  0
 12 13  2  0  0  0
 13 14  1  0  0  0
 14 15  2  0  0  0
 13 17  1  0  0  0
 17 18  1  0  0  0
 17 19  1  0  0  0
 17 20  1  0  0  0
 29 24  1  0  0  0
  6  1  1  0  0  0
 15  7  1  0  0  0
  6  3  1  0  0  0
 15 10  1  0  0  0
  9 16  1  0  0  0
M  END
> <minimizedAffinity>
-0.08365

> <CNNscore>
0.5343344808

> <CNNaffinity>
7.9527802467

> <CNN_VS>
4.2494444847

> <CNNaffinity_variance>
1.1310424805

$$$$
[H]c1c([H])c(S(=O)(=O)N2C([H])([H])[C@@]3([H])[C@]([H])(c4c([H])n([H])c5c([H])c([H])c(C(C([H])([H])[H])(C([H])([H])[H])C([H])([H])[H])c([H])c45)C([H])([H])[C@@]23[H])c([H])c([H])c1OC([H])([H])[H]


 31 35  0  0  0  0  0  0  0  0999 V2000
   12.0044   44.9183  131.8894 N   0  0  0  0  0  0  0  0  0  0  0  0
   11.5961   45.2488  130.5869 C   0  0  0  0  0  0  0  0  0  0  0  0
   11.5352   46.7121  131.0848 C   0  0  0  0  0  0  0  0  0  0  0  0
   10.2078   47.0475  131.6555 C   0  0  0  0  0  0  0  0  0  0  0  0
   10.9211   46.8674  133.0396 C   0  0  0  0  0  0  0  0  0  0  0  0
   12.0711   46.2085  132.3791 C   0  0  0  0  0  0  0  0  0  0  0  0
    9.8057   48.4639  131.5800 C   0  0  0  0  0  0  0  0  0  0  0  0
   10.4314   49.5457  132.1175 C   0  0  0  0  0  0  0  0  0  0  0  0
    9.6245   50.6201  131.9681 N   0  0  0  0  0  0  0  0  0  0  0  0
    8.4707   50.2728  131.3320 C   0  0  0  0  0  0  0  0  0  0  0  0
    7.3812   50.9869  130.8420 C   0  0  0  0  0  0  0  0  0  0  0  0
    6.4058   50.3140  130.0829 C   0  0  0  0  0  0  0  0  0  0  0  0
    6.5490   48.9583  129.8504 C   0  0  0  0  0  0  0  0  0  0  0  0
    7.6454   48.2652  130.3560 C   0  0  0  0  0  0  0  0  0  0  0  0
    8.6116   48.9242  131.1034 C   0  0  0  0  0  0  0  0  0  0  0  0
    9.8198   51.5937  132.2852 H   0  0  0  0  0  0  0  0  0  0  0  0
    5.6420   48.2212  128.9431 C   0  0  0  0  0  0  0  0  0  0  0  0
    5.2567   46.8693  129.5529 C   0  0  0  0  0  0  0  0  0  0  0  0
    4.2892   48.9805  128.8681 C   0  0  0  0  0  0  0  0  0  0  0  0
    6.1602   47.9776  127.5593 C   0  0  0  0  0  0  0  0  0  0  0  0
   11.9938   43.4824  132.6368 S   0  0  0  0  0  0  0  0  0  0  0  0
   12.7666   42.3651  131.9966 O   0  0  0  0  0  0  0  0  0  0  0  0
   12.5705   43.5742  134.0538 O   0  0  0  0  0  0  0  0  0  0  0  0
    7.6822   41.9688  133.0170 C   0  0  0  0  0  0  0  0  0  0  0  0
    8.1543   42.5512  131.8246 C   0  0  0  0  0  0  0  0  0  0  0  0
    9.4500   43.0121  131.7171 C   0  0  0  0  0  0  0  0  0  0  0  0
   10.3493   42.9102  132.8070 C   0  0  0  0  0  0  0  0  0  0  0  0
    9.8884   42.3413  133.9640 C   0  0  0  0  0  0  0  0  0  0  0  0
    8.5816   41.8982  134.0249 C   0  0  0  0  0  0  0  0  0  0  0  0
    5.9912   40.9777  134.4057 C   0  0  0  0  0  0  0  0  0  0  0  0
    6.3814   41.5004  133.1210 O   0  0  0  0  0  0  0  0  0  0  0  0
 30 31  1  0  0  0
 31 24  1  0  0  0
 24 25  2  0  0  0
 25 26  1  0  0  0
 26 27  2  0  0  0
 27 28  1  0  0  0
 28 29  2  0  0  0
 27 21  1  0  0  0
 21 22  2  0  0  0
 21 23  2  0  0  0
 21  1  1  0  0  0
  1  2  1  0  0  0
  2  3  1  0  0  0
  3  4  1  0  0  0
  4  5  1  0  0  0
  5  6  1  0  0  0
  4  7  1  0  0  0
  7  8  2  0  0  0
  8  9  1  0  0  0
  9 10  1  0  0  0
 10 11  2  0  0  0
 11 12  1  0  0  0
 12 13  2  0  0  0
 13 14  1  0  0  0
 14 15  2  0  0  0
 13 17  1  0  0  0
 17 18  1  0  0  0
 17 19  1  0  0  0
 17 20  1  0  0  0
 29 24  1  0  0  0
  6  1  1  0  0  0
 15  7  1  0  0  0
  6  3  1  0  0  0
 15 10  1  0  0  0
  9 16  1  0  0  0
M  END
> <minimizedAffinity>
5.22051

> <CNNscore>
0.4951606989

> <CNNaffinity>
7.8018965721

> <CNN_VS>
3.8631925583

> <CNNaffinity_variance>
1.1441719532

$$$$
[H]c1c([H])c(S(=O)(=O)N2C([H])([H])[C@@]3([H])[C@]([H])(c4c([H])n([H])c5c([H])c([H])c(C(C([H])([H])[H])(C([H])([H])[H])C([H])([H])[H])c([H])c45)C([H])([H])[C@@]23[H])c([H])c([H])c1OC([H])([H])[H]


 31 35  0  0  0  0  0  0  0  0999 V2000
   11.3110   45.0663  129.5199 N   0  0  0  0  0  0  0  0  0  0  0  0
   10.3461   45.5130  128.6025 C   0  0  0  0  0  0  0  0  0  0  0  0
   10.5793   46.9223  129.1960 C   0  0  0  0  0  0  0  0  0  0  0  0
    9.6934   47.1878  130.3557 C   0  0  0  0  0  0  0  0  0  0  0  0
   10.9706   46.8865  131.2129 C   0  0  0  0  0  0  0  0  0  0  0  0
   11.6467   46.3054  130.0303 C   0  0  0  0  0  0  0  0  0  0  0  0
    9.3531   48.6004  130.6051 C   0  0  0  0  0  0  0  0  0  0  0  0
   10.1362   49.5709  131.1488 C   0  0  0  0  0  0  0  0  0  0  0  0
    9.3690   50.6625  131.3666 N   0  0  0  0  0  0  0  0  0  0  0  0
    8.0851   50.4375  130.9698 C   0  0  0  0  0  0  0  0  0  0  0  0
    6.9480   51.2336  130.8690 C   0  0  0  0  0  0  0  0  0  0  0  0
    5.7938   50.7066  130.2603 C   0  0  0  0  0  0  0  0  0  0  0  0
    5.8149   49.4079  129.7856 C   0  0  0  0  0  0  0  0  0  0  0  0
    6.9633   48.6297  129.9032 C   0  0  0  0  0  0  0  0  0  0  0  0
    8.1052   49.1451  130.5006 C   0  0  0  0  0  0  0  0  0  0  0  0
    9.6780   51.5673  131.7819 H   0  0  0  0  0  0  0  0  0  0  0  0
    4.6904   48.8417  129.0085 C   0  0  0  0  0  0  0  0  0  0  0  0
    3.8437   49.9628  128.3968 C   0  0  0  0  0  0  0  0  0  0  0  0
    5.2646   48.1064  127.7669 C   0  0  0  0  0  0  0  0  0  0  0  0
    3.7758   47.9236  129.7592 C   0  0  0  0  0  0  0  0  0  0  0  0
   11.6060   43.5665  130.0531 S   0  0  0  0  0  0  0  0  0  0  0  0
   11.5643   42.4545  129.0445 O   0  0  0  0  0  0  0  0  0  0  0  0
   12.9982   43.4502  130.6832 O   0  0  0  0  0  0  0  0  0  0  0  0
    8.5570   42.4290  133.2834 C   0  0  0  0  0  0  0  0  0  0  0  0
    8.1503   42.8019  131.9875 C   0  0  0  0  0  0  0  0  0  0  0  0
    9.0706   43.1507  131.0210 C   0  0  0  0  0  0  0  0  0  0  0  0
   10.4588   43.1413  131.3036 C   0  0  0  0  0  0  0  0  0  0  0  0
   10.8514   42.7759  132.5634 C   0  0  0  0  0  0  0  0  0  0  0  0
    9.8924   42.4389  133.4986 C   0  0  0  0  0  0  0  0  0  0  0  0
    6.5673   41.1980  133.8277 C   0  0  0  0  0  0  0  0  0  0  0  0
    7.6308   42.0727  134.2517 O   0  0  0  0  0  0  0  0  0  0  0  0
 30 31  1  0  0  0
 31 24  1  0  0  0
 24 25  2  0  0  0
 25 26  1  0  0  0
 26 27  2  0  0  0
 27 28  1  0  0  0
 28 29  2  0  0  0
 27 21  1  0  0  0
 21 22  2  0  0  0
 21 23  2  0  0  0
 21  1  1  0  0  0
  1  2  1  0  0  0
  2  3  1  0  0  0
  3  4  1  0  0  0
  4  5  1  0  0  0
  5  6  1  0  0  0
  4  7  1  0  0  0
  7  8  2  0  0  0
  8  9  1  0  0  0
  9 10  1  0  0  0
 10 11  2  0  0  0
 11 12  1  0  0  0
 12 13  2  0  0  0
 13 14  1  0  0  0
 14 15  2  0  0  0
 13 17  1  0  0  0
 17 18  1  0  0  0
 17 19  1  0  0  0
 17 20  1  0  0  0
 29 24  1  0  0  0
  6  1  1  0  0  0
 15  7  1  0  0  0
  6  3  1  0  0  0
 15 10  1  0  0  0
  9 16  1  0  0  0
M  END
> <minimizedAffinity>
13.01679

> <CNNscore>
0.4923432767

> <CNNaffinity>
7.7737569809

> <CNN_VS>
3.8273570538

> <CNNaffinity_variance>
2.7882061005

$$$$
[H]c1c([H])c(S(=O)(=O)N2C([H])([H])[C@@]3([H])[C@]([H])(c4c([H])n([H])c5c([H])c([H])c(C(C([H])([H])[H])(C([H])([H])[H])C([H])([H])[H])c([H])c45)C([H])([H])[C@@]23[H])c([H])c([H])c1OC([H])([H])[H]


 31 35  0  0  0  0  0  0  0  0999 V2000
   10.0224   43.8467  129.5801 N   0  0  0  0  0  0  0  0  0  0  0  0
    8.9161   43.5171  128.7803 C   0  0  0  0  0  0  0  0  0  0  0  0
    8.6575   45.0392  128.6855 C   0  0  0  0  0  0  0  0  0  0  0  0
    7.7956   45.5238  129.7912 C   0  0  0  0  0  0  0  0  0  0  0  0
    9.1376   46.0416  130.4139 C   0  0  0  0  0  0  0  0  0  0  0  0
    9.9162   45.2190  129.4598 C   0  0  0  0  0  0  0  0  0  0  0  0
    6.9839   46.7213  129.5070 C   0  0  0  0  0  0  0  0  0  0  0  0
    5.8898   46.8250  128.7052 C   0  0  0  0  0  0  0  0  0  0  0  0
    5.5754   48.1343  128.5839 N   0  0  0  0  0  0  0  0  0  0  0  0
    6.4402   48.9069  129.2992 C   0  0  0  0  0  0  0  0  0  0  0  0
    6.5048   50.2638  129.6019 C   0  0  0  0  0  0  0  0  0  0  0  0
    7.4730   50.7168  130.5172 C   0  0  0  0  0  0  0  0  0  0  0  0
    8.3422   49.8040  131.0863 C   0  0  0  0  0  0  0  0  0  0  0  0
    8.2608   48.4523  130.7630 C   0  0  0  0  0  0  0  0  0  0  0  0
    7.3065   47.9997  129.8626 C   0  0  0  0  0  0  0  0  0  0  0  0
    4.7915   48.5368  128.0271 H   0  0  0  0  0  0  0  0  0  0  0  0
    9.2846   50.1875  132.1605 C   0  0  0  0  0  0  0  0  0  0  0  0
    9.0006   49.3844  133.4342 C   0  0  0  0  0  0  0  0  0  0  0  0
   10.7122   49.7283  131.7567 C   0  0  0  0  0  0  0  0  0  0  0  0
    9.3062   51.6409  132.5210 C   0  0  0  0  0  0  0  0  0  0  0  0
   10.8631   42.9179  130.6053 S   0  0  0  0  0  0  0  0  0  0  0  0
   10.5053   41.4606  130.6686 O   0  0  0  0  0  0  0  0  0  0  0  0
   12.3608   42.9232  130.2805 O   0  0  0  0  0  0  0  0  0  0  0  0
   10.5119   44.5690  134.8687 C   0  0  0  0  0  0  0  0  0  0  0  0
   11.7661   44.3385  134.2707 C   0  0  0  0  0  0  0  0  0  0  0  0
   11.8671   43.8345  132.9906 C   0  0  0  0  0  0  0  0  0  0  0  0
   10.7069   43.5352  132.2349 C   0  0  0  0  0  0  0  0  0  0  0  0
    9.4890   43.7626  132.8177 C   0  0  0  0  0  0  0  0  0  0  0  0
    9.4387   44.2645  134.1036 C   0  0  0  0  0  0  0  0  0  0  0  0
    9.7531   46.3561  136.2833 C   0  0  0  0  0  0  0  0  0  0  0  0
   10.4123   45.0815  136.1531 O   0  0  0  0  0  0  0  0  0  0  0  0
 30 31  1  0  0  0
 31 24  1  0  0  0
 24 25  2  0  0  0
 25 26  1  0  0  0
 26 27  2  0  0  0
 27 28  1  0  0  0
 28 29  2  0  0  0
 27 21  1  0  0  0
 21 22  2  0  0  0
 21 23  2  0  0  0
 21  1  1  0  0  0
  1  2  1  0  0  0
  2  3  1  0  0  0
  3  4  1  0  0  0
  4  5  1  0  0  0
  5  6  1  0  0  0
  4  7  1  0  0  0
  7  8  2  0  0  0
  8  9  1  0  0  0
  9 10  1  0  0  0
 10 11  2  0  0  0
 11 12  1  0  0  0
 12 13  2  0  0  0
 13 14  1  0  0  0
 14 15  2  0  0  0
 13 17  1  0  0  0
 17 18  1  0  0  0
 17 19  1  0  0  0
 17 20  1  0  0  0
 29 24  1  0  0  0
  6  1  1  0  0  0
 15  7  1  0  0  0
  6  3  1  0  0  0
 15 10  1  0  0  0
  9 16  1  0  0  0
M  END
> <minimizedAffinity>
1.66497

> <CNNscore>
0.4900254309

> <CNNaffinity>
8.1388273239

> <CNN_VS>
3.9882323742

> <CNNaffinity_variance>
1.1137102842

$$$$
[H]c1c([H])c(S(=O)(=O)N2C([H])([H])[C@@]3([H])[C@]([H])(c4c([H])n([H])c5c([H])c([H])c(C(C([H])([H])[H])(C([H])([H])[H])C([H])([H])[H])c([H])c45)C([H])([H])[C@@]23[H])c([H])c([H])c1OC([H])([H])[H]


 31 35  0  0  0  0  0  0  0  0999 V2000
   10.0910   47.8929  134.2614 N   0  0  0  0  0  0  0  0  0  0  0  0
    9.6001   47.0900  135.3039 C   0  0  0  0  0  0  0  0  0  0  0  0
   10.2582   45.9015  134.5642 C   0  0  0  0  0  0  0  0  0  0  0  0
    9.3396   45.2894  133.5735 C   0  0  0  0  0  0  0  0  0  0  0  0
   10.1800   46.0892  132.5195 C   0  0  0  0  0  0  0  0  0  0  0  0
   10.7883   46.9019  133.5977 C   0  0  0  0  0  0  0  0  0  0  0  0
    9.5584   43.8617  133.2778 C   0  0  0  0  0  0  0  0  0  0  0  0
    9.6348   42.8234  134.1535 C   0  0  0  0  0  0  0  0  0  0  0  0
   10.0311   41.7238  133.4741 N   0  0  0  0  0  0  0  0  0  0  0  0
   10.2142   42.0111  132.1548 C   0  0  0  0  0  0  0  0  0  0  0  0
   10.5014   41.2475  131.0273 C   0  0  0  0  0  0  0  0  0  0  0  0
   10.4706   41.8580  129.7597 C   0  0  0  0  0  0  0  0  0  0  0  0
   10.1648   43.2035  129.6665 C   0  0  0  0  0  0  0  0  0  0  0  0
    9.8863   43.9471  130.8100 C   0  0  0  0  0  0  0  0  0  0  0  0
    9.9132   43.3497  132.0625 C   0  0  0  0  0  0  0  0  0  0  0  0
   10.1898   40.7723  133.8689 H   0  0  0  0  0  0  0  0  0  0  0  0
    9.9731   43.8725  128.3608 C   0  0  0  0  0  0  0  0  0  0  0  0
    9.5146   42.8626  127.3036 C   0  0  0  0  0  0  0  0  0  0  0  0
    8.7688   44.8468  128.4736 C   0  0  0  0  0  0  0  0  0  0  0  0
   11.1636   44.6036  127.8216 C   0  0  0  0  0  0  0  0  0  0  0  0
    9.6364   49.3785  133.8065 S   0  0  0  0  0  0  0  0  0  0  0  0
    8.5663   50.0517  134.6172 O   0  0  0  0  0  0  0  0  0  0  0  0
   10.8079   50.3662  133.8367 O   0  0  0  0  0  0  0  0  0  0  0  0
    8.0713   49.3382  129.4967 C   0  0  0  0  0  0  0  0  0  0  0  0
    7.2133   49.5759  130.5881 C   0  0  0  0  0  0  0  0  0  0  0  0
    7.6871   49.5797  131.8836 C   0  0  0  0  0  0  0  0  0  0  0  0
    9.0576   49.3462  132.1558 C   0  0  0  0  0  0  0  0  0  0  0  0
    9.8898   49.1178  131.0928 C   0  0  0  0  0  0  0  0  0  0  0  0
    9.3680   49.1200  129.8139 C   0  0  0  0  0  0  0  0  0  0  0  0
    6.8138   50.4869  127.8026 C   0  0  0  0  0  0  0  0  0  0  0  0
    7.5944   49.3410  128.1948 O   0  0  0  0  0  0  0  0  0  0  0  0
 30 31  1  0  0  0
 31 24  1  0  0  0
 24 25  2  0  0  0
 25 26  1  0  0  0
 26 27  2  0  0  0
 27 28  1  0  0  0
 28 29  2  0  0  0
 27 21  1  0  0  0
 21 22  2  0  0  0
 21 23  2  0  0  0
 21  1  1  0  0  0
  1  2  1  0  0  0
  2  3  1  0  0  0
  3  4  1  0  0  0
  4  5  1  0  0  0
  5  6  1  0  0  0
  4  7  1  0  0  0
  7  8  2  0  0  0
  8  9  1  0  0  0
  9 10  1  0  0  0
 10 11  2  0  0  0
 11 12  1  0  0  0
 12 13  2  0  0  0
 13 14  1  0  0  0
 14 15  2  0  0  0
 13 17  1  0  0  0
 17 18  1  0  0  0
 17 19  1  0  0  0
 17 20  1  0  0  0
 29 24  1  0  0  0
  6  1  1  0  0  0
 15  7  1  0  0  0
  6  3  1  0  0  0
 15 10  1  0  0  0
  9 16  1  0  0  0
M  END
> <minimizedAffinity>
8.28757

> <CNNscore>
0.4606465995

> <CNNaffinity>
7.8016691208

> <CNN_VS>
3.5938124657

> <CNNaffinity_variance>
1.7109571695

$$$$
[H]c1c([H])c(S(=O)(=O)N2C([H])([H])[C@@]3([H])[C@]([H])(c4c([H])n([H])c5c([H])c([H])c(C(C([H])([H])[H])(C([H])([H])[H])C([H])([H])[H])c([H])c45)C([H])([H])[C@@]23[H])c([H])c([H])c1OC([H])([H])[H]


 31 35  0  0  0  0  0  0  0  0999 V2000
   10.8501   44.5313  130.0932 N   0  0  0  0  0  0  0  0  0  0  0  0
    9.5121   44.7884  129.7527 C   0  0  0  0  0  0  0  0  0  0  0  0
    9.9173   46.2802  129.6979 C   0  0  0  0  0  0  0  0  0  0  0  0
    9.7757   46.9408  131.0185 C   0  0  0  0  0  0  0  0  0  0  0  0
   11.3323   46.7772  131.1026 C   0  0  0  0  0  0  0  0  0  0  0  0
   11.3099   45.8279  129.9662 C   0  0  0  0  0  0  0  0  0  0  0  0
    9.5141   48.3915  130.9961 C   0  0  0  0  0  0  0  0  0  0  0  0
   10.3147   49.3975  131.4408 C   0  0  0  0  0  0  0  0  0  0  0  0
    9.6091   50.5500  131.4012 N   0  0  0  0  0  0  0  0  0  0  0  0
    8.3499   50.3295  130.9297 C   0  0  0  0  0  0  0  0  0  0  0  0
    7.2826   51.1565  130.5921 C   0  0  0  0  0  0  0  0  0  0  0  0
    6.1490   50.5955  129.9751 C   0  0  0  0  0  0  0  0  0  0  0  0
    6.1197   49.2351  129.7278 C   0  0  0  0  0  0  0  0  0  0  0  0
    7.1982   48.4282  130.0798 C   0  0  0  0  0  0  0  0  0  0  0  0
    8.3195   48.9764  130.6866 C   0  0  0  0  0  0  0  0  0  0  0  0
    9.9444   51.4948  131.6867 H   0  0  0  0  0  0  0  0  0  0  0  0
    5.0268   48.6050  128.9547 C   0  0  0  0  0  0  0  0  0  0  0  0
    5.5307   48.1634  127.5767 C   0  0  0  0  0  0  0  0  0  0  0  0
    4.6394   47.2671  129.6417 C   0  0  0  0  0  0  0  0  0  0  0  0
    3.8013   49.4426  128.7563 C   0  0  0  0  0  0  0  0  0  0  0  0
   11.5009   43.2214  130.7871 S   0  0  0  0  0  0  0  0  0  0  0  0
   10.9275   41.8848  130.4125 O   0  0  0  0  0  0  0  0  0  0  0  0
   12.9945   43.0919  130.4691 O   0  0  0  0  0  0  0  0  0  0  0  0
   11.2019   43.5959  135.3473 C   0  0  0  0  0  0  0  0  0  0  0  0
   12.3076   44.1051  134.6390 C   0  0  0  0  0  0  0  0  0  0  0  0
   12.3971   43.9835  133.2678 C   0  0  0  0  0  0  0  0  0  0  0  0
   11.3733   43.3425  132.5277 C   0  0  0  0  0  0  0  0  0  0  0  0
   10.2983   42.8507  133.2186 C   0  0  0  0  0  0  0  0  0  0  0  0
   10.2556   42.9929  134.5919 C   0  0  0  0  0  0  0  0  0  0  0  0
   10.3671   44.8580  137.2130 C   0  0  0  0  0  0  0  0  0  0  0  0
   11.1107   43.7246  136.7248 O   0  0  0  0  0  0  0  0  0  0  0  0
 30 31  1  0  0  0
 31 24  1  0  0  0
 24 25  2  0  0  0
 25 26  1  0  0  0
 26 27  2  0  0  0
 27 28  1  0  0  0
 28 29  2  0  0  0
 27 21  1  0  0  0
 21 22  2  0  0  0
 21 23  2  0  0  0
 21  1  1  0  0  0
  1  2  1  0  0  0
  2  3  1  0  0  0
  3  4  1  0  0  0
  4  5  1  0  0  0
  5  6  1  0  0  0
  4  7  1  0  0  0
  7  8  2  0  0  0
  8  9  1  0  0  0
  9 10  1  0  0  0
 10 11  2  0  0  0
 11 12  1  0  0  0
 12 13  2  0  0  0
 13 14  1  0  0  0
 14 15  2  0  0  0
 13 17  1  0  0  0
 17 18  1  0  0  0
 17 19  1  0  0  0
 17 20  1  0  0  0
 29 24  1  0  0  0
  6  1  1  0  0  0
 15  7  1  0  0  0
  6  3  1  0  0  0
 15 10  1  0  0  0
  9 16  1  0  0  0
M  END
> <minimizedAffinity>
7.28741

> <CNNscore>
0.4581456184

> <CNNaffinity>
7.7129850388

> <CNN_VS>
3.5336701870

> <CNNaffinity_variance>
1.4913227558

$$$$
[H]c1c([H])c(S(=O)(=O)N2C([H])([H])[C@@]3([H])[C@]([H])(c4c([H])n([H])c5c([H])c([H])c(C(C([H])([H])[H])(C([H])([H])[H])C([H])([H])[H])c([H])c45)C([H])([H])[C@@]23[H])c([H])c([H])c1OC([H])([H])[H]


 31 35  0  0  0  0  0  0  0  0999 V2000
    9.5682   45.2820  133.9670 N   0  0  0  0  0  0  0  0  0  0  0  0
    9.7646   46.2908  134.9242 C   0  0  0  0  0  0  0  0  0  0  0  0
    9.0123   47.2252  133.9476 C   0  0  0  0  0  0  0  0  0  0  0  0
    9.9331   47.8728  132.9817 C   0  0  0  0  0  0  0  0  0  0  0  0
    9.3969   46.7977  131.9749 C   0  0  0  0  0  0  0  0  0  0  0  0
    8.8024   46.0263  133.0905 C   0  0  0  0  0  0  0  0  0  0  0  0
    9.5071   49.1815  132.4532 C   0  0  0  0  0  0  0  0  0  0  0  0
    9.8396   50.4203  132.9064 C   0  0  0  0  0  0  0  0  0  0  0  0
    9.0811   51.3288  132.2526 N   0  0  0  0  0  0  0  0  0  0  0  0
    8.2510   50.7147  131.3636 C   0  0  0  0  0  0  0  0  0  0  0  0
    7.3704   51.1692  130.3864 C   0  0  0  0  0  0  0  0  0  0  0  0
    6.7682   50.2383  129.5196 C   0  0  0  0  0  0  0  0  0  0  0  0
    7.0593   48.8943  129.6660 C   0  0  0  0  0  0  0  0  0  0  0  0
    7.9398   48.4642  130.6549 C   0  0  0  0  0  0  0  0  0  0  0  0
    8.5381   49.3781  131.5112 C   0  0  0  0  0  0  0  0  0  0  0  0
    9.0966   52.3626  132.3848 H   0  0  0  0  0  0  0  0  0  0  0  0
    6.5775   47.8811  128.7015 C   0  0  0  0  0  0  0  0  0  0  0  0
    7.3638   46.5753  128.8584 C   0  0  0  0  0  0  0  0  0  0  0  0
    5.1284   47.4769  129.0876 C   0  0  0  0  0  0  0  0  0  0  0  0
    6.6213   48.2810  127.2590 C   0  0  0  0  0  0  0  0  0  0  0  0
   10.3352   43.8672  133.7922 S   0  0  0  0  0  0  0  0  0  0  0  0
   11.2438   43.4322  134.9061 O   0  0  0  0  0  0  0  0  0  0  0  0
    9.3517   42.7026  133.6332 O   0  0  0  0  0  0  0  0  0  0  0  0
   12.8398   43.9497  129.9522 C   0  0  0  0  0  0  0  0  0  0  0  0
   11.4825   43.5737  129.9366 C   0  0  0  0  0  0  0  0  0  0  0  0
   10.7347   43.5430  131.0954 C   0  0  0  0  0  0  0  0  0  0  0  0
   11.3118   43.8931  132.3409 C   0  0  0  0  0  0  0  0  0  0  0  0
   12.6307   44.2606  132.3528 C   0  0  0  0  0  0  0  0  0  0  0  0
   13.3394   44.2720  131.1672 C   0  0  0  0  0  0  0  0  0  0  0  0
   15.0033   44.2073  128.9407 C   0  0  0  0  0  0  0  0  0  0  0  0
   13.5881   43.9859  128.7856 O   0  0  0  0  0  0  0  0  0  0  0  0
 30 31  1  0  0  0
 31 24  1  0  0  0
 24 25  2  0  0  0
 25 26  1  0  0  0
 26 27  2  0  0  0
 27 28  1  0  0  0
 28 29  2  0  0  0
 27 21  1  0  0  0
 21 22  2  0  0  0
 21 23  2  0  0  0
 21  1  1  0  0  0
  1  2  1  0  0  0
  2  3  1  0  0  0
  3  4  1  0  0  0
  4  5  1  0  0  0
  5  6  1  0  0  0
  4  7  1  0  0  0
  7  8  2  0  0  0
  8  9  1  0  0  0
  9 10  1  0  0  0
 10 11  2  0  0  0
 11 12  1  0  0  0
 12 13  2  0  0  0
 13 14  1  0  0  0
 14 15  2  0  0  0
 13 17  1  0  0  0
 17 18  1  0  0  0
 17 19  1  0  0  0
 17 20  1  0  0  0
 29 24  1  0  0  0
  6  1  1  0  0  0
 15  7  1  0  0  0
  6  3  1  0  0  0
 15 10  1  0  0  0
  9 16  1  0  0  0
M  END
> <minimizedAffinity>
-0.51161

> <CNNscore>
0.4277207553

> <CNNaffinity>
7.8627786636

> <CNN_VS>
3.3630735874

> <CNNaffinity_variance>
0.3430283964

$$$$
[H]c1c([H])c(S(=O)(=O)N2C([H])([H])[C@@]3([H])[C@]([H])(c4c([H])n([H])c5c([H])c([H])c(C(C([H])([H])[H])(C([H])([H])[H])C([H])([H])[H])c([H])c45)C([H])([H])[C@@]23[H])c([H])c([H])c1OC([H])([H])[H]


 31 35  0  0  0  0  0  0  0  0999 V2000
   10.2752   48.9794  132.5692 N   0  0  0  0  0  0  0  0  0  0  0  0
    9.9935   48.6553  133.9064 C   0  0  0  0  0  0  0  0  0  0  0  0
   10.6775   47.2984  133.6169 C   0  0  0  0  0  0  0  0  0  0  0  0
    9.7159   46.2926  133.1030 C   0  0  0  0  0  0  0  0  0  0  0  0
   10.3418   46.6248  131.7048 C   0  0  0  0  0  0  0  0  0  0  0  0
   10.9868   47.8353  132.2633 C   0  0  0  0  0  0  0  0  0  0  0  0
   10.0421   44.8811  133.3759 C   0  0  0  0  0  0  0  0  0  0  0  0
   10.2869   44.2914  134.5771 C   0  0  0  0  0  0  0  0  0  0  0  0
   10.7270   43.0333  134.3502 N   0  0  0  0  0  0  0  0  0  0  0  0
   10.7733   42.7715  133.0138 C   0  0  0  0  0  0  0  0  0  0  0  0
   11.0367   41.6332  132.2576 C   0  0  0  0  0  0  0  0  0  0  0  0
   10.8449   41.6762  130.8642 C   0  0  0  0  0  0  0  0  0  0  0  0
   10.4080   42.8509  130.2795 C   0  0  0  0  0  0  0  0  0  0  0  0
   10.1564   43.9779  131.0573 C   0  0  0  0  0  0  0  0  0  0  0  0
   10.3419   43.9405  132.4322 C   0  0  0  0  0  0  0  0  0  0  0  0
   11.0058   42.3325  135.0697 H   0  0  0  0  0  0  0  0  0  0  0  0
   10.0479   42.9235  128.8463 C   0  0  0  0  0  0  0  0  0  0  0  0
    8.7484   43.7136  128.6597 C   0  0  0  0  0  0  0  0  0  0  0  0
   11.1053   43.7917  128.1114 C   0  0  0  0  0  0  0  0  0  0  0  0
    9.8992   41.6092  128.1439 C   0  0  0  0  0  0  0  0  0  0  0  0
    9.6224   50.1246  131.6295 S   0  0  0  0  0  0  0  0  0  0  0  0
    9.1523   51.3833  132.3006 O   0  0  0  0  0  0  0  0  0  0  0  0
   10.6066   50.6134  130.5613 O   0  0  0  0  0  0  0  0  0  0  0  0
    6.0162   48.3678  129.4082 C   0  0  0  0  0  0  0  0  0  0  0  0
    7.1571   47.5908  129.6877 C   0  0  0  0  0  0  0  0  0  0  0  0
    8.2429   48.1254  130.3495 C   0  0  0  0  0  0  0  0  0  0  0  0
    8.2414   49.4775  130.7723 C   0  0  0  0  0  0  0  0  0  0  0  0
    7.1299   50.2299  130.5014 C   0  0  0  0  0  0  0  0  0  0  0  0
    6.0691   49.6511  129.8324 C   0  0  0  0  0  0  0  0  0  0  0  0
    4.1688   46.8336  129.4694 C   0  0  0  0  0  0  0  0  0  0  0  0
    4.9233   47.8269  128.7483 O   0  0  0  0  0  0  0  0  0  0  0  0
 30 31  1  0  0  0
 31 24  1  0  0  0
 24 25  2  0  0  0
 25 26  1  0  0  0
 26 27  2  0  0  0
 27 28  1  0  0  0
 28 29  2  0  0  0
 27 21  1  0  0  0
 21 22  2  0  0  0
 21 23  2  0  0  0
 21  1  1  0  0  0
  1  2  1  0  0  0
  2  3  1  0  0  0
  3  4  1  0  0  0
  4  5  1  0  0  0
  5  6  1  0  0  0
  4  7  1  0  0  0
  7  8  2  0  0  0
  8  9  1  0  0  0
  9 10  1  0  0  0
 10 11  2  0  0  0
 11 12  1  0  0  0
 12 13  2  0  0  0
 13 14  1  0  0  0
 14 15  2  0  0  0
 13 17  1  0  0  0
 17 18  1  0  0  0
 17 19  1  0  0  0
 17 20  1  0  0  0
 29 24  1  0  0  0
  6  1  1  0  0  0
 15  7  1  0  0  0
  6  3  1  0  0  0
 15 10  1  0  0  0
  9 16  1  0  0  0
M  END
> <minimizedAffinity>
2.41144

> <CNNscore>
0.4203122854

> <CNNaffinity>
7.9748015404

> <CNN_VS>
3.3519070148

> <CNNaffinity_variance>
1.0430729389

$$$$
[H]c1c([H])c(C(F)(F)F)c([H])c([C@]2([H])C([H])([H])[C@@]3([H])N(S(=O)(=O)c4c([H])c([H])c(OC([H])([H])[H])c([H])c4[H])C([H])([H])[C@@]23[H])c1[H]


 27 30  0  0  0  0  0  0  0  0999 V2000
    9.5204   47.1574  131.9137 N   0  0  0  0  0  0  0  0  0  0  0  0
    8.8734   46.9970  133.1459 C   0  0  0  0  0  0  0  0  0  0  0  0
   10.2240   47.0548  133.8200 C   0  0  0  0  0  0  0  0  0  0  0  0
   10.7720   45.8291  134.3623 C   0  0  0  0  0  0  0  0  0  0  0  0
   10.6826   45.2320  132.9088 C   0  0  0  0  0  0  0  0  0  0  0  0
   10.7200   46.6678  132.4424 C   0  0  0  0  0  0  0  0  0  0  0  0
   12.2315   45.8082  134.7101 C   0  0  0  0  0  0  0  0  0  0  0  0
   13.0225   44.6917  134.6077 C   0  0  0  0  0  0  0  0  0  0  0  0
   14.3516   44.7109  135.0726 C   0  0  0  0  0  0  0  0  0  0  0  0
   14.8876   45.8438  135.6403 C   0  0  0  0  0  0  0  0  0  0  0  0
   14.0697   46.9451  135.7250 C   0  0  0  0  0  0  0  0  0  0  0  0
   12.7412   46.9580  135.2684 C   0  0  0  0  0  0  0  0  0  0  0  0
   14.6028   48.1813  136.3425 C   0  0  0  0  0  0  0  0  0  0  0  0
   13.9266   48.4674  137.4974 F   0  0  0  0  0  0  0  0  0  0  0  0
   14.4728   49.1943  135.4512 F   0  0  0  0  0  0  0  0  0  0  0  0
   15.9757   48.0267  136.6309 F   0  0  0  0  0  0  0  0  0  0  0  0
    8.9843   46.6814  130.4388 S   0  0  0  0  0  0  0  0  0  0  0  0
    9.4932   45.3432  129.9149 O   0  0  0  0  0  0  0  0  0  0  0  0
    9.5688   47.6569  129.4139 O   0  0  0  0  0  0  0  0  0  0  0  0
    4.5036   46.8802  129.7347 C   0  0  0  0  0  0  0  0  0  0  0  0
    5.3983   47.5426  128.9452 C   0  0  0  0  0  0  0  0  0  0  0  0
    6.7583   47.4336  129.1883 C   0  0  0  0  0  0  0  0  0  0  0  0
    7.2670   46.6718  130.2055 C   0  0  0  0  0  0  0  0  0  0  0  0
    6.3542   46.0091  130.9802 C   0  0  0  0  0  0  0  0  0  0  0  0
    4.9976   46.1091  130.7625 C   0  0  0  0  0  0  0  0  0  0  0  0
    2.4238   45.7247  129.4045 C   0  0  0  0  0  0  0  0  0  0  0  0
    3.1074   46.9636  129.5518 O   0  0  0  0  0  0  0  0  0  0  0  0
 26 27  1  0  0  0
 27 20  1  0  0  0
 20 21  2  0  0  0
 21 22  1  0  0  0
 22 23  2  0  0  0
 23 24  1  0  0  0
 24 25  2  0  0  0
 23 17  1  0  0  0
 17 18  2  0  0  0
 17 19  2  0  0  0
 17  1  1  0  0  0
  1  2  1  0  0  0
  2  3  1  0  0  0
  3  4  1  0  0  0
  4  5  1  0  0  0
  5  6  1  0  0  0
  4  7  1  0  0  0
  7  8  2  0  0  0
  8  9  1  0  0  0
  9 10  2  0  0  0
 10 11  1  0  0  0
 11 12  2  0  0  0
 11 13  1  0  0  0
 13 14  1  0  0  0
 13 15  1  0  0  0
 13 16  1  0  0  0
 25 20  1  0  0  0
  6  1  1  0  0  0
 12  7  1  0  0  0
  6  3  1  0  0  0
M  END
> <minimizedAffinity>
24.85580

> <CNNscore>
0.5211709738

> <CNNaffinity>
6.8849358559

> <CNN_VS>
3.5882287025

> <CNNaffinity_variance>
1.5639365911

$$$$
[H]c1c([H])c(C(F)(F)F)c([H])c([C@]2([H])C([H])([H])[C@@]3([H])N(S(=O)(=O)c4c([H])c([H])c(OC([H])([H])[H])c([H])c4[H])C([H])([H])[C@@]23[H])c1[H]


 27 30  0  0  0  0  0  0  0  0999 V2000
   11.2094   43.5990  133.2124 N   0  0  0  0  0  0  0  0  0  0  0  0
   12.1314   44.1747  134.0963 C   0  0  0  0  0  0  0  0  0  0  0  0
   11.1416   45.2886  134.3440 C   0  0  0  0  0  0  0  0  0  0  0  0
   11.4220   46.5923  133.7796 C   0  0  0  0  0  0  0  0  0  0  0  0
   11.4337   45.8977  132.3674 C   0  0  0  0  0  0  0  0  0  0  0  0
   10.5798   44.8328  133.0135 C   0  0  0  0  0  0  0  0  0  0  0  0
   10.2999   47.5869  133.7226 C   0  0  0  0  0  0  0  0  0  0  0  0
   10.0970   48.4462  132.6723 C   0  0  0  0  0  0  0  0  0  0  0  0
    9.1019   49.4401  132.7426 C   0  0  0  0  0  0  0  0  0  0  0  0
    8.3130   49.5754  133.8616 C   0  0  0  0  0  0  0  0  0  0  0  0
    8.5402   48.6972  134.8941 C   0  0  0  0  0  0  0  0  0  0  0  0
    9.5230   47.6941  134.8533 C   0  0  0  0  0  0  0  0  0  0  0  0
    7.7226   48.8173  136.1232 C   0  0  0  0  0  0  0  0  0  0  0  0
    8.3852   48.2765  137.1916 F   0  0  0  0  0  0  0  0  0  0  0  0
    6.5463   48.1757  135.9181 F   0  0  0  0  0  0  0  0  0  0  0  0
    7.4397   50.1747  136.3872 F   0  0  0  0  0  0  0  0  0  0  0  0
   11.5288   42.5950  131.9559 S   0  0  0  0  0  0  0  0  0  0  0  0
   11.1010   41.1393  132.1056 O   0  0  0  0  0  0  0  0  0  0  0  0
   13.0512   42.4618  131.8651 O   0  0  0  0  0  0  0  0  0  0  0  0
   10.1504   44.1565  127.9219 C   0  0  0  0  0  0  0  0  0  0  0  0
   11.2227   44.6823  128.5822 C   0  0  0  0  0  0  0  0  0  0  0  0
   11.6173   44.1569  129.8024 C   0  0  0  0  0  0  0  0  0  0  0  0
   10.9721   43.1057  130.3961 C   0  0  0  0  0  0  0  0  0  0  0  0
    9.9048   42.5874  129.7142 C   0  0  0  0  0  0  0  0  0  0  0  0
    9.4896   43.0986  128.5042 C   0  0  0  0  0  0  0  0  0  0  0  0
   10.6874   45.1264  125.7909 C   0  0  0  0  0  0  0  0  0  0  0  0
    9.6873   44.6563  126.6868 O   0  0  0  0  0  0  0  0  0  0  0  0
 26 27  1  0  0  0
 27 20  1  0  0  0
 20 21  2  0  0  0
 21 22  1  0  0  0
 22 23  2  0  0  0
 23 24  1  0  0  0
 24 25  2  0  0  0
 23 17  1  0  0  0
 17 18  2  0  0  0
 17 19  2  0  0  0
 17  1  1  0  0  0
  1  2  1  0  0  0
  2  3  1  0  0  0
  3  4  1  0  0  0
  4  5  1  0  0  0
  5  6  1  0  0  0
  4  7  1  0  0  0
  7  8  2  0  0  0
  8  9  1  0  0  0
  9 10  2  0  0  0
 10 11  1  0  0  0
 11 12  2  0  0  0
 11 13  1  0  0  0
 13 14  1  0  0  0
 13 15  1  0  0  0
 13 16  1  0  0  0
 25 20  1  0  0  0
  6  1  1  0  0  0
 12  7  1  0  0  0
  6  3  1  0  0  0
M  END
> <minimizedAffinity>
11.09755

> <CNNscore>
0.4994129241

> <CNNaffinity>
7.4063239098

> <CNN_VS>
3.6988139153

> <CNNaffinity_variance>
1.2836072445

$$$$
[H]c1c([H])c(C(F)(F)F)c([H])c([C@]2([H])C([H])([H])[C@@]3([H])N(S(=O)(=O)c4c([H])c([H])c(OC([H])([H])[H])c([H])c4[H])C([H])([H])[C@@]23[H])c1[H]


 27 30  0  0  0  0  0  0  0  0999 V2000
    7.7352   45.9255  129.1155 N   0  0  0  0  0  0  0  0  0  0  0  0
    8.8191   46.2788  128.3013 C   0  0  0  0  0  0  0  0  0  0  0  0
    9.6537   45.2531  129.0315 C   0  0  0  0  0  0  0  0  0  0  0  0
   10.6646   45.7243  129.9551 C   0  0  0  0  0  0  0  0  0  0  0  0
    9.5072   46.4474  130.7390 C   0  0  0  0  0  0  0  0  0  0  0  0
    8.5951   45.4271  130.1006 C   0  0  0  0  0  0  0  0  0  0  0  0
   11.2426   44.7358  130.9248 C   0  0  0  0  0  0  0  0  0  0  0  0
   11.6368   43.4686  130.5759 C   0  0  0  0  0  0  0  0  0  0  0  0
   12.0503   42.5510  131.5608 C   0  0  0  0  0  0  0  0  0  0  0  0
   12.0674   42.8994  132.8917 C   0  0  0  0  0  0  0  0  0  0  0  0
   11.6694   44.1766  133.2066 C   0  0  0  0  0  0  0  0  0  0  0  0
   11.2541   45.1153  132.2474 C   0  0  0  0  0  0  0  0  0  0  0  0
   11.6593   44.5882  134.6294 C   0  0  0  0  0  0  0  0  0  0  0  0
   12.7381   45.3847  134.9032 F   0  0  0  0  0  0  0  0  0  0  0  0
   11.6848   43.4715  135.3973 F   0  0  0  0  0  0  0  0  0  0  0  0
   10.4719   45.2928  134.9223 F   0  0  0  0  0  0  0  0  0  0  0  0
    6.4407   46.8530  129.5069 S   0  0  0  0  0  0  0  0  0  0  0  0
    5.7625   46.5685  130.8424 O   0  0  0  0  0  0  0  0  0  0  0  0
    5.3267   46.5082  128.5150 O   0  0  0  0  0  0  0  0  0  0  0  0
    6.8084   51.3701  129.2376 C   0  0  0  0  0  0  0  0  0  0  0  0
    5.6216   50.7467  129.4928 C   0  0  0  0  0  0  0  0  0  0  0  0
    5.5646   49.3652  129.5861 C   0  0  0  0  0  0  0  0  0  0  0  0
    6.6683   48.5696  129.4350 C   0  0  0  0  0  0  0  0  0  0  0  0
    7.8499   49.2143  129.1881 C   0  0  0  0  0  0  0  0  0  0  0  0
    7.9289   50.5855  129.0830 C   0  0  0  0  0  0  0  0  0  0  0  0
    7.0965   53.2649  127.7894 C   0  0  0  0  0  0  0  0  0  0  0  0
    6.9306   52.7699  129.1128 O   0  0  0  0  0  0  0  0  0  0  0  0
 26 27  1  0  0  0
 27 20  1  0  0  0
 20 21  2  0  0  0
 21 22  1  0  0  0
 22 23  2  0  0  0
 23 24  1  0  0  0
 24 25  2  0  0  0
 23 17  1  0  0  0
 17 18  2  0  0  0
 17 19  2  0  0  0
 17  1  1  0  0  0
  1  2  1  0  0  0
  2  3  1  0  0  0
  3  4  1  0  0  0
  4  5  1  0  0  0
  5  6  1  0  0  0
  4  7  1  0  0  0
  7  8  2  0  0  0
  8  9  1  0  0  0
  9 10  2  0  0  0
 10 11  1  0  0  0
 11 12  2  0  0  0
 11 13  1  0  0  0
 13 14  1  0  0  0
 13 15  1  0  0  0
 13 16  1  0  0  0
 25 20  1  0  0  0
  6  1  1  0  0  0
 12  7  1  0  0  0
  6  3  1  0  0  0
M  END
> <minimizedAffinity>
-0.41048

> <CNNscore>
0.4355449677

> <CNNaffinity>
7.1060342789

> <CNN_VS>
3.0949974060

> <CNNaffinity_variance>
0.8984166980

$$$$
[H]c1c([H])c(C(F)(F)F)c([H])c([C@]2([H])C([H])([H])[C@@]3([H])N(S(=O)(=O)c4c([H])c([H])c(OC([H])([H])[H])c([H])c4[H])C([H])([H])[C@@]23[H])c1[H]


 27 30  0  0  0  0  0  0  0  0999 V2000
   10.7134   45.9658  133.8103 N   0  0  0  0  0  0  0  0  0  0  0  0
   10.3478   44.7987  134.4936 C   0  0  0  0  0  0  0  0  0  0  0  0
   10.5175   44.0342  133.2019 C   0  0  0  0  0  0  0  0  0  0  0  0
    9.3279   43.5700  132.5191 C   0  0  0  0  0  0  0  0  0  0  0  0
    8.8705   45.0742  132.4476 C   0  0  0  0  0  0  0  0  0  0  0  0
   10.3376   45.4053  132.5844 C   0  0  0  0  0  0  0  0  0  0  0  0
    9.4666   43.1297  131.0914 C   0  0  0  0  0  0  0  0  0  0  0  0
    9.1752   41.8622  130.6540 C   0  0  0  0  0  0  0  0  0  0  0  0
    9.4506   41.4822  129.3263 C   0  0  0  0  0  0  0  0  0  0  0  0
   10.0180   42.3673  128.4388 C   0  0  0  0  0  0  0  0  0  0  0  0
   10.2946   43.6291  128.9081 C   0  0  0  0  0  0  0  0  0  0  0  0
   10.0296   44.0390  130.2255 C   0  0  0  0  0  0  0  0  0  0  0  0
   10.9189   44.6088  127.9894 C   0  0  0  0  0  0  0  0  0  0  0  0
   10.7674   44.2077  126.6897 F   0  0  0  0  0  0  0  0  0  0  0  0
   12.2329   44.7134  128.3053 F   0  0  0  0  0  0  0  0  0  0  0  0
   10.3265   45.8787  128.1585 F   0  0  0  0  0  0  0  0  0  0  0  0
   10.3184   47.5099  134.1961 S   0  0  0  0  0  0  0  0  0  0  0  0
   11.4314   48.3926  134.7497 O   0  0  0  0  0  0  0  0  0  0  0  0
    9.3572   47.4422  135.3858 O   0  0  0  0  0  0  0  0  0  0  0  0
    8.4660   50.0635  130.9312 C   0  0  0  0  0  0  0  0  0  0  0  0
    9.7920   49.7411  130.9439 C   0  0  0  0  0  0  0  0  0  0  0  0
   10.3062   48.9408  131.9518 C   0  0  0  0  0  0  0  0  0  0  0  0
    9.5315   48.4388  132.9626 C   0  0  0  0  0  0  0  0  0  0  0  0
    8.2034   48.7666  132.9272 C   0  0  0  0  0  0  0  0  0  0  0  0
    7.6718   49.5671  131.9401 C   0  0  0  0  0  0  0  0  0  0  0  0
    7.2366   50.2128  128.8729 C   0  0  0  0  0  0  0  0  0  0  0  0
    7.8843   50.8874  129.9450 O   0  0  0  0  0  0  0  0  0  0  0  0
 26 27  1  0  0  0
 27 20  1  0  0  0
 20 21  2  0  0  0
 21 22  1  0  0  0
 22 23  2  0  0  0
 23 24  1  0  0  0
 24 25  2  0  0  0
 23 17  1  0  0  0
 17 18  2  0  0  0
 17 19  2  0  0  0
 17  1  1  0  0  0
  1  2  1  0  0  0
  2  3  1  0  0  0
  3  4  1  0  0  0
  4  5  1  0  0  0
  5  6  1  0  0  0
  4  7  1  0  0  0
  7  8  2  0  0  0
  8  9  1  0  0  0
  9 10  2  0  0  0
 10 11  1  0  0  0
 11 12  2  0  0  0
 11 13  1  0  0  0
 13 14  1  0  0  0
 13 15  1  0  0  0
 13 16  1  0  0  0
 25 20  1  0  0  0
  6  1  1  0  0  0
 12  7  1  0  0  0
  6  3  1  0  0  0
M  END
> <minimizedAffinity>
-0.29411

> <CNNscore>
0.4331773221

> <CNNaffinity>
7.3498930931

> <CNN_VS>
3.1838068962

> <CNNaffinity_variance>
0.8010500073

$$$$
[H]c1c([H])c(C(F)(F)F)c([H])c([C@]2([H])C([H])([H])[C@@]3([H])N(S(=O)(=O)c4c([H])c([H])c(OC([H])([H])[H])c([H])c4[H])C([H])([H])[C@@]23[H])c1[H]


 27 30  0  0  0  0  0  0  0  0999 V2000
   10.6980   46.1929  134.0942 N   0  0  0  0  0  0  0  0  0  0  0  0
   10.9220   44.9015  134.5890 C   0  0  0  0  0  0  0  0  0  0  0  0
   11.8320   44.6482  133.4102 C   0  0  0  0  0  0  0  0  0  0  0  0
   11.3633   43.7691  132.3594 C   0  0  0  0  0  0  0  0  0  0  0  0
   10.1513   44.7560  132.1746 C   0  0  0  0  0  0  0  0  0  0  0  0
   11.0520   45.7941  132.8003 C   0  0  0  0  0  0  0  0  0  0  0  0
   12.0952   43.7909  131.0497 C   0  0  0  0  0  0  0  0  0  0  0  0
   13.4603   43.8779  130.9419 C   0  0  0  0  0  0  0  0  0  0  0  0
   14.0711   44.0231  129.6814 C   0  0  0  0  0  0  0  0  0  0  0  0
   13.3180   44.0830  128.5316 C   0  0  0  0  0  0  0  0  0  0  0  0
   11.9542   43.9900  128.6743 C   0  0  0  0  0  0  0  0  0  0  0  0
   11.3155   43.8423  129.9169 C   0  0  0  0  0  0  0  0  0  0  0  0
   11.1053   44.0644  127.4629 C   0  0  0  0  0  0  0  0  0  0  0  0
   11.8204   43.6948  126.3560 F   0  0  0  0  0  0  0  0  0  0  0  0
   10.6537   45.3360  127.3353 F   0  0  0  0  0  0  0  0  0  0  0  0
    9.9865   43.2152  127.6014 F   0  0  0  0  0  0  0  0  0  0  0  0
    9.3929   47.1488  134.3622 S   0  0  0  0  0  0  0  0  0  0  0  0
    9.4245   48.0330  135.6038 O   0  0  0  0  0  0  0  0  0  0  0  0
    8.2151   46.2215  134.6731 O   0  0  0  0  0  0  0  0  0  0  0  0
    8.1450   50.0181  131.0725 C   0  0  0  0  0  0  0  0  0  0  0  0
    9.0772   50.3454  132.0139 C   0  0  0  0  0  0  0  0  0  0  0  0
    9.4399   49.4268  132.9862 C   0  0  0  0  0  0  0  0  0  0  0  0
    8.8998   48.1706  133.0521 C   0  0  0  0  0  0  0  0  0  0  0  0
    7.9733   47.8591  132.0943 C   0  0  0  0  0  0  0  0  0  0  0  0
    7.5914   48.7588  131.1235 C   0  0  0  0  0  0  0  0  0  0  0  0
    6.6532   50.4597  129.2423 C   0  0  0  0  0  0  0  0  0  0  0  0
    7.7194   50.9125  130.0682 O   0  0  0  0  0  0  0  0  0  0  0  0
 26 27  1  0  0  0
 27 20  1  0  0  0
 20 21  2  0  0  0
 21 22  1  0  0  0
 22 23  2  0  0  0
 23 24  1  0  0  0
 24 25  2  0  0  0
 23 17  1  0  0  0
 17 18  2  0  0  0
 17 19  2  0  0  0
 17  1  1  0  0  0
  1  2  1  0  0  0
  2  3  1  0  0  0
  3  4  1  0  0  0
  4  5  1  0  0  0
  5  6  1  0  0  0
  4  7  1  0  0  0
  7  8  2  0  0  0
  8  9  1  0  0  0
  9 10  2  0  0  0
 10 11  1  0  0  0
 11 12  2  0  0  0
 11 13  1  0  0  0
 13 14  1  0  0  0
 13 15  1  0  0  0
 13 16  1  0  0  0
 25 20  1  0  0  0
  6  1  1  0  0  0
 12  7  1  0  0  0
  6  3  1  0  0  0
M  END
> <minimizedAffinity>
1.45787

> <CNNscore>
0.4212326109

> <CNNaffinity>
7.0668077469

> <CNN_VS>
2.9767699242

> <CNNaffinity_variance>
0.8045710325

$$$$
[H]c1c([H])c(C(F)(F)F)c([H])c([C@]2([H])C([H])([H])[C@@]3([H])N(S(=O)(=O)c4c([H])c([H])c(OC([H])([H])[H])c([H])c4[H])C([H])([H])[C@@]23[H])c1[H]


 27 30  0  0  0  0  0  0  0  0999 V2000
    8.8904   44.4014  129.2463 N   0  0  0  0  0  0  0  0  0  0  0  0
    7.9879   43.5136  129.8463 C   0  0  0  0  0  0  0  0  0  0  0  0
    7.9845   44.4020  131.0681 C   0  0  0  0  0  0  0  0  0  0  0  0
    8.6681   43.9354  132.2563 C   0  0  0  0  0  0  0  0  0  0  0  0
    9.9769   43.8607  131.3853 C   0  0  0  0  0  0  0  0  0  0  0  0
    9.3032   44.8781  130.4955 C   0  0  0  0  0  0  0  0  0  0  0  0
    8.9652   44.9380  133.3325 C   0  0  0  0  0  0  0  0  0  0  0  0
    8.5079   44.8289  134.6215 C   0  0  0  0  0  0  0  0  0  0  0  0
    8.7171   45.8705  135.5458 C   0  0  0  0  0  0  0  0  0  0  0  0
    9.3805   47.0193  135.1810 C   0  0  0  0  0  0  0  0  0  0  0  0
    9.8280   47.0951  133.8837 C   0  0  0  0  0  0  0  0  0  0  0  0
    9.6370   46.0727  132.9393 C   0  0  0  0  0  0  0  0  0  0  0  0
   10.5347   48.3208  133.4454 C   0  0  0  0  0  0  0  0  0  0  0  0
    9.6550   49.3626  133.3284 F   0  0  0  0  0  0  0  0  0  0  0  0
   11.1326   48.0667  132.2557 F   0  0  0  0  0  0  0  0  0  0  0  0
   11.5401   48.6603  134.3759 F   0  0  0  0  0  0  0  0  0  0  0  0
    9.9751   44.0689  128.0622 S   0  0  0  0  0  0  0  0  0  0  0  0
    9.7891   42.7624  127.2987 O   0  0  0  0  0  0  0  0  0  0  0  0
   11.3260   43.8385  128.7445 O   0  0  0  0  0  0  0  0  0  0  0  0
   10.5551   47.4581  125.0976 C   0  0  0  0  0  0  0  0  0  0  0  0
   10.8033   47.6027  126.4317 C   0  0  0  0  0  0  0  0  0  0  0  0
   10.6309   46.5315  127.2940 C   0  0  0  0  0  0  0  0  0  0  0  0
   10.2163   45.2992  126.8657 C   0  0  0  0  0  0  0  0  0  0  0  0
    9.9809   45.1726  125.5236 C   0  0  0  0  0  0  0  0  0  0  0  0
   10.1376   46.2254  124.6491 C   0  0  0  0  0  0  0  0  0  0  0  0
   11.9171   48.5470  123.4454 C   0  0  0  0  0  0  0  0  0  0  0  0
   10.6937   48.5125  124.1709 O   0  0  0  0  0  0  0  0  0  0  0  0
 26 27  1  0  0  0
 27 20  1  0  0  0
 20 21  2  0  0  0
 21 22  1  0  0  0
 22 23  2  0  0  0
 23 24  1  0  0  0
 24 25  2  0  0  0
 23 17  1  0  0  0
 17 18  2  0  0  0
 17 19  2  0  0  0
 17  1  1  0  0  0
  1  2  1  0  0  0
  2  3  1  0  0  0
  3  4  1  0  0  0
  4  5  1  0  0  0
  5  6  1  0  0  0
  4  7  1  0  0  0
  7  8  2  0  0  0
  8  9  1  0  0  0
  9 10  2  0  0  0
 10 11  1  0  0  0
 11 12  2  0  0  0
 11 13  1  0  0  0
 13 14  1  0  0  0
 13 15  1  0  0  0
 13 16  1  0  0  0
 25 20  1  0  0  0
  6  1  1  0  0  0
 12  7  1  0  0  0
  6  3  1  0  0  0
M  END
> <minimizedAffinity>
23.72266

> <CNNscore>
0.4134016335

> <CNNaffinity>
6.8220086098

> <CNN_VS>
2.8202295303

> <CNNaffinity_variance>
1.2472836971

$$$$
[H]c1c([H])c(C(F)(F)F)c([H])c([C@]2([H])C([H])([H])[C@@]3([H])N(S(=O)(=O)c4c([H])c([H])c(OC([H])([H])[H])c([H])c4[H])C([H])([H])[C@@]23[H])c1[H]


 27 30  0  0  0  0  0  0  0  0999 V2000
    9.4873   43.7739  130.5679 N   0  0  0  0  0  0  0  0  0  0  0  0
    8.2843   43.4431  129.9307 C   0  0  0  0  0  0  0  0  0  0  0  0
    8.1429   44.8921  129.5278 C   0  0  0  0  0  0  0  0  0  0  0  0
    7.1424   45.6953  130.1991 C   0  0  0  0  0  0  0  0  0  0  0  0
    7.8819   45.3589  131.5470 C   0  0  0  0  0  0  0  0  0  0  0  0
    9.0962   45.1125  130.6837 C   0  0  0  0  0  0  0  0  0  0  0  0
    7.2323   47.1866  130.0594 C   0  0  0  0  0  0  0  0  0  0  0  0
    6.4869   47.9137  129.1658 C   0  0  0  0  0  0  0  0  0  0  0  0
    6.7150   49.2933  128.9989 C   0  0  0  0  0  0  0  0  0  0  0  0
    7.6877   49.9436  129.7228 C   0  0  0  0  0  0  0  0  0  0  0  0
    8.4140   49.1869  130.6109 C   0  0  0  0  0  0  0  0  0  0  0  0
    8.2088   47.8102  130.8018 C   0  0  0  0  0  0  0  0  0  0  0  0
    9.4807   49.8449  131.4001 C   0  0  0  0  0  0  0  0  0  0  0  0
   10.6508   49.8723  130.6908 F   0  0  0  0  0  0  0  0  0  0  0  0
    9.6415   49.1577  132.5574 F   0  0  0  0  0  0  0  0  0  0  0  0
    9.1002   51.1647  131.7249 F   0  0  0  0  0  0  0  0  0  0  0  0
   10.2018   42.9857  131.8158 S   0  0  0  0  0  0  0  0  0  0  0  0
   10.9285   41.6857  131.4897 O   0  0  0  0  0  0  0  0  0  0  0  0
    9.0808   42.4912  132.7336 O   0  0  0  0  0  0  0  0  0  0  0  0
   13.1556   45.4904  134.1851 C   0  0  0  0  0  0  0  0  0  0  0  0
   12.7630   45.8231  132.9212 C   0  0  0  0  0  0  0  0  0  0  0  0
   11.8423   45.0371  132.2466 C   0  0  0  0  0  0  0  0  0  0  0  0
   11.2868   43.9140  132.7980 C   0  0  0  0  0  0  0  0  0  0  0  0
   11.6872   43.6023  134.0689 C   0  0  0  0  0  0  0  0  0  0  0  0
   12.6069   44.3641  134.7555 C   0  0  0  0  0  0  0  0  0  0  0  0
   13.6835   47.5315  135.3365 C   0  0  0  0  0  0  0  0  0  0  0  0
   14.1012   46.2374  134.9183 O   0  0  0  0  0  0  0  0  0  0  0  0
 26 27  1  0  0  0
 27 20  1  0  0  0
 20 21  2  0  0  0
 21 22  1  0  0  0
 22 23  2  0  0  0
 23 24  1  0  0  0
 24 25  2  0  0  0
 23 17  1  0  0  0
 17 18  2  0  0  0
 17 19  2  0  0  0
 17  1  1  0  0  0
  1  2  1  0  0  0
  2  3  1  0  0  0
  3  4  1  0  0  0
  4  5  1  0  0  0
  5  6  1  0  0  0
  4  7  1  0  0  0
  7  8  2  0  0  0
  8  9  1  0  0  0
  9 10  2  0  0  0
 10 11  1  0  0  0
 11 12  2  0  0  0
 11 13  1  0  0  0
 13 14  1  0  0  0
 13 15  1  0  0  0
 13 16  1  0  0  0
 25 20  1  0  0  0
  6  1  1  0  0  0
 12  7  1  0  0  0
  6  3  1  0  0  0
M  END
> <minimizedAffinity>
-2.18207

> <CNNscore>
0.3947667778

> <CNNaffinity>
7.5162878036

> <CNN_VS>
2.9671807289

> <CNNaffinity_variance>
0.8098085523

$$$$
[H]c1c([H])c(C(F)(F)F)c([H])c([C@]2([H])C([H])([H])[C@@]3([H])N(S(=O)(=O)c4c([H])c([H])c(OC([H])([H])[H])c([H])c4[H])C([H])([H])[C@@]23[H])c1[H]


 27 30  0  0  0  0  0  0  0  0999 V2000
    9.2479   44.6258  129.2158 N   0  0  0  0  0  0  0  0  0  0  0  0
    8.1259   43.9748  129.7451 C   0  0  0  0  0  0  0  0  0  0  0  0
    8.0447   45.0529  130.8000 C   0  0  0  0  0  0  0  0  0  0  0  0
    8.4255   44.7150  132.1556 C   0  0  0  0  0  0  0  0  0  0  0  0
    9.8399   44.3278  131.5842 C   0  0  0  0  0  0  0  0  0  0  0  0
    9.5020   45.2540  130.4402 C   0  0  0  0  0  0  0  0  0  0  0  0
    8.6799   45.8419  133.1131 C   0  0  0  0  0  0  0  0  0  0  0  0
    8.3834   45.7851  134.4516 C   0  0  0  0  0  0  0  0  0  0  0  0
    8.5296   46.9244  135.2662 C   0  0  0  0  0  0  0  0  0  0  0  0
    8.9695   48.1183  134.7427 C   0  0  0  0  0  0  0  0  0  0  0  0
    9.2605   48.1403  133.3997 C   0  0  0  0  0  0  0  0  0  0  0  0
    9.1273   47.0206  132.5616 C   0  0  0  0  0  0  0  0  0  0  0  0
    9.7236   49.4095  132.7927 C   0  0  0  0  0  0  0  0  0  0  0  0
    8.6543   50.1822  132.4288 F   0  0  0  0  0  0  0  0  0  0  0  0
   10.4864   49.1128  131.7121 F   0  0  0  0  0  0  0  0  0  0  0  0
   10.5246   50.1225  133.7104 F   0  0  0  0  0  0  0  0  0  0  0  0
   10.4598   43.9612  128.3334 S   0  0  0  0  0  0  0  0  0  0  0  0
   11.7477   43.6169  129.0732 O   0  0  0  0  0  0  0  0  0  0  0  0
   10.9429   45.0357  127.3558 O   0  0  0  0  0  0  0  0  0  0  0  0
    9.1788   40.4006  125.8249 C   0  0  0  0  0  0  0  0  0  0  0  0
    8.6889   41.6569  125.6156 C   0  0  0  0  0  0  0  0  0  0  0  0
    9.1270   42.7158  126.3950 C   0  0  0  0  0  0  0  0  0  0  0  0
   10.0547   42.5648  127.3902 C   0  0  0  0  0  0  0  0  0  0  0  0
   10.5397   41.2991  127.5786 C   0  0  0  0  0  0  0  0  0  0  0  0
   10.1129   40.2302  126.8216 C   0  0  0  0  0  0  0  0  0  0  0  0
    9.6803   38.8029  124.1026 C   0  0  0  0  0  0  0  0  0  0  0  0
    8.7615   39.2783  125.0792 O   0  0  0  0  0  0  0  0  0  0  0  0
 26 27  1  0  0  0
 27 20  1  0  0  0
 20 21  2  0  0  0
 21 22  1  0  0  0
 22 23  2  0  0  0
 23 24  1  0  0  0
 24 25  2  0  0  0
 23 17  1  0  0  0
 17 18  2  0  0  0
 17 19  2  0  0  0
 17  1  1  0  0  0
  1  2  1  0  0  0
  2  3  1  0  0  0
  3  4  1  0  0  0
  4  5  1  0  0  0
  5  6  1  0  0  0
  4  7  1  0  0  0
  7  8  2  0  0  0
  8  9  1  0  0  0
  9 10  2  0  0  0
 10 11  1  0  0  0
 11 12  2  0  0  0
 11 13  1  0  0  0
 13 14  1  0  0  0
 13 15  1  0  0  0
 13 16  1  0  0  0
 25 20  1  0  0  0
  6  1  1  0  0  0
 12  7  1  0  0  0
  6  3  1  0  0  0
M  END
> <minimizedAffinity>
20.42486

> <CNNscore>
0.3736548126

> <CNNaffinity>
6.7442579269

> <CNN_VS>
2.5200245380

> <CNNaffinity_variance>
0.9724973440

$$$$
[H]c1c([H])c(C(F)(F)F)c([H])c([C@]2([H])C([H])([H])[C@@]3([H])N(S(=O)(=O)c4c([H])c([H])c(OC([H])([H])[H])c([H])c4[H])C([H])([H])[C@@]23[H])c1[H]


 27 30  0  0  0  0  0  0  0  0999 V2000
   10.9532   45.6302  128.3939 N   0  0  0  0  0  0  0  0  0  0  0  0
   10.0328   45.7808  127.3486 C   0  0  0  0  0  0  0  0  0  0  0  0
    9.6108   47.0961  127.9597 C   0  0  0  0  0  0  0  0  0  0  0  0
    8.3219   47.1643  128.6163 C   0  0  0  0  0  0  0  0  0  0  0  0
    8.8295   46.0206  129.5710 C   0  0  0  0  0  0  0  0  0  0  0  0
   10.2171   46.4956  129.2109 C   0  0  0  0  0  0  0  0  0  0  0  0
    8.0534   48.3379  129.5119 C   0  0  0  0  0  0  0  0  0  0  0  0
    7.2109   49.3696  129.1826 C   0  0  0  0  0  0  0  0  0  0  0  0
    7.1051   50.5008  130.0146 C   0  0  0  0  0  0  0  0  0  0  0  0
    7.8418   50.6006  131.1723 C   0  0  0  0  0  0  0  0  0  0  0  0
    8.6735   49.5489  131.4742 C   0  0  0  0  0  0  0  0  0  0  0  0
    8.7992   48.4064  130.6663 C   0  0  0  0  0  0  0  0  0  0  0  0
    9.4952   49.6221  132.7043 C   0  0  0  0  0  0  0  0  0  0  0  0
    9.6866   50.9261  133.0731 F   0  0  0  0  0  0  0  0  0  0  0  0
   10.6834   49.0169  132.4608 F   0  0  0  0  0  0  0  0  0  0  0  0
    8.8585   48.9279  133.7554 F   0  0  0  0  0  0  0  0  0  0  0  0
   11.5735   44.2298  128.9797 S   0  0  0  0  0  0  0  0  0  0  0  0
   13.0877   44.1565  129.1419 O   0  0  0  0  0  0  0  0  0  0  0  0
   11.3236   43.1522  127.9213 O   0  0  0  0  0  0  0  0  0  0  0  0
   10.0285   42.6329  132.9388 C   0  0  0  0  0  0  0  0  0  0  0  0
   11.2863   43.1429  132.7966 C   0  0  0  0  0  0  0  0  0  0  0  0
   11.7045   43.6377  131.5714 C   0  0  0  0  0  0  0  0  0  0  0  0
   10.8983   43.6457  130.4651 C   0  0  0  0  0  0  0  0  0  0  0  0
    9.6384   43.1378  130.6307 C   0  0  0  0  0  0  0  0  0  0  0  0
    9.2039   42.6332  131.8366 C   0  0  0  0  0  0  0  0  0  0  0  0
    8.2026   41.6367  134.1404 C   0  0  0  0  0  0  0  0  0  0  0  0
    9.5483   42.0981  134.1526 O   0  0  0  0  0  0  0  0  0  0  0  0
 26 27  1  0  0  0
 27 20  1  0  0  0
 20 21  2  0  0  0
 21 22  1  0  0  0
 22 23  2  0  0  0
 23 24  1  0  0  0
 24 25  2  0  0  0
 23 17  1  0  0  0
 17 18  2  0  0  0
 17 19  2  0  0  0
 17  1  1  0  0  0
  1  2  1  0  0  0
  2  3  1  0  0  0
  3  4  1  0  0  0
  4  5  1  0  0  0
  5  6  1  0  0  0
  4  7  1  0  0  0
  7  8  2  0  0  0
  8  9  1  0  0  0
  9 10  2  0  0  0
 10 11  1  0  0  0
 11 12  2  0  0  0
 11 13  1  0  0  0
 13 14  1  0  0  0
 13 15  1  0  0  0
 13 16  1  0  0  0
 25 20  1  0  0  0
  6  1  1  0  0  0
 12  7  1  0  0  0
  6  3  1  0  0  0
M  END
> <minimizedAffinity>
-0.68509

> <CNNscore>
0.3596450984

> <CNNaffinity>
7.1341600418

> <CNN_VS>
2.5657656193

> <CNNaffinity_variance>
1.2397897243

$$$$
[H]c1c([H])c(S(=O)(=O)N2C([H])([H])[C@@]3([H])[C@]([H])(c4c([H])n([H])c5c([H])c([H])c(C(F)(F)F)c([H])c45)C([H])([H])[C@@]23[H])c([H])c([H])c1OC([H])([H])[H]


 31 35  0  0  0  0  0  0  0  0999 V2000
    7.5368   46.2156  128.6183 N   0  0  0  0  0  0  0  0  0  0  0  0
    6.7704   45.4903  129.5421 C   0  0  0  0  0  0  0  0  0  0  0  0
    7.9445   45.0724  130.3839 C   0  0  0  0  0  0  0  0  0  0  0  0
    8.7101   43.9304  130.0061 C   0  0  0  0  0  0  0  0  0  0  0  0
    9.3733   44.6397  128.9074 C   0  0  0  0  0  0  0  0  0  0  0  0
    8.7216   45.9032  129.4055 C   0  0  0  0  0  0  0  0  0  0  0  0
    9.4989   43.1167  130.8817 C   0  0  0  0  0  0  0  0  0  0  0  0
   10.8814   42.9773  130.8280 C   0  0  0  0  0  0  0  0  0  0  0  0
   11.3164   42.2980  131.9302 N   0  0  0  0  0  0  0  0  0  0  0  0
   10.3033   41.9762  132.7103 C   0  0  0  0  0  0  0  0  0  0  0  0
   10.1802   41.2597  133.8988 C   0  0  0  0  0  0  0  0  0  0  0  0
    8.9305   41.0209  134.4755 C   0  0  0  0  0  0  0  0  0  0  0  0
    7.8229   41.5170  133.8253 C   0  0  0  0  0  0  0  0  0  0  0  0
    7.9371   42.2390  132.6262 C   0  0  0  0  0  0  0  0  0  0  0  0
    9.1678   42.4761  132.0713 C   0  0  0  0  0  0  0  0  0  0  0  0
   12.3402   42.0711  132.1321 H   0  0  0  0  0  0  0  0  0  0  0  0
    6.4297   41.2864  134.2797 C   0  0  0  0  0  0  0  0  0  0  0  0
    6.5450   40.3685  135.3578 F   0  0  0  0  0  0  0  0  0  0  0  0
    5.8924   42.4263  134.8246 F   0  0  0  0  0  0  0  0  0  0  0  0
    5.6161   40.7386  133.3074 F   0  0  0  0  0  0  0  0  0  0  0  0
    7.4072   47.8419  128.2656 S   0  0  0  0  0  0  0  0  0  0  0  0
    8.3068   48.1375  127.0443 O   0  0  0  0  0  0  0  0  0  0  0  0
    5.9586   48.1106  127.7587 O   0  0  0  0  0  0  0  0  0  0  0  0
    8.8435   50.8190  131.3470 C   0  0  0  0  0  0  0  0  0  0  0  0
    7.7695   51.1602  130.5605 C   0  0  0  0  0  0  0  0  0  0  0  0
    7.2922   50.2390  129.6491 C   0  0  0  0  0  0  0  0  0  0  0  0
    7.8359   48.9857  129.4845 C   0  0  0  0  0  0  0  0  0  0  0  0
    8.9363   48.6523  130.3014 C   0  0  0  0  0  0  0  0  0  0  0  0
    9.4022   49.5678  131.1946 C   0  0  0  0  0  0  0  0  0  0  0  0
   10.1147   51.4472  133.3633 C   0  0  0  0  0  0  0  0  0  0  0  0
    9.3047   51.7684  132.2587 O   0  0  0  0  0  0  0  0  0  0  0  0
 30 31  1  0  0  0
 31 24  1  0  0  0
 24 25  2  0  0  0
 25 26  1  0  0  0
 26 27  2  0  0  0
 27 28  1  0  0  0
 28 29  2  0  0  0
 27 21  1  0  0  0
 21 22  2  0  0  0
 21 23  2  0  0  0
 21  1  1  0  0  0
  1  2  1  0  0  0
  2  3  1  0  0  0
  3  4  1  0  0  0
  4  5  1  0  0  0
  5  6  1  0  0  0
  4  7  1  0  0  0
  7  8  2  0  0  0
  8  9  1  0  0  0
  9 10  1  0  0  0
 10 11  2  0  0  0
 11 12  1  0  0  0
 12 13  2  0  0  0
 13 14  1  0  0  0
 14 15  2  0  0  0
 13 17  1  0  0  0
 17 18  1  0  0  0
 17 19  1  0  0  0
 17 20  1  0  0  0
 29 24  1  0  0  0
  6  1  1  0  0  0
 15  7  1  0  0  0
  6  3  1  0  0  0
 15 10  1  0  0  0
  9 16  1  0  0  0
M  END
> <minimizedAffinity>
19.22472

> <CNNscore>
0.5122959614

> <CNNaffinity>
7.6627874374

> <CNN_VS>
3.9256150723

> <CNNaffinity_variance>
4.3665990829

$$$$
[H]c1c([H])c(S(=O)(=O)N2C([H])([H])[C@@]3([H])[C@]([H])(c4c([H])n([H])c5c([H])c([H])c(C(F)(F)F)c([H])c45)C([H])([H])[C@@]23[H])c([H])c([H])c1OC([H])([H])[H]


 31 35  0  0  0  0  0  0  0  0999 V2000
    8.3006   43.6901  129.2880 N   0  0  0  0  0  0  0  0  0  0  0  0
    8.8349   44.3494  128.1715 C   0  0  0  0  0  0  0  0  0  0  0  0
    8.9033   45.6962  128.8374 C   0  0  0  0  0  0  0  0  0  0  0  0
    7.7438   46.5254  128.8685 C   0  0  0  0  0  0  0  0  0  0  0  0
    7.0959   45.7166  129.9059 C   0  0  0  0  0  0  0  0  0  0  0  0
    8.3828   44.9429  130.0262 C   0  0  0  0  0  0  0  0  0  0  0  0
    7.7305   47.9521  128.9930 C   0  0  0  0  0  0  0  0  0  0  0  0
    7.0473   48.8296  128.1584 C   0  0  0  0  0  0  0  0  0  0  0  0
    7.0851   50.0881  128.6875 N   0  0  0  0  0  0  0  0  0  0  0  0
    7.7558   50.0974  129.8227 C   0  0  0  0  0  0  0  0  0  0  0  0
    8.1286   51.0922  130.7241 C   0  0  0  0  0  0  0  0  0  0  0  0
    8.9164   50.8012  131.8403 C   0  0  0  0  0  0  0  0  0  0  0  0
    9.3144   49.4951  132.0168 C   0  0  0  0  0  0  0  0  0  0  0  0
    8.9448   48.4859  131.1128 C   0  0  0  0  0  0  0  0  0  0  0  0
    8.1647   48.7784  130.0244 C   0  0  0  0  0  0  0  0  0  0  0  0
    6.6231   50.9421  128.2429 H   0  0  0  0  0  0  0  0  0  0  0  0
   10.2060   49.0476  133.1148 C   0  0  0  0  0  0  0  0  0  0  0  0
    9.3713   48.2848  133.9746 F   0  0  0  0  0  0  0  0  0  0  0  0
   11.1563   48.1705  132.6534 F   0  0  0  0  0  0  0  0  0  0  0  0
   10.7611   50.0882  133.8333 F   0  0  0  0  0  0  0  0  0  0  0  0
    8.9786   42.4086  130.1150 S   0  0  0  0  0  0  0  0  0  0  0  0
    7.8287   41.5477  130.6850 O   0  0  0  0  0  0  0  0  0  0  0  0
    9.6821   41.4839  129.0770 O   0  0  0  0  0  0  0  0  0  0  0  0
   11.8467   43.5789  133.4052 C   0  0  0  0  0  0  0  0  0  0  0  0
   10.5596   43.2429  133.7501 C   0  0  0  0  0  0  0  0  0  0  0  0
    9.6888   42.8372  132.7580 C   0  0  0  0  0  0  0  0  0  0  0  0
   10.0420   42.7478  131.4311 C   0  0  0  0  0  0  0  0  0  0  0  0
   11.3673   43.0949  131.0960 C   0  0  0  0  0  0  0  0  0  0  0  0
   12.2178   43.4968  132.0798 C   0  0  0  0  0  0  0  0  0  0  0  0
   13.1682   45.3062  134.5654 C   0  0  0  0  0  0  0  0  0  0  0  0
   12.7048   43.9851  134.4270 O   0  0  0  0  0  0  0  0  0  0  0  0
 30 31  1  0  0  0
 31 24  1  0  0  0
 24 25  2  0  0  0
 25 26  1  0  0  0
 26 27  2  0  0  0
 27 28  1  0  0  0
 28 29  2  0  0  0
 27 21  1  0  0  0
 21 22  2  0  0  0
 21 23  2  0  0  0
 21  1  1  0  0  0
  1  2  1  0  0  0
  2  3  1  0  0  0
  3  4  1  0  0  0
  4  5  1  0  0  0
  5  6  1  0  0  0
  4  7  1  0  0  0
  7  8  2  0  0  0
  8  9  1  0  0  0
  9 10  1  0  0  0
 10 11  2  0  0  0
 11 12  1  0  0  0
 12 13  2  0  0  0
 13 14  1  0  0  0
 14 15  2  0  0  0
 13 17  1  0  0  0
 17 18  1  0  0  0
 17 19  1  0  0  0
 17 20  1  0  0  0
 29 24  1  0  0  0
  6  1  1  0  0  0
 15  7  1  0  0  0
  6  3  1  0  0  0
 15 10  1  0  0  0
  9 16  1  0  0  0
M  END
> <minimizedAffinity>
-2.43390

> <CNNscore>
0.4899804890

> <CNNaffinity>
7.7802710533

> <CNN_VS>
3.8121809959

> <CNNaffinity_variance>
0.8874834180

$$$$
[H]c1c([H])c(S(=O)(=O)N2C([H])([H])[C@@]3([H])[C@]([H])(c4c([H])n([H])c5c([H])c([H])c(C(F)(F)F)c([H])c45)C([H])([H])[C@@]23[H])c([H])c([H])c1OC([H])([H])[H]


 31 35  0  0  0  0  0  0  0  0999 V2000
    9.1373   47.0026  131.6956 N   0  0  0  0  0  0  0  0  0  0  0  0
    8.1906   47.2606  130.6936 C   0  0  0  0  0  0  0  0  0  0  0  0
    8.5829   46.0861  129.8400 C   0  0  0  0  0  0  0  0  0  0  0  0
    9.6821   46.2066  128.9398 C   0  0  0  0  0  0  0  0  0  0  0  0
   10.6746   46.1324  130.0166 C   0  0  0  0  0  0  0  0  0  0  0  0
    9.5440   45.8135  130.9595 C   0  0  0  0  0  0  0  0  0  0  0  0
    9.8884   45.4325  127.7526 C   0  0  0  0  0  0  0  0  0  0  0  0
    9.7330   44.0546  127.6495 C   0  0  0  0  0  0  0  0  0  0  0  0
    9.8068   43.6823  126.3375 N   0  0  0  0  0  0  0  0  0  0  0  0
   10.0050   44.7321  125.5646 C   0  0  0  0  0  0  0  0  0  0  0  0
   10.1993   44.9098  124.1965 C   0  0  0  0  0  0  0  0  0  0  0  0
   10.4557   46.1733  123.6587 C   0  0  0  0  0  0  0  0  0  0  0  0
   10.5124   47.2377  124.5301 C   0  0  0  0  0  0  0  0  0  0  0  0
   10.3193   47.0680  125.9108 C   0  0  0  0  0  0  0  0  0  0  0  0
   10.0600   45.8260  126.4294 C   0  0  0  0  0  0  0  0  0  0  0  0
    9.7060   42.6774  125.9905 H   0  0  0  0  0  0  0  0  0  0  0  0
   10.8413   48.6238  124.1160 C   0  0  0  0  0  0  0  0  0  0  0  0
    9.6650   49.1032  123.4801 F   0  0  0  0  0  0  0  0  0  0  0  0
   11.0247   49.4356  125.2080 F   0  0  0  0  0  0  0  0  0  0  0  0
   11.8956   48.6983  123.2271 F   0  0  0  0  0  0  0  0  0  0  0  0
    8.8323   46.6908  133.3067 S   0  0  0  0  0  0  0  0  0  0  0  0
    8.9054   48.0307  134.0733 O   0  0  0  0  0  0  0  0  0  0  0  0
    7.3449   46.2458  133.4378 O   0  0  0  0  0  0  0  0  0  0  0  0
   11.7853   43.9998  135.4185 C   0  0  0  0  0  0  0  0  0  0  0  0
   10.6626   44.4006  136.1021 C   0  0  0  0  0  0  0  0  0  0  0  0
    9.7300   45.1833  135.4503 C   0  0  0  0  0  0  0  0  0  0  0  0
    9.8627   45.5864  134.1413 C   0  0  0  0  0  0  0  0  0  0  0  0
   11.0202   45.1642  133.4550 C   0  0  0  0  0  0  0  0  0  0  0  0
   11.9357   44.3957  134.1064 C   0  0  0  0  0  0  0  0  0  0  0  0
   14.0064   42.9499  135.6196 C   0  0  0  0  0  0  0  0  0  0  0  0
   12.7103   43.2101  136.1011 O   0  0  0  0  0  0  0  0  0  0  0  0
 30 31  1  0  0  0
 31 24  1  0  0  0
 24 25  2  0  0  0
 25 26  1  0  0  0
 26 27  2  0  0  0
 27 28  1  0  0  0
 28 29  2  0  0  0
 27 21  1  0  0  0
 21 22  2  0  0  0
 21 23  2  0  0  0
 21  1  1  0  0  0
  1  2  1  0  0  0
  2  3  1  0  0  0
  3  4  1  0  0  0
  4  5  1  0  0  0
  5  6  1  0  0  0
  4  7  1  0  0  0
  7  8  2  0  0  0
  8  9  1  0  0  0
  9 10  1  0  0  0
 10 11  2  0  0  0
 11 12  1  0  0  0
 12 13  2  0  0  0
 13 14  1  0  0  0
 14 15  2  0  0  0
 13 17  1  0  0  0
 17 18  1  0  0  0
 17 19  1  0  0  0
 17 20  1  0  0  0
 29 24  1  0  0  0
  6  1  1  0  0  0
 15  7  1  0  0  0
  6  3  1  0  0  0
 15 10  1  0  0  0
  9 16  1  0  0  0
M  END
> <minimizedAffinity>
42.38079

> <CNNscore>
0.4796025455

> <CNNaffinity>
7.0178079605

> <CNN_VS>
3.3657586575

> <CNNaffinity_variance>
1.5155055523

$$$$
[H]c1c([H])c(S(=O)(=O)N2C([H])([H])[C@@]3([H])[C@]([H])(c4c([H])n([H])c5c([H])c([H])c(C(F)(F)F)c([H])c45)C([H])([H])[C@@]23[H])c([H])c([H])c1OC([H])([H])[H]


 31 35  0  0  0  0  0  0  0  0999 V2000
    8.6856   43.3139  131.1135 N   0  0  0  0  0  0  0  0  0  0  0  0
    8.7074   43.4964  129.7231 C   0  0  0  0  0  0  0  0  0  0  0  0
    8.5869   44.9942  129.7878 C   0  0  0  0  0  0  0  0  0  0  0  0
    7.2990   45.5911  129.9232 C   0  0  0  0  0  0  0  0  0  0  0  0
    7.1910   45.2258  131.3391 C   0  0  0  0  0  0  0  0  0  0  0  0
    8.6221   44.7606  131.2695 C   0  0  0  0  0  0  0  0  0  0  0  0
    6.9377   46.9170  129.5202 C   0  0  0  0  0  0  0  0  0  0  0  0
    5.9169   47.2420  128.6336 C   0  0  0  0  0  0  0  0  0  0  0  0
    5.7174   48.5931  128.6401 N   0  0  0  0  0  0  0  0  0  0  0  0
    6.5480   49.1837  129.4768 C   0  0  0  0  0  0  0  0  0  0  0  0
    6.7993   50.5092  129.8245 C   0  0  0  0  0  0  0  0  0  0  0  0
    7.8158   50.8431  130.7226 C   0  0  0  0  0  0  0  0  0  0  0  0
    8.5633   49.8145  131.2507 C   0  0  0  0  0  0  0  0  0  0  0  0
    8.3183   48.4756  130.9050 C   0  0  0  0  0  0  0  0  0  0  0  0
    7.3135   48.1559  130.0292 C   0  0  0  0  0  0  0  0  0  0  0  0
    4.9802   49.0955  128.0532 H   0  0  0  0  0  0  0  0  0  0  0  0
    9.7159   50.0184  132.1621 C   0  0  0  0  0  0  0  0  0  0  0  0
    9.5725   49.0184  133.1607 F   0  0  0  0  0  0  0  0  0  0  0  0
   10.9018   49.7377  131.5298 F   0  0  0  0  0  0  0  0  0  0  0  0
    9.7278   51.2599  132.7670 F   0  0  0  0  0  0  0  0  0  0  0  0
    9.8762   42.6157  132.0518 S   0  0  0  0  0  0  0  0  0  0  0  0
    9.1914   41.9163  133.2477 O   0  0  0  0  0  0  0  0  0  0  0  0
   10.5153   41.4542  131.2332 O   0  0  0  0  0  0  0  0  0  0  0  0
   12.9837   45.5179  133.5824 C   0  0  0  0  0  0  0  0  0  0  0  0
   12.2167   44.8392  134.4987 C   0  0  0  0  0  0  0  0  0  0  0  0
   11.2978   43.9145  134.0433 C   0  0  0  0  0  0  0  0  0  0  0  0
   11.1068   43.6305  132.7105 C   0  0  0  0  0  0  0  0  0  0  0  0
   11.9038   44.3353  131.7846 C   0  0  0  0  0  0  0  0  0  0  0  0
   12.8047   45.2474  132.2423 C   0  0  0  0  0  0  0  0  0  0  0  0
   13.6659   47.2453  135.2031 C   0  0  0  0  0  0  0  0  0  0  0  0
   13.9036   46.4459  134.0700 O   0  0  0  0  0  0  0  0  0  0  0  0
 30 31  1  0  0  0
 31 24  1  0  0  0
 24 25  2  0  0  0
 25 26  1  0  0  0
 26 27  2  0  0  0
 27 28  1  0  0  0
 28 29  2  0  0  0
 27 21  1  0  0  0
 21 22  2  0  0  0
 21 23  2  0  0  0
 21  1  1  0  0  0
  1  2  1  0  0  0
  2  3  1  0  0  0
  3  4  1  0  0  0
  4  5  1  0  0  0
  5  6  1  0  0  0
  4  7  1  0  0  0
  7  8  2  0  0  0
  8  9  1  0  0  0
  9 10  1  0  0  0
 10 11  2  0  0  0
 11 12  1  0  0  0
 12 13  2  0  0  0
 13 14  1  0  0  0
 14 15  2  0  0  0
 13 17  1  0  0  0
 17 18  1  0  0  0
 17 19  1  0  0  0
 17 20  1  0  0  0
 29 24  1  0  0  0
  6  1  1  0  0  0
 15  7  1  0  0  0
  6  3  1  0  0  0
 15 10  1  0  0  0
  9 16  1  0  0  0
M  END
> <minimizedAffinity>
-1.37940

> <CNNscore>
0.4782921672

> <CNNaffinity>
8.0721635818

> <CNN_VS>
3.8608527184

> <CNNaffinity_variance>
1.7208783627

$$$$
[H]c1c([H])c(S(=O)(=O)N2C([H])([H])[C@@]3([H])[C@]([H])(c4c([H])n([H])c5c([H])c([H])c(C(F)(F)F)c([H])c45)C([H])([H])[C@@]23[H])c([H])c([H])c1OC([H])([H])[H]


 31 35  0  0  0  0  0  0  0  0999 V2000
    8.5243   43.5644  131.7887 N   0  0  0  0  0  0  0  0  0  0  0  0
    7.9858   43.3676  130.5088 C   0  0  0  0  0  0  0  0  0  0  0  0
    7.9772   44.8273  130.1466 C   0  0  0  0  0  0  0  0  0  0  0  0
    6.8885   45.6490  130.5624 C   0  0  0  0  0  0  0  0  0  0  0  0
    7.3499   45.6936  131.9536 C   0  0  0  0  0  0  0  0  0  0  0  0
    8.6026   44.9899  131.5009 C   0  0  0  0  0  0  0  0  0  0  0  0
    6.4610   46.8633  129.9349 C   0  0  0  0  0  0  0  0  0  0  0  0
    5.3441   47.0007  129.1182 C   0  0  0  0  0  0  0  0  0  0  0  0
    5.1215   48.3244  128.8656 N   0  0  0  0  0  0  0  0  0  0  0  0
    6.0269   49.0728  129.4646 C   0  0  0  0  0  0  0  0  0  0  0  0
    6.2899   50.4405  129.4994 C   0  0  0  0  0  0  0  0  0  0  0  0
    7.3915   50.9498  130.1909 C   0  0  0  0  0  0  0  0  0  0  0  0
    8.2110   50.0506  130.8356 C   0  0  0  0  0  0  0  0  0  0  0  0
    7.9547   48.6701  130.8049 C   0  0  0  0  0  0  0  0  0  0  0  0
    6.8668   48.1793  130.1308 C   0  0  0  0  0  0  0  0  0  0  0  0
    4.3156   48.6966  128.2720 H   0  0  0  0  0  0  0  0  0  0  0  0
    9.4518   50.4349  131.5522 C   0  0  0  0  0  0  0  0  0  0  0  0
    9.5496   49.5157  132.6308 F   0  0  0  0  0  0  0  0  0  0  0  0
   10.5613   50.2085  130.7757 F   0  0  0  0  0  0  0  0  0  0  0  0
    9.4214   51.7199  132.0573 F   0  0  0  0  0  0  0  0  0  0  0  0
    9.9578   42.9460  132.3791 S   0  0  0  0  0  0  0  0  0  0  0  0
   10.1434   43.4681  133.8217 O   0  0  0  0  0  0  0  0  0  0  0  0
    9.7879   41.4056  132.5394 O   0  0  0  0  0  0  0  0  0  0  0  0
   13.6357   44.1519  130.0466 C   0  0  0  0  0  0  0  0  0  0  0  0
   13.7768   43.8567  131.3813 C   0  0  0  0  0  0  0  0  0  0  0  0
   12.6683   43.4405  132.0920 C   0  0  0  0  0  0  0  0  0  0  0  0
   11.4189   43.3015  131.5324 C   0  0  0  0  0  0  0  0  0  0  0  0
   11.2933   43.6071  130.1613 C   0  0  0  0  0  0  0  0  0  0  0  0
   12.3905   44.0198  129.4693 C   0  0  0  0  0  0  0  0  0  0  0  0
   15.5041   43.7293  128.4952 C   0  0  0  0  0  0  0  0  0  0  0  0
   14.7714   44.5698  129.3533 O   0  0  0  0  0  0  0  0  0  0  0  0
 30 31  1  0  0  0
 31 24  1  0  0  0
 24 25  2  0  0  0
 25 26  1  0  0  0
 26 27  2  0  0  0
 27 28  1  0  0  0
 28 29  2  0  0  0
 27 21  1  0  0  0
 21 22  2  0  0  0
 21 23  2  0  0  0
 21  1  1  0  0  0
  1  2  1  0  0  0
  2  3  1  0  0  0
  3  4  1  0  0  0
  4  5  1  0  0  0
  5  6  1  0  0  0
  4  7  1  0  0  0
  7  8  2  0  0  0
  8  9  1  0  0  0
  9 10  1  0  0  0
 10 11  2  0  0  0
 11 12  1  0  0  0
 12 13  2  0  0  0
 13 14  1  0  0  0
 14 15  2  0  0  0
 13 17  1  0  0  0
 17 18  1  0  0  0
 17 19  1  0  0  0
 17 20  1  0  0  0
 29 24  1  0  0  0
  6  1  1  0  0  0
 15  7  1  0  0  0
  6  3  1  0  0  0
 15 10  1  0  0  0
  9 16  1  0  0  0
M  END
> <minimizedAffinity>
0.92532

> <CNNscore>
0.4720939696

> <CNNaffinity>
7.6841368675

> <CNN_VS>
3.6276347637

> <CNNaffinity_variance>
1.1402060986

$$$$
[H]c1c([H])c(S(=O)(=O)N2C([H])([H])[C@@]3([H])[C@]([H])(c4c([H])n([H])c5c([H])c([H])c(C(F)(F)F)c([H])c45)C([H])([H])[C@@]23[H])c([H])c([H])c1OC([H])([H])[H]


 31 35  0  0  0  0  0  0  0  0999 V2000
    9.3335   43.7118  129.7508 N   0  0  0  0  0  0  0  0  0  0  0  0
    9.2625   44.2253  128.4476 C   0  0  0  0  0  0  0  0  0  0  0  0
    8.8451   45.6054  128.8753 C   0  0  0  0  0  0  0  0  0  0  0  0
    7.4698   45.8745  129.1387 C   0  0  0  0  0  0  0  0  0  0  0  0
    7.4944   45.1639  130.4211 C   0  0  0  0  0  0  0  0  0  0  0  0
    8.9859   45.0332  130.2552 C   0  0  0  0  0  0  0  0  0  0  0  0
    6.8327   47.1552  129.0684 C   0  0  0  0  0  0  0  0  0  0  0  0
    5.6322   47.4258  128.4211 C   0  0  0  0  0  0  0  0  0  0  0  0
    5.2206   48.6911  128.7295 N   0  0  0  0  0  0  0  0  0  0  0  0
    6.0792   49.2766  129.5411 C   0  0  0  0  0  0  0  0  0  0  0  0
    6.1699   50.5450  130.1104 C   0  0  0  0  0  0  0  0  0  0  0  0
    7.2615   50.9078  130.9028 C   0  0  0  0  0  0  0  0  0  0  0  0
    8.2474   49.9671  131.0994 C   0  0  0  0  0  0  0  0  0  0  0  0
    8.1654   48.6866  130.5284 C   0  0  0  0  0  0  0  0  0  0  0  0
    7.0868   48.3359  129.7587 C   0  0  0  0  0  0  0  0  0  0  0  0
    4.3195   49.1358  128.3680 H   0  0  0  0  0  0  0  0  0  0  0  0
    9.4947   50.2283  131.8589 C   0  0  0  0  0  0  0  0  0  0  0  0
   10.5428   50.0082  130.9258 F   0  0  0  0  0  0  0  0  0  0  0  0
    9.5902   51.5515  132.2124 F   0  0  0  0  0  0  0  0  0  0  0  0
    9.6694   49.3854  132.9390 F   0  0  0  0  0  0  0  0  0  0  0  0
   10.6771   43.0674  130.5026 S   0  0  0  0  0  0  0  0  0  0  0  0
   10.6009   41.5290  130.3775 O   0  0  0  0  0  0  0  0  0  0  0  0
   11.9322   43.4659  129.6700 O   0  0  0  0  0  0  0  0  0  0  0  0
   11.2161   43.6816  134.9471 C   0  0  0  0  0  0  0  0  0  0  0  0
   12.3000   43.8760  134.1250 C   0  0  0  0  0  0  0  0  0  0  0  0
   12.1343   43.7382  132.7609 C   0  0  0  0  0  0  0  0  0  0  0  0
   10.9325   43.4160  132.1733 C   0  0  0  0  0  0  0  0  0  0  0  0
    9.8309   43.2218  133.0323 C   0  0  0  0  0  0  0  0  0  0  0  0
   10.0041   43.3565  134.3758 C   0  0  0  0  0  0  0  0  0  0  0  0
   10.5546   44.5768  137.1465 C   0  0  0  0  0  0  0  0  0  0  0  0
   11.4119   43.8271  136.3203 O   0  0  0  0  0  0  0  0  0  0  0  0
 30 31  1  0  0  0
 31 24  1  0  0  0
 24 25  2  0  0  0
 25 26  1  0  0  0
 26 27  2  0  0  0
 27 28  1  0  0  0
 28 29  2  0  0  0
 27 21  1  0  0  0
 21 22  2  0  0  0
 21 23  2  0  0  0
 21  1  1  0  0  0
  1  2  1  0  0  0
  2  3  1  0  0  0
  3  4  1  0  0  0
  4  5  1  0  0  0
  5  6  1  0  0  0
  4  7  1  0  0  0
  7  8  2  0  0  0
  8  9  1  0  0  0
  9 10  1  0  0  0
 10 11  2  0  0  0
 11 12  1  0  0  0
 12 13  2  0  0  0
 13 14  1  0  0  0
 14 15  2  0  0  0
 13 17  1  0  0  0
 17 18  1  0  0  0
 17 19  1  0  0  0
 17 20  1  0  0  0
 29 24  1  0  0  0
  6  1  1  0  0  0
 15  7  1  0  0  0
  6  3  1  0  0  0
 15 10  1  0  0  0
  9 16  1  0  0  0
M  END
> <minimizedAffinity>
0.01027

> <CNNscore>
0.4627482891

> <CNNaffinity>
7.6717386246

> <CNN_VS>
3.5500838757

> <CNNaffinity_variance>
0.8481027484

$$$$
[H]c1c([H])c(S(=O)(=O)N2C([H])([H])[C@@]3([H])[C@]([H])(c4c([H])n([H])c5c([H])c([H])c(C(F)(F)F)c([H])c45)C([H])([H])[C@@]23[H])c([H])c([H])c1OC([H])([H])[H]


 31 35  0  0  0  0  0  0  0  0999 V2000
    9.3265   46.5988  131.8265 N   0  0  0  0  0  0  0  0  0  0  0  0
    8.4359   46.9389  130.7980 C   0  0  0  0  0  0  0  0  0  0  0  0
    8.7934   45.7675  129.9251 C   0  0  0  0  0  0  0  0  0  0  0  0
    9.9319   45.8486  129.0705 C   0  0  0  0  0  0  0  0  0  0  0  0
   10.8759   45.6872  130.1809 C   0  0  0  0  0  0  0  0  0  0  0  0
    9.6930   45.4087  131.0711 C   0  0  0  0  0  0  0  0  0  0  0  0
   10.1399   45.0968  127.8694 C   0  0  0  0  0  0  0  0  0  0  0  0
   10.0889   43.7111  127.7647 C   0  0  0  0  0  0  0  0  0  0  0  0
   10.1270   43.3496  126.4481 N   0  0  0  0  0  0  0  0  0  0  0  0
   10.2030   44.4141  125.6736 C   0  0  0  0  0  0  0  0  0  0  0  0
   10.3147   44.6107  124.2989 C   0  0  0  0  0  0  0  0  0  0  0  0
   10.4435   45.8920  123.7577 C   0  0  0  0  0  0  0  0  0  0  0  0
   10.4589   46.9550  124.6325 C   0  0  0  0  0  0  0  0  0  0  0  0
   10.3484   46.7665  126.0198 C   0  0  0  0  0  0  0  0  0  0  0  0
   10.2141   45.5064  126.5421 C   0  0  0  0  0  0  0  0  0  0  0  0
   10.0889   42.3409  126.0996 H   0  0  0  0  0  0  0  0  0  0  0  0
   10.6562   48.3640  124.2122 C   0  0  0  0  0  0  0  0  0  0  0  0
    9.3622   48.8191  123.8430 F   0  0  0  0  0  0  0  0  0  0  0  0
   11.0317   49.1488  125.2744 F   0  0  0  0  0  0  0  0  0  0  0  0
   11.5071   48.5037  123.1334 F   0  0  0  0  0  0  0  0  0  0  0  0
    8.9416   46.2611  133.4151 S   0  0  0  0  0  0  0  0  0  0  0  0
    7.6951   45.3477  133.4194 O   0  0  0  0  0  0  0  0  0  0  0  0
   10.0779   45.3751  134.0079 O   0  0  0  0  0  0  0  0  0  0  0  0
    7.8489   49.8397  135.9492 C   0  0  0  0  0  0  0  0  0  0  0  0
    7.6456   48.5843  136.4700 C   0  0  0  0  0  0  0  0  0  0  0  0
    8.0209   47.4848  135.7234 C   0  0  0  0  0  0  0  0  0  0  0  0
    8.5945   47.5771  134.4761 C   0  0  0  0  0  0  0  0  0  0  0  0
    8.7972   48.8733  133.9583 C   0  0  0  0  0  0  0  0  0  0  0  0
    8.4211   49.9512  134.6998 C   0  0  0  0  0  0  0  0  0  0  0  0
    7.6938   52.2672  136.3477 C   0  0  0  0  0  0  0  0  0  0  0  0
    7.4606   50.9320  136.7246 O   0  0  0  0  0  0  0  0  0  0  0  0
 30 31  1  0  0  0
 31 24  1  0  0  0
 24 25  2  0  0  0
 25 26  1  0  0  0
 26 27  2  0  0  0
 27 28  1  0  0  0
 28 29  2  0  0  0
 27 21  1  0  0  0
 21 22  2  0  0  0
 21 23  2  0  0  0
 21  1  1  0  0  0
  1  2  1  0  0  0
  2  3  1  0  0  0
  3  4  1  0  0  0
  4  5  1  0  0  0
  5  6  1  0  0  0
  4  7  1  0  0  0
  7  8  2  0  0  0
  8  9  1  0  0  0
  9 10  1  0  0  0
 10 11  2  0  0  0
 11 12  1  0  0  0
 12 13  2  0  0  0
 13 14  1  0  0  0
 14 15  2  0  0  0
 13 17  1  0  0  0
 17 18  1  0  0  0
 17 19  1  0  0  0
 17 20  1  0  0  0
 29 24  1  0  0  0
  6  1  1  0  0  0
 15  7  1  0  0  0
  6  3  1  0  0  0
 15 10  1  0  0  0
  9 16  1  0  0  0
M  END
> <minimizedAffinity>
51.73995

> <CNNscore>
0.4594508708

> <CNNaffinity>
6.8348798752

> <CNN_VS>
3.1402914524

> <CNNaffinity_variance>
1.6036621332

$$$$
[H]c1c([H])c(S(=O)(=O)N2C([H])([H])[C@@]3([H])[C@]([H])(c4c([H])n([H])c5c([H])c([H])c(C(F)(F)F)c([H])c45)C([H])([H])[C@@]23[H])c([H])c([H])c1OC([H])([H])[H]


 31 35  0  0  0  0  0  0  0  0999 V2000
    9.3275   43.7912  129.4018 N   0  0  0  0  0  0  0  0  0  0  0  0
    9.6205   44.6581  128.3389 C   0  0  0  0  0  0  0  0  0  0  0  0
    8.9630   45.8570  128.9652 C   0  0  0  0  0  0  0  0  0  0  0  0
    7.5556   46.0396  128.8274 C   0  0  0  0  0  0  0  0  0  0  0  0
    7.2437   44.9900  129.8026 C   0  0  0  0  0  0  0  0  0  0  0  0
    8.7175   44.9117  130.1044 C   0  0  0  0  0  0  0  0  0  0  0  0
    6.8557   47.2868  128.9041 C   0  0  0  0  0  0  0  0  0  0  0  0
    5.6014   47.5439  128.3618 C   0  0  0  0  0  0  0  0  0  0  0  0
    5.1535   48.7579  128.7990 N   0  0  0  0  0  0  0  0  0  0  0  0
    6.0384   49.3223  129.5971 C   0  0  0  0  0  0  0  0  0  0  0  0
    6.1091   50.5452  130.2609 C   0  0  0  0  0  0  0  0  0  0  0  0
    7.2353   50.9016  131.0065 C   0  0  0  0  0  0  0  0  0  0  0  0
    8.2756   50.0013  131.0600 C   0  0  0  0  0  0  0  0  0  0  0  0
    8.2141   48.7670  130.3930 C   0  0  0  0  0  0  0  0  0  0  0  0
    7.1018   48.4215  129.6702 C   0  0  0  0  0  0  0  0  0  0  0  0
    4.2095   49.1817  128.5353 H   0  0  0  0  0  0  0  0  0  0  0  0
    9.5594   50.2673  131.7543 C   0  0  0  0  0  0  0  0  0  0  0  0
    9.4444   51.5987  132.2360 F   0  0  0  0  0  0  0  0  0  0  0  0
    9.6879   49.4823  132.8734 F   0  0  0  0  0  0  0  0  0  0  0  0
   10.6619   50.1816  130.9270 F   0  0  0  0  0  0  0  0  0  0  0  0
   10.4221   42.9569  130.3460 S   0  0  0  0  0  0  0  0  0  0  0  0
    9.7090   41.7077  130.9109 O   0  0  0  0  0  0  0  0  0  0  0  0
   11.5287   42.3857  129.4096 O   0  0  0  0  0  0  0  0  0  0  0  0
   12.3764   45.3296  133.6585 C   0  0  0  0  0  0  0  0  0  0  0  0
   11.0923   44.8786  133.8485 C   0  0  0  0  0  0  0  0  0  0  0  0
   10.5032   44.1116  132.8626 C   0  0  0  0  0  0  0  0  0  0  0  0
   11.1372   43.7688  131.6905 C   0  0  0  0  0  0  0  0  0  0  0  0
   12.4550   44.2389  131.5135 C   0  0  0  0  0  0  0  0  0  0  0  0
   13.0266   44.9971  132.4890 C   0  0  0  0  0  0  0  0  0  0  0  0
   12.4256   47.3430  135.0797 C   0  0  0  0  0  0  0  0  0  0  0  0
   12.9467   46.1020  134.6701 O   0  0  0  0  0  0  0  0  0  0  0  0
 30 31  1  0  0  0
 31 24  1  0  0  0
 24 25  2  0  0  0
 25 26  1  0  0  0
 26 27  2  0  0  0
 27 28  1  0  0  0
 28 29  2  0  0  0
 27 21  1  0  0  0
 21 22  2  0  0  0
 21 23  2  0  0  0
 21  1  1  0  0  0
  1  2  1  0  0  0
  2  3  1  0  0  0
  3  4  1  0  0  0
  4  5  1  0  0  0
  5  6  1  0  0  0
  4  7  1  0  0  0
  7  8  2  0  0  0
  8  9  1  0  0  0
  9 10  1  0  0  0
 10 11  2  0  0  0
 11 12  1  0  0  0
 12 13  2  0  0  0
 13 14  1  0  0  0
 14 15  2  0  0  0
 13 17  1  0  0  0
 17 18  1  0  0  0
 17 19  1  0  0  0
 17 20  1  0  0  0
 29 24  1  0  0  0
  6  1  1  0  0  0
 15  7  1  0  0  0
  6  3  1  0  0  0
 15 10  1  0  0  0
  9 16  1  0  0  0
M  END
> <minimizedAffinity>
3.92646

> <CNNscore>
0.4590684175

> <CNNaffinity>
7.7356514931

> <CNN_VS>
3.5511932373

> <CNNaffinity_variance>
1.4068291187

$$$$
[H]c1c([H])c(S(=O)(=O)N2C([H])([H])[C@@]3([H])[C@]([H])(c4c([H])n([H])c5c([H])c([H])c(C(F)(F)F)c([H])c45)C([H])([H])[C@@]23[H])c([H])c([H])c1OC([H])([H])[H]


 31 35  0  0  0  0  0  0  0  0999 V2000
    7.1128   48.6087  129.2568 N   0  0  0  0  0  0  0  0  0  0  0  0
    6.1822   47.5942  129.5247 C   0  0  0  0  0  0  0  0  0  0  0  0
    7.1614   46.7073  130.2432 C   0  0  0  0  0  0  0  0  0  0  0  0
    8.0069   45.8391  129.4918 C   0  0  0  0  0  0  0  0  0  0  0  0
    8.8733   46.9361  129.0491 C   0  0  0  0  0  0  0  0  0  0  0  0
    8.1123   47.8388  129.9846 C   0  0  0  0  0  0  0  0  0  0  0  0
    8.6086   44.6293  129.9665 C   0  0  0  0  0  0  0  0  0  0  0  0
    8.7655   43.4614  129.2284 C   0  0  0  0  0  0  0  0  0  0  0  0
    9.5573   42.5872  129.9171 N   0  0  0  0  0  0  0  0  0  0  0  0
    9.9324   43.1057  131.0700 C   0  0  0  0  0  0  0  0  0  0  0  0
   10.6807   42.6393  132.1487 C   0  0  0  0  0  0  0  0  0  0  0  0
   10.8628   43.4165  133.2950 C   0  0  0  0  0  0  0  0  0  0  0  0
   10.2735   44.6605  133.3221 C   0  0  0  0  0  0  0  0  0  0  0  0
    9.5162   45.1385  132.2402 C   0  0  0  0  0  0  0  0  0  0  0  0
    9.3493   44.3727  131.1158 C   0  0  0  0  0  0  0  0  0  0  0  0
    9.8394   41.6211  129.5601 H   0  0  0  0  0  0  0  0  0  0  0  0
   10.3225   45.5691  134.4938 C   0  0  0  0  0  0  0  0  0  0  0  0
   10.7697   44.7548  135.5683 F   0  0  0  0  0  0  0  0  0  0  0  0
   11.2903   46.5298  134.3343 F   0  0  0  0  0  0  0  0  0  0  0  0
    9.0960   46.1130  134.8216 F   0  0  0  0  0  0  0  0  0  0  0  0
    7.0340   50.1991  129.7568 S   0  0  0  0  0  0  0  0  0  0  0  0
    5.7024   50.3942  130.5164 O   0  0  0  0  0  0  0  0  0  0  0  0
    8.1359   50.4198  130.8360 O   0  0  0  0  0  0  0  0  0  0  0  0
    7.4468   53.6146  126.8267 C   0  0  0  0  0  0  0  0  0  0  0  0
    7.6277   52.3329  126.3651 C   0  0  0  0  0  0  0  0  0  0  0  0
    7.4563   51.2792  127.2412 C   0  0  0  0  0  0  0  0  0  0  0  0
    7.1091   51.4426  128.5626 C   0  0  0  0  0  0  0  0  0  0  0  0
    6.9260   52.7647  129.0183 C   0  0  0  0  0  0  0  0  0  0  0  0
    7.1003   53.7974  128.1486 C   0  0  0  0  0  0  0  0  0  0  0  0
    7.5246   54.4977  124.5267 C   0  0  0  0  0  0  0  0  0  0  0  0
    7.6264   54.6595  125.9205 O   0  0  0  0  0  0  0  0  0  0  0  0
 30 31  1  0  0  0
 31 24  1  0  0  0
 24 25  2  0  0  0
 25 26  1  0  0  0
 26 27  2  0  0  0
 27 28  1  0  0  0
 28 29  2  0  0  0
 27 21  1  0  0  0
 21 22  2  0  0  0
 21 23  2  0  0  0
 21  1  1  0  0  0
  1  2  1  0  0  0
  2  3  1  0  0  0
  3  4  1  0  0  0
  4  5  1  0  0  0
  5  6  1  0  0  0
  4  7  1  0  0  0
  7  8  2  0  0  0
  8  9  1  0  0  0
  9 10  1  0  0  0
 10 11  2  0  0  0
 11 12  1  0  0  0
 12 13  2  0  0  0
 13 14  1  0  0  0
 14 15  2  0  0  0
 13 17  1  0  0  0
 17 18  1  0  0  0
 17 19  1  0  0  0
 17 20  1  0  0  0
 29 24  1  0  0  0
  6  1  1  0  0  0
 15  7  1  0  0  0
  6  3  1  0  0  0
 15 10  1  0  0  0
  9 16  1  0  0  0
M  END
> <minimizedAffinity>
2.62978

> <CNNscore>
0.4525480866

> <CNNaffinity>
7.3541498184

> <CNN_VS>
3.3281064034

> <CNNaffinity_variance>
0.2539524138

$$$$
[H]c1c([H])c([H])c(-c2c([H])c([H])c([H])c(C(=O)N([H])[C@]3([H])C([H])([H])[C@@]4([H])C([H])([H])N(S(=O)(=O)c5c([H])c([H])c(OC([H])([H])[H])c([H])c5[H])[C@]([H])(C([H])([H])C4([H])[H])C3([H])[H])c2[H])c([H])c1[H]


 36 40  0  0  0  0  0  0  0  0999 V2000
    8.2926   47.9714  130.6185 N   0  0  0  0  0  0  0  0  0  0  0  0
    7.2719   48.7074  131.2776 C   0  0  0  0  0  0  0  0  0  0  0  0
    7.7666   50.1474  131.3646 C   0  0  0  0  0  0  0  0  0  0  0  0
    9.2974   50.1297  131.4985 C   0  0  0  0  0  0  0  0  0  0  0  0
    9.8619   49.6966  130.1617 C   0  0  0  0  0  0  0  0  0  0  0  0
    8.9479   48.6503  129.5592 C   0  0  0  0  0  0  0  0  0  0  0  0
    8.0598   49.2097  128.5031 C   0  0  0  0  0  0  0  0  0  0  0  0
    7.1529   50.2978  128.9089 C   0  0  0  0  0  0  0  0  0  0  0  0
    7.4382   50.9777  130.1885 C   0  0  0  0  0  0  0  0  0  0  0  0
    7.2278   51.3377  127.8641 N   0  0  0  0  0  0  0  0  0  0  0  0
    7.1437   52.6965  128.1409 C   0  0  0  0  0  0  0  0  0  0  0  0
    6.9962   53.0618  129.3345 O   0  0  0  0  0  0  0  0  0  0  0  0
    7.3491   50.9625  126.9004 H   0  0  0  0  0  0  0  0  0  0  0  0
    7.2183   53.7259  127.1127 C   0  0  0  0  0  0  0  0  0  0  0  0
    7.9523   54.8759  127.2800 C   0  0  0  0  0  0  0  0  0  0  0  0
    8.0011   55.8325  126.2820 C   0  0  0  0  0  0  0  0  0  0  0  0
    7.3080   55.6303  125.1114 C   0  0  0  0  0  0  0  0  0  0  0  0
    6.5718   54.5045  124.9118 C   0  0  0  0  0  0  0  0  0  0  0  0
    6.5262   53.5603  125.9020 C   0  0  0  0  0  0  0  0  0  0  0  0
    5.8372   54.3026  123.6562 C   0  0  0  0  0  0  0  0  0  0  0  0
    4.4571   54.2800  123.6456 C   0  0  0  0  0  0  0  0  0  0  0  0
    3.7401   54.0895  122.4662 C   0  0  0  0  0  0  0  0  0  0  0  0
    4.4001   53.9161  121.2618 C   0  0  0  0  0  0  0  0  0  0  0  0
    5.7756   53.9412  121.2893 C   0  0  0  0  0  0  0  0  0  0  0  0
    6.4964   54.1307  122.4613 C   0  0  0  0  0  0  0  0  0  0  0  0
    8.0178   46.3205  130.4404 S   0  0  0  0  0  0  0  0  0  0  0  0
    6.6029   46.0246  130.9124 O   0  0  0  0  0  0  0  0  0  0  0  0
    8.1404   45.8117  129.0570 O   0  0  0  0  0  0  0  0  0  0  0  0
   10.6201   43.9831  133.3199 C   0  0  0  0  0  0  0  0  0  0  0  0
    9.4724   43.4234  132.7912 C   0  0  0  0  0  0  0  0  0  0  0  0
    8.7268   44.1743  131.9291 C   0  0  0  0  0  0  0  0  0  0  0  0
    9.0715   45.4676  131.5642 C   0  0  0  0  0  0  0  0  0  0  0  0
   10.2001   46.0297  132.0787 C   0  0  0  0  0  0  0  0  0  0  0  0
   10.9809   45.2793  132.9648 C   0  0  0  0  0  0  0  0  0  0  0  0
   11.3697   43.4437  135.5761 C   0  0  0  0  0  0  0  0  0  0  0  0
   11.3852   43.2283  134.1972 O   0  0  0  0  0  0  0  0  0  0  0  0
 35 36  1  0  0  0
 36 29  1  0  0  0
 29 30  2  0  0  0
 30 31  1  0  0  0
 31 32  2  0  0  0
 32 33  1  0  0  0
 33 34  2  0  0  0
 32 26  1  0  0  0
 26 27  2  0  0  0
 26 28  2  0  0  0
 26  1  1  0  0  0
  1  2  1  0  0  0
  2  3  1  0  0  0
  3  4  1  0  0  0
  4  5  1  0  0  0
  5  6  1  0  0  0
  6  7  1  0  0  0
  7  8  1  0  0  0
  8  9  1  0  0  0
  8 10  1  0  0  0
 10 11  1  0  0  0
 11 12  2  0  0  0
 11 14  1  0  0  0
 14 15  2  0  0  0
 15 16  1  0  0  0
 16 17  2  0  0  0
 17 18  1  0  0  0
 18 19  2  0  0  0
 18 20  1  0  0  0
 20 21  2  0  0  0
 21 22  1  0  0  0
 22 23  2  0  0  0
 23 24  1  0  0  0
 24 25  2  0  0  0
 34 29  1  0  0  0
  6  1  1  0  0  0
 19 14  1  0  0  0
 25 20  1  0  0  0
  9  3  1  0  0  0
 10 13  1  0  0  0
M  END
> <minimizedAffinity>
0.17499

> <CNNscore>
0.6033819318

> <CNNaffinity>
7.2911820412

> <CNN_VS>
4.3993673325

> <CNNaffinity_variance>
0.5631357431

$$$$
[H]c1c([H])c([H])c(-c2c([H])c([H])c([H])c(C(=O)N([H])[C@]3([H])C([H])([H])[C@@]4([H])C([H])([H])N(S(=O)(=O)c5c([H])c([H])c(OC([H])([H])[H])c([H])c5[H])[C@]([H])(C([H])([H])C4([H])[H])C3([H])[H])c2[H])c([H])c1[H]


 36 40  0  0  0  0  0  0  0  0999 V2000
    6.5326   54.3141  123.9398 N   0  0  0  0  0  0  0  0  0  0  0  0
    7.3642   53.2521  123.4942 C   0  0  0  0  0  0  0  0  0  0  0  0
    8.6611   53.3572  124.2898 C   0  0  0  0  0  0  0  0  0  0  0  0
    8.9285   54.8400  124.5923 C   0  0  0  0  0  0  0  0  0  0  0  0
    7.9072   55.2817  125.6196 C   0  0  0  0  0  0  0  0  0  0  0  0
    6.5903   54.5928  125.3296 C   0  0  0  0  0  0  0  0  0  0  0  0
    6.3424   53.4345  126.2316 C   0  0  0  0  0  0  0  0  0  0  0  0
    7.3376   52.3483  126.2029 C   0  0  0  0  0  0  0  0  0  0  0  0
    8.6447   52.6415  125.5812 C   0  0  0  0  0  0  0  0  0  0  0  0
    7.6207   51.9819  127.6043 N   0  0  0  0  0  0  0  0  0  0  0  0
    7.5444   50.6774  128.0760 C   0  0  0  0  0  0  0  0  0  0  0  0
    7.2187   49.7640  127.2763 O   0  0  0  0  0  0  0  0  0  0  0  0
    7.8828   52.7883  128.2088 H   0  0  0  0  0  0  0  0  0  0  0  0
    7.8240   50.3115  129.4582 C   0  0  0  0  0  0  0  0  0  0  0  0
    7.9783   51.2529  130.4478 C   0  0  0  0  0  0  0  0  0  0  0  0
    8.2429   50.8695  131.7503 C   0  0  0  0  0  0  0  0  0  0  0  0
    8.3526   49.5334  132.0573 C   0  0  0  0  0  0  0  0  0  0  0  0
    8.2057   48.5752  131.1036 C   0  0  0  0  0  0  0  0  0  0  0  0
    7.9440   48.9588  129.8159 C   0  0  0  0  0  0  0  0  0  0  0  0
    8.3254   47.1522  131.4467 C   0  0  0  0  0  0  0  0  0  0  0  0
    9.2695   46.7265  132.3593 C   0  0  0  0  0  0  0  0  0  0  0  0
    9.4007   45.3817  132.6991 C   0  0  0  0  0  0  0  0  0  0  0  0
    8.5790   44.4274  132.1243 C   0  0  0  0  0  0  0  0  0  0  0  0
    7.6433   44.8678  131.2167 C   0  0  0  0  0  0  0  0  0  0  0  0
    7.5071   46.2068  130.8736 C   0  0  0  0  0  0  0  0  0  0  0  0
    5.0419   54.4595  123.1721 S   0  0  0  0  0  0  0  0  0  0  0  0
    4.9708   55.8398  122.5382 O   0  0  0  0  0  0  0  0  0  0  0  0
    4.7885   53.4669  122.1052 O   0  0  0  0  0  0  0  0  0  0  0  0
    1.7558   54.2782  126.2859 C   0  0  0  0  0  0  0  0  0  0  0  0
    1.8776   53.2886  125.3289 C   0  0  0  0  0  0  0  0  0  0  0  0
    2.8862   53.3955  124.4154 C   0  0  0  0  0  0  0  0  0  0  0  0
    3.7881   54.4496  124.4085 C   0  0  0  0  0  0  0  0  0  0  0  0
    3.6781   55.4306  125.3465 C   0  0  0  0  0  0  0  0  0  0  0  0
    2.6519   55.3428  126.2937 C   0  0  0  0  0  0  0  0  0  0  0  0
    0.6767   53.1463  128.1561 C   0  0  0  0  0  0  0  0  0  0  0  0
    0.7341   54.1791  127.2190 O   0  0  0  0  0  0  0  0  0  0  0  0
 35 36  1  0  0  0
 36 29  1  0  0  0
 29 30  2  0  0  0
 30 31  1  0  0  0
 31 32  2  0  0  0
 32 33  1  0  0  0
 33 34  2  0  0  0
 32 26  1  0  0  0
 26 27  2  0  0  0
 26 28  2  0  0  0
 26  1  1  0  0  0
  1  2  1  0  0  0
  2  3  1  0  0  0
  3  4  1  0  0  0
  4  5  1  0  0  0
  5  6  1  0  0  0
  6  7  1  0  0  0
  7  8  1  0  0  0
  8  9  1  0  0  0
  8 10  1  0  0  0
 10 11  1  0  0  0
 11 12  2  0  0  0
 11 14  1  0  0  0
 14 15  2  0  0  0
 15 16  1  0  0  0
 16 17  2  0  0  0
 17 18  1  0  0  0
 18 19  2  0  0  0
 18 20  1  0  0  0
 20 21  2  0  0  0
 21 22  1  0  0  0
 22 23  2  0  0  0
 23 24  1  0  0  0
 24 25  2  0  0  0
 34 29  1  0  0  0
  6  1  1  0  0  0
 19 14  1  0  0  0
 25 20  1  0  0  0
  9  3  1  0  0  0
 10 13  1  0  0  0
M  END
> <minimizedAffinity>
12.81424

> <CNNscore>
0.5754756927

> <CNNaffinity>
6.6231412888

> <CNN_VS>
3.8114569187

> <CNNaffinity_variance>
0.5904142261

$$$$
[H]c1c([H])c([H])c(-c2c([H])c([H])c([H])c(C(=O)N([H])[C@]3([H])C([H])([H])[C@@]4([H])C([H])([H])N(S(=O)(=O)c5c([H])c([H])c(OC([H])([H])[H])c([H])c5[H])[C@]([H])(C([H])([H])C4([H])[H])C3([H])[H])c2[H])c([H])c1[H]


 36 40  0  0  0  0  0  0  0  0999 V2000
    9.1927   47.5946  130.5464 N   0  0  0  0  0  0  0  0  0  0  0  0
    7.7975   47.7035  130.7903 C   0  0  0  0  0  0  0  0  0  0  0  0
    7.5511   49.1363  131.2512 C   0  0  0  0  0  0  0  0  0  0  0  0
    8.7895   49.6202  132.0217 C   0  0  0  0  0  0  0  0  0  0  0  0
    9.9012   49.8147  131.0118 C   0  0  0  0  0  0  0  0  0  0  0  0
    9.8002   48.7329  129.9570 C   0  0  0  0  0  0  0  0  0  0  0  0
    9.1725   49.2213  128.6983 C   0  0  0  0  0  0  0  0  0  0  0  0
    7.8038   49.7566  128.8056 C   0  0  0  0  0  0  0  0  0  0  0  0
    7.3121   50.0972  130.1559 C   0  0  0  0  0  0  0  0  0  0  0  0
    7.7650   51.0086  128.0249 N   0  0  0  0  0  0  0  0  0  0  0  0
    7.1526   52.1681  128.4836 C   0  0  0  0  0  0  0  0  0  0  0  0
    6.6043   52.1548  129.6146 O   0  0  0  0  0  0  0  0  0  0  0  0
    8.2374   50.9458  127.0990 H   0  0  0  0  0  0  0  0  0  0  0  0
    7.1130   53.4061  127.7165 C   0  0  0  0  0  0  0  0  0  0  0  0
    7.1234   54.6414  128.3192 C   0  0  0  0  0  0  0  0  0  0  0  0
    7.0853   55.7967  127.5596 C   0  0  0  0  0  0  0  0  0  0  0  0
    7.0363   55.7078  126.1879 C   0  0  0  0  0  0  0  0  0  0  0  0
    7.0247   54.5025  125.5583 C   0  0  0  0  0  0  0  0  0  0  0  0
    7.0625   53.3616  126.3138 C   0  0  0  0  0  0  0  0  0  0  0  0
    6.9724   54.4235  124.0927 C   0  0  0  0  0  0  0  0  0  0  0  0
    8.1099   54.6247  123.3372 C   0  0  0  0  0  0  0  0  0  0  0  0
    8.0829   54.5549  121.9459 C   0  0  0  0  0  0  0  0  0  0  0  0
    6.9022   54.2788  121.2781 C   0  0  0  0  0  0  0  0  0  0  0  0
    5.7774   54.0808  122.0454 C   0  0  0  0  0  0  0  0  0  0  0  0
    5.7973   54.1489  123.4325 C   0  0  0  0  0  0  0  0  0  0  0  0
    9.7453   46.0771  130.0724 S   0  0  0  0  0  0  0  0  0  0  0  0
    8.9717   45.6602  128.8314 O   0  0  0  0  0  0  0  0  0  0  0  0
   11.1854   46.0113  129.7414 O   0  0  0  0  0  0  0  0  0  0  0  0
    8.4872   42.9973  133.1479 C   0  0  0  0  0  0  0  0  0  0  0  0
    8.1068   42.8711  131.8253 C   0  0  0  0  0  0  0  0  0  0  0  0
    8.5144   43.8294  130.9428 C   0  0  0  0  0  0  0  0  0  0  0  0
    9.2898   44.9173  131.3167 C   0  0  0  0  0  0  0  0  0  0  0  0
    9.6707   45.0523  132.6171 C   0  0  0  0  0  0  0  0  0  0  0  0
    9.2649   44.0823  133.5404 C   0  0  0  0  0  0  0  0  0  0  0  0
    6.9127   41.2825  133.8717 C   0  0  0  0  0  0  0  0  0  0  0  0
    8.0781   42.0287  134.0530 O   0  0  0  0  0  0  0  0  0  0  0  0
 35 36  1  0  0  0
 36 29  1  0  0  0
 29 30  2  0  0  0
 30 31  1  0  0  0
 31 32  2  0  0  0
 32 33  1  0  0  0
 33 34  2  0  0  0
 32 26  1  0  0  0
 26 27  2  0  0  0
 26 28  2  0  0  0
 26  1  1  0  0  0
  1  2  1  0  0  0
  2  3  1  0  0  0
  3  4  1  0  0  0
  4  5  1  0  0  0
  5  6  1  0  0  0
  6  7  1  0  0  0
  7  8  1  0  0  0
  8  9  1  0  0  0
  8 10  1  0  0  0
 10 11  1  0  0  0
 11 12  2  0  0  0
 11 14  1  0  0  0
 14 15  2  0  0  0
 15 16  1  0  0  0
 16 17  2  0  0  0
 17 18  1  0  0  0
 18 19  2  0  0  0
 18 20  1  0  0  0
 20 21  2  0  0  0
 21 22  1  0  0  0
 22 23  2  0  0  0
 23 24  1  0  0  0
 24 25  2  0  0  0
 34 29  1  0  0  0
  6  1  1  0  0  0
 19 14  1  0  0  0
 25 20  1  0  0  0
  9  3  1  0  0  0
 10 13  1  0  0  0
M  END
> <minimizedAffinity>
7.12377

> <CNNscore>
0.5651692748

> <CNNaffinity>
7.3648080826

> <CNN_VS>
4.1623630524

> <CNNaffinity_variance>
0.7349672318

$$$$
[H]c1c([H])c([H])c(-c2c([H])c([H])c([H])c(C(=O)N([H])[C@]3([H])C([H])([H])[C@@]4([H])C([H])([H])N(S(=O)(=O)c5c([H])c([H])c(OC([H])([H])[H])c([H])c5[H])[C@]([H])(C([H])([H])C4([H])[H])C3([H])[H])c2[H])c([H])c1[H]


 36 40  0  0  0  0  0  0  0  0999 V2000
   11.6798   44.7096  130.0262 N   0  0  0  0  0  0  0  0  0  0  0  0
   12.2934   45.7533  129.2831 C   0  0  0  0  0  0  0  0  0  0  0  0
   11.3679   46.0467  128.1070 C   0  0  0  0  0  0  0  0  0  0  0  0
   10.6711   44.7397  127.6972 C   0  0  0  0  0  0  0  0  0  0  0  0
    9.6762   44.3986  128.7868 C   0  0  0  0  0  0  0  0  0  0  0  0
   10.2667   44.7815  130.1275 C   0  0  0  0  0  0  0  0  0  0  0  0
    9.7206   46.0665  130.6445 C   0  0  0  0  0  0  0  0  0  0  0  0
    9.9227   47.2583  129.8020 C   0  0  0  0  0  0  0  0  0  0  0  0
   10.3106   47.0367  128.3943 C   0  0  0  0  0  0  0  0  0  0  0  0
    8.6397   47.9871  129.7660 N   0  0  0  0  0  0  0  0  0  0  0  0
    7.4173   47.3584  129.5644 C   0  0  0  0  0  0  0  0  0  0  0  0
    7.3984   46.1119  129.4040 O   0  0  0  0  0  0  0  0  0  0  0  0
    8.7318   49.0150  129.9049 H   0  0  0  0  0  0  0  0  0  0  0  0
    6.1488   48.0740  129.5291 C   0  0  0  0  0  0  0  0  0  0  0  0
    6.0825   49.4403  129.3949 C   0  0  0  0  0  0  0  0  0  0  0  0
    4.8601   50.0872  129.3648 C   0  0  0  0  0  0  0  0  0  0  0  0
    3.7004   49.3554  129.4703 C   0  0  0  0  0  0  0  0  0  0  0  0
    3.7286   48.0024  129.6042 C   0  0  0  0  0  0  0  0  0  0  0  0
    4.9403   47.3662  129.6336 C   0  0  0  0  0  0  0  0  0  0  0  0
    2.4817   47.2345  129.7156 C   0  0  0  0  0  0  0  0  0  0  0  0
    2.5126   45.8746  129.9498 C   0  0  0  0  0  0  0  0  0  0  0  0
    1.3421   45.1267  130.0586 C   0  0  0  0  0  0  0  0  0  0  0  0
    0.1047   45.7344  129.9333 C   0  0  0  0  0  0  0  0  0  0  0  0
    0.0909   47.0903  129.7000 C   0  0  0  0  0  0  0  0  0  0  0  0
    1.2539   47.8418  129.5906 C   0  0  0  0  0  0  0  0  0  0  0  0
   12.5346   44.1520  131.3645 S   0  0  0  0  0  0  0  0  0  0  0  0
   13.4880   43.0643  130.8952 O   0  0  0  0  0  0  0  0  0  0  0  0
   13.3395   45.1770  132.0639 O   0  0  0  0  0  0  0  0  0  0  0  0
    9.5859   41.9460  134.0038 C   0  0  0  0  0  0  0  0  0  0  0  0
    9.8815   41.4841  132.7352 C   0  0  0  0  0  0  0  0  0  0  0  0
   10.7769   42.1896  131.9844 C   0  0  0  0  0  0  0  0  0  0  0  0
   11.3984   43.3434  132.4396 C   0  0  0  0  0  0  0  0  0  0  0  0
   11.1151   43.8081  133.6878 C   0  0  0  0  0  0  0  0  0  0  0  0
   10.2001   43.1018  134.4764 C   0  0  0  0  0  0  0  0  0  0  0  0
    7.3111   41.2165  134.4895 C   0  0  0  0  0  0  0  0  0  0  0  0
    8.6771   41.2364  134.7752 O   0  0  0  0  0  0  0  0  0  0  0  0
 35 36  1  0  0  0
 36 29  1  0  0  0
 29 30  2  0  0  0
 30 31  1  0  0  0
 31 32  2  0  0  0
 32 33  1  0  0  0
 33 34  2  0  0  0
 32 26  1  0  0  0
 26 27  2  0  0  0
 26 28  2  0  0  0
 26  1  1  0  0  0
  1  2  1  0  0  0
  2  3  1  0  0  0
  3  4  1  0  0  0
  4  5  1  0  0  0
  5  6  1  0  0  0
  6  7  1  0  0  0
  7  8  1  0  0  0
  8  9  1  0  0  0
  8 10  1  0  0  0
 10 11  1  0  0  0
 11 12  2  0  0  0
 11 14  1  0  0  0
 14 15  2  0  0  0
 15 16  1  0  0  0
 16 17  2  0  0  0
 17 18  1  0  0  0
 18 19  2  0  0  0
 18 20  1  0  0  0
 20 21  2  0  0  0
 21 22  1  0  0  0
 22 23  2  0  0  0
 23 24  1  0  0  0
 24 25  2  0  0  0
 34 29  1  0  0  0
  6  1  1  0  0  0
 19 14  1  0  0  0
 25 20  1  0  0  0
  9  3  1  0  0  0
 10 13  1  0  0  0
M  END
> <minimizedAffinity>
23.68633

> <CNNscore>
0.5620771646

> <CNNaffinity>
7.9084906578

> <CNN_VS>
4.4451818466

> <CNNaffinity_variance>
2.9360599518

$$$$
[H]c1c([H])c([H])c(-c2c([H])c([H])c([H])c(C(=O)N([H])[C@]3([H])C([H])([H])[C@@]4([H])C([H])([H])N(S(=O)(=O)c5c([H])c([H])c(OC([H])([H])[H])c([H])c5[H])[C@]([H])(C([H])([H])C4([H])[H])C3([H])[H])c2[H])c([H])c1[H]


 36 40  0  0  0  0  0  0  0  0999 V2000
   10.1439   44.1572  130.8019 N   0  0  0  0  0  0  0  0  0  0  0  0
   10.2811   43.1972  131.8400 C   0  0  0  0  0  0  0  0  0  0  0  0
   11.7537   43.1990  132.2369 C   0  0  0  0  0  0  0  0  0  0  0  0
   12.5938   43.5211  130.9911 C   0  0  0  0  0  0  0  0  0  0  0  0
   12.3683   44.9817  130.6606 C   0  0  0  0  0  0  0  0  0  0  0  0
   10.9240   45.3327  130.9503 C   0  0  0  0  0  0  0  0  0  0  0  0
   10.7616   46.0571  132.2410 C   0  0  0  0  0  0  0  0  0  0  0  0
   11.2187   45.3578  133.4547 C   0  0  0  0  0  0  0  0  0  0  0  0
   12.1056   44.1909  133.2725 C   0  0  0  0  0  0  0  0  0  0  0  0
   11.9818   46.3340  134.2568 N   0  0  0  0  0  0  0  0  0  0  0  0
   11.6199   47.6707  134.3673 C   0  0  0  0  0  0  0  0  0  0  0  0
   10.5967   48.0719  133.7573 O   0  0  0  0  0  0  0  0  0  0  0  0
   12.8161   45.9319  134.7327 H   0  0  0  0  0  0  0  0  0  0  0  0
   12.3697   48.6370  135.1588 C   0  0  0  0  0  0  0  0  0  0  0  0
   13.0016   48.2916  136.3296 C   0  0  0  0  0  0  0  0  0  0  0  0
   13.7055   49.2353  137.0557 C   0  0  0  0  0  0  0  0  0  0  0  0
   13.7732   50.5317  136.6013 C   0  0  0  0  0  0  0  0  0  0  0  0
   13.1603   50.9085  135.4473 C   0  0  0  0  0  0  0  0  0  0  0  0
   12.4648   49.9715  134.7317 C   0  0  0  0  0  0  0  0  0  0  0  0
   13.2417   52.2966  134.9746 C   0  0  0  0  0  0  0  0  0  0  0  0
   14.2510   52.6894  134.1189 C   0  0  0  0  0  0  0  0  0  0  0  0
   14.3475   54.0009  133.6585 C   0  0  0  0  0  0  0  0  0  0  0  0
   13.4238   54.9542  134.0515 C   0  0  0  0  0  0  0  0  0  0  0  0
   12.4241   54.5468  134.9046 C   0  0  0  0  0  0  0  0  0  0  0  0
   12.3221   53.2412  135.3672 C   0  0  0  0  0  0  0  0  0  0  0  0
    8.6052   44.3158  130.1385 S   0  0  0  0  0  0  0  0  0  0  0  0
    8.5993   43.6153  128.7889 O   0  0  0  0  0  0  0  0  0  0  0  0
    7.5125   43.7325  130.9469 O   0  0  0  0  0  0  0  0  0  0  0  0
    7.7426   48.6637  129.2011 C   0  0  0  0  0  0  0  0  0  0  0  0
    6.7227   47.7315  129.2307 C   0  0  0  0  0  0  0  0  0  0  0  0
    7.0414   46.4358  129.5182 C   0  0  0  0  0  0  0  0  0  0  0  0
    8.3384   46.0191  129.7803 C   0  0  0  0  0  0  0  0  0  0  0  0
    9.3516   46.9285  129.7540 C   0  0  0  0  0  0  0  0  0  0  0  0
    9.0495   48.2631  129.4615 C   0  0  0  0  0  0  0  0  0  0  0  0
    7.0689   50.9005  129.8984 C   0  0  0  0  0  0  0  0  0  0  0  0
    7.4294   49.9834  128.9099 O   0  0  0  0  0  0  0  0  0  0  0  0
 35 36  1  0  0  0
 36 29  1  0  0  0
 29 30  2  0  0  0
 30 31  1  0  0  0
 31 32  2  0  0  0
 32 33  1  0  0  0
 33 34  2  0  0  0
 32 26  1  0  0  0
 26 27  2  0  0  0
 26 28  2  0  0  0
 26  1  1  0  0  0
  1  2  1  0  0  0
  2  3  1  0  0  0
  3  4  1  0  0  0
  4  5  1  0  0  0
  5  6  1  0  0  0
  6  7  1  0  0  0
  7  8  1  0  0  0
  8  9  1  0  0  0
  8 10  1  0  0  0
 10 11  1  0  0  0
 11 12  2  0  0  0
 11 14  1  0  0  0
 14 15  2  0  0  0
 15 16  1  0  0  0
 16 17  2  0  0  0
 17 18  1  0  0  0
 18 19  2  0  0  0
 18 20  1  0  0  0
 20 21  2  0  0  0
 21 22  1  0  0  0
 22 23  2  0  0  0
 23 24  1  0  0  0
 24 25  2  0  0  0
 34 29  1  0  0  0
  6  1  1  0  0  0
 19 14  1  0  0  0
 25 20  1  0  0  0
  9  3  1  0  0  0
 10 13  1  0  0  0
M  END
> <minimizedAffinity>
23.38386

> <CNNscore>
0.5533334017

> <CNNaffinity>
7.6237792969

> <CNN_VS>
4.2184915543

> <CNNaffinity_variance>
0.6614060402

$$$$
[H]c1c([H])c([H])c(-c2c([H])c([H])c([H])c(C(=O)N([H])[C@]3([H])C([H])([H])[C@@]4([H])C([H])([H])N(S(=O)(=O)c5c([H])c([H])c(OC([H])([H])[H])c([H])c5[H])[C@]([H])(C([H])([H])C4([H])[H])C3([H])[H])c2[H])c([H])c1[H]


 36 40  0  0  0  0  0  0  0  0999 V2000
    8.2063   47.8112  130.3110 N   0  0  0  0  0  0  0  0  0  0  0  0
    7.7658   48.3734  131.5390 C   0  0  0  0  0  0  0  0  0  0  0  0
    8.6029   49.6284  131.7633 C   0  0  0  0  0  0  0  0  0  0  0  0
    9.9962   49.3997  131.1566 C   0  0  0  0  0  0  0  0  0  0  0  0
    9.8388   49.4069  129.6505 C   0  0  0  0  0  0  0  0  0  0  0  0
    8.5250   48.7448  129.2916 C   0  0  0  0  0  0  0  0  0  0  0  0
    7.4601   49.7325  128.9640 C   0  0  0  0  0  0  0  0  0  0  0  0
    7.1066   50.6990  130.0185 C   0  0  0  0  0  0  0  0  0  0  0  0
    8.0497   50.8498  131.1449 C   0  0  0  0  0  0  0  0  0  0  0  0
    7.0141   52.0256  129.3781 N   0  0  0  0  0  0  0  0  0  0  0  0
    7.1872   52.2213  128.0137 C   0  0  0  0  0  0  0  0  0  0  0  0
    7.4350   51.2258  127.2873 O   0  0  0  0  0  0  0  0  0  0  0  0
    6.8076   52.8025  130.0400 H   0  0  0  0  0  0  0  0  0  0  0  0
    7.0957   53.5288  127.3776 C   0  0  0  0  0  0  0  0  0  0  0  0
    6.7647   54.6630  128.0800 C   0  0  0  0  0  0  0  0  0  0  0  0
    6.6874   55.8888  127.4437 C   0  0  0  0  0  0  0  0  0  0  0  0
    6.9442   55.9727  126.0951 C   0  0  0  0  0  0  0  0  0  0  0  0
    7.2745   54.8712  125.3692 C   0  0  0  0  0  0  0  0  0  0  0  0
    7.3499   53.6601  126.0028 C   0  0  0  0  0  0  0  0  0  0  0  0
    7.5462   54.9766  123.9297 C   0  0  0  0  0  0  0  0  0  0  0  0
    6.7719   54.2897  123.0166 C   0  0  0  0  0  0  0  0  0  0  0  0
    7.0122   54.3748  121.6468 C   0  0  0  0  0  0  0  0  0  0  0  0
    8.0445   55.1588  121.1609 C   0  0  0  0  0  0  0  0  0  0  0  0
    8.8069   55.8370  122.0839 C   0  0  0  0  0  0  0  0  0  0  0  0
    8.5728   55.7566  123.4507 C   0  0  0  0  0  0  0  0  0  0  0  0
    7.4713   46.3686  129.8512 S   0  0  0  0  0  0  0  0  0  0  0  0
    6.1363   46.2689  130.5725 O   0  0  0  0  0  0  0  0  0  0  0  0
    7.2046   46.2367  128.4023 O   0  0  0  0  0  0  0  0  0  0  0  0
    9.9720   43.0320  131.6232 C   0  0  0  0  0  0  0  0  0  0  0  0
    9.6398   44.1422  132.3763 C   0  0  0  0  0  0  0  0  0  0  0  0
    8.8847   45.1166  131.7901 C   0  0  0  0  0  0  0  0  0  0  0  0
    8.4399   45.0385  130.4784 C   0  0  0  0  0  0  0  0  0  0  0  0
    8.7609   43.9494  129.7266 C   0  0  0  0  0  0  0  0  0  0  0  0
    9.5343   42.9372  130.3057 C   0  0  0  0  0  0  0  0  0  0  0  0
   12.0905   42.2140  132.5101 C   0  0  0  0  0  0  0  0  0  0  0  0
   10.7392   42.0358  132.2095 O   0  0  0  0  0  0  0  0  0  0  0  0
 35 36  1  0  0  0
 36 29  1  0  0  0
 29 30  2  0  0  0
 30 31  1  0  0  0
 31 32  2  0  0  0
 32 33  1  0  0  0
 33 34  2  0  0  0
 32 26  1  0  0  0
 26 27  2  0  0  0
 26 28  2  0  0  0
 26  1  1  0  0  0
  1  2  1  0  0  0
  2  3  1  0  0  0
  3  4  1  0  0  0
  4  5  1  0  0  0
  5  6  1  0  0  0
  6  7  1  0  0  0
  7  8  1  0  0  0
  8  9  1  0  0  0
  8 10  1  0  0  0
 10 11  1  0  0  0
 11 12  2  0  0  0
 11 14  1  0  0  0
 14 15  2  0  0  0
 15 16  1  0  0  0
 16 17  2  0  0  0
 17 18  1  0  0  0
 18 19  2  0  0  0
 18 20  1  0  0  0
 20 21  2  0  0  0
 21 22  1  0  0  0
 22 23  2  0  0  0
 23 24  1  0  0  0
 24 25  2  0  0  0
 34 29  1  0  0  0
  6  1  1  0  0  0
 19 14  1  0  0  0
 25 20  1  0  0  0
  9  3  1  0  0  0
 10 13  1  0  0  0
M  END
> <minimizedAffinity>
2.79784

> <CNNscore>
0.5269645452

> <CNNaffinity>
7.1790895462

> <CNN_VS>
3.7831256390

> <CNNaffinity_variance>
0.5057766438

$$$$
[H]c1c([H])c([H])c(-c2c([H])c([H])c([H])c(C(=O)N([H])[C@]3([H])C([H])([H])[C@@]4([H])C([H])([H])N(S(=O)(=O)c5c([H])c([H])c(OC([H])([H])[H])c([H])c5[H])[C@]([H])(C([H])([H])C4([H])[H])C3([H])[H])c2[H])c([H])c1[H]


 36 40  0  0  0  0  0  0  0  0999 V2000
   11.3725   43.5137  130.2347 N   0  0  0  0  0  0  0  0  0  0  0  0
   12.0317   44.4849  129.4346 C   0  0  0  0  0  0  0  0  0  0  0  0
   11.2291   44.5956  128.1425 C   0  0  0  0  0  0  0  0  0  0  0  0
   10.6179   43.2209  127.8291 C   0  0  0  0  0  0  0  0  0  0  0  0
    9.5225   42.9724  128.8448 C   0  0  0  0  0  0  0  0  0  0  0  0
    9.9552   43.5383  130.1810 C   0  0  0  0  0  0  0  0  0  0  0  0
    9.3202   44.8525  130.4756 C   0  0  0  0  0  0  0  0  0  0  0  0
    9.5769   45.9414  129.5167 C   0  0  0  0  0  0  0  0  0  0  0  0
   10.1192   45.5680  128.1947 C   0  0  0  0  0  0  0  0  0  0  0  0
    8.2846   46.6064  129.2591 N   0  0  0  0  0  0  0  0  0  0  0  0
    7.7637   47.5945  130.0851 C   0  0  0  0  0  0  0  0  0  0  0  0
    8.4192   47.9407  131.1002 O   0  0  0  0  0  0  0  0  0  0  0  0
    7.7974   46.2690  128.4028 H   0  0  0  0  0  0  0  0  0  0  0  0
    6.4891   48.2539  129.8338 C   0  0  0  0  0  0  0  0  0  0  0  0
    6.4054   49.5890  129.5178 C   0  0  0  0  0  0  0  0  0  0  0  0
    5.1779   50.1827  129.2850 C   0  0  0  0  0  0  0  0  0  0  0  0
    4.0305   49.4291  129.3707 C   0  0  0  0  0  0  0  0  0  0  0  0
    4.0761   48.1058  129.6808 C   0  0  0  0  0  0  0  0  0  0  0  0
    5.2929   47.5223  129.9106 C   0  0  0  0  0  0  0  0  0  0  0  0
    2.8423   47.3140  129.7685 C   0  0  0  0  0  0  0  0  0  0  0  0
    2.8964   45.9461  129.9443 C   0  0  0  0  0  0  0  0  0  0  0  0
    1.7387   45.1756  130.0297 C   0  0  0  0  0  0  0  0  0  0  0  0
    0.4909   45.7682  129.9394 C   0  0  0  0  0  0  0  0  0  0  0  0
    0.4540   47.1325  129.7642 C   0  0  0  0  0  0  0  0  0  0  0  0
    1.6042   47.9064  129.6784 C   0  0  0  0  0  0  0  0  0  0  0  0
   12.0952   43.1576  131.7125 S   0  0  0  0  0  0  0  0  0  0  0  0
   11.7481   41.7217  132.0730 O   0  0  0  0  0  0  0  0  0  0  0  0
   13.5693   43.2770  131.7326 O   0  0  0  0  0  0  0  0  0  0  0  0
   10.1852   45.8502  134.8155 C   0  0  0  0  0  0  0  0  0  0  0  0
   10.9734   46.3785  133.8107 C   0  0  0  0  0  0  0  0  0  0  0  0
   11.5237   45.5196  132.9037 C   0  0  0  0  0  0  0  0  0  0  0  0
   11.3254   44.1473  132.9489 C   0  0  0  0  0  0  0  0  0  0  0  0
   10.5508   43.6152  133.9343 C   0  0  0  0  0  0  0  0  0  0  0  0
    9.9758   44.4759  134.8759 C   0  0  0  0  0  0  0  0  0  0  0  0
    8.6120   47.6173  135.4036 C   0  0  0  0  0  0  0  0  0  0  0  0
    9.6212   46.7145  135.7425 O   0  0  0  0  0  0  0  0  0  0  0  0
 35 36  1  0  0  0
 36 29  1  0  0  0
 29 30  2  0  0  0
 30 31  1  0  0  0
 31 32  2  0  0  0
 32 33  1  0  0  0
 33 34  2  0  0  0
 32 26  1  0  0  0
 26 27  2  0  0  0
 26 28  2  0  0  0
 26  1  1  0  0  0
  1  2  1  0  0  0
  2  3  1  0  0  0
  3  4  1  0  0  0
  4  5  1  0  0  0
  5  6  1  0  0  0
  6  7  1  0  0  0
  7  8  1  0  0  0
  8  9  1  0  0  0
  8 10  1  0  0  0
 10 11  1  0  0  0
 11 12  2  0  0  0
 11 14  1  0  0  0
 14 15  2  0  0  0
 15 16  1  0  0  0
 16 17  2  0  0  0
 17 18  1  0  0  0
 18 19  2  0  0  0
 18 20  1  0  0  0
 20 21  2  0  0  0
 21 22  1  0  0  0
 22 23  2  0  0  0
 23 24  1  0  0  0
 24 25  2  0  0  0
 34 29  1  0  0  0
  6  1  1  0  0  0
 19 14  1  0  0  0
 25 20  1  0  0  0
  9  3  1  0  0  0
 10 13  1  0  0  0
M  END
> <minimizedAffinity>
13.39162

> <CNNscore>
0.5220582485

> <CNNaffinity>
7.9262189865

> <CNN_VS>
4.1379480362

> <CNNaffinity_variance>
0.6143974066

$$$$
[H]c1c([H])c([H])c(-c2c([H])c([H])c([H])c(C(=O)N([H])[C@]3([H])C([H])([H])[C@@]4([H])C([H])([H])N(S(=O)(=O)c5c([H])c([H])c(OC([H])([H])[H])c([H])c5[H])[C@]([H])(C([H])([H])C4([H])[H])C3([H])[H])c2[H])c([H])c1[H]


 36 40  0  0  0  0  0  0  0  0999 V2000
    7.7328   48.5197  130.7555 N   0  0  0  0  0  0  0  0  0  0  0  0
    8.0356   47.7778  129.5825 C   0  0  0  0  0  0  0  0  0  0  0  0
    6.8609   47.9781  128.6306 C   0  0  0  0  0  0  0  0  0  0  0  0
    5.5805   48.1420  129.4644 C   0  0  0  0  0  0  0  0  0  0  0  0
    5.6539   49.4942  130.1422 C   0  0  0  0  0  0  0  0  0  0  0  0
    7.0894   49.7656  130.5408 C   0  0  0  0  0  0  0  0  0  0  0  0
    7.7759   50.6938  129.6006 C   0  0  0  0  0  0  0  0  0  0  0  0
    7.8616   50.2665  128.1930 C   0  0  0  0  0  0  0  0  0  0  0  0
    6.9748   49.1669  127.7623 C   0  0  0  0  0  0  0  0  0  0  0  0
    7.5044   51.4333  127.3627 N   0  0  0  0  0  0  0  0  0  0  0  0
    7.1113   52.6527  127.8997 C   0  0  0  0  0  0  0  0  0  0  0  0
    7.0548   52.7723  129.1497 O   0  0  0  0  0  0  0  0  0  0  0  0
    7.5731   51.2614  126.3379 H   0  0  0  0  0  0  0  0  0  0  0  0
    6.7589   53.8070  127.0836 C   0  0  0  0  0  0  0  0  0  0  0  0
    5.7668   54.6859  127.4480 C   0  0  0  0  0  0  0  0  0  0  0  0
    5.4588   55.7721  126.6488 C   0  0  0  0  0  0  0  0  0  0  0  0
    6.1522   55.9739  125.4783 C   0  0  0  0  0  0  0  0  0  0  0  0
    7.1397   55.1248  125.0870 C   0  0  0  0  0  0  0  0  0  0  0  0
    7.4414   54.0511  125.8807 C   0  0  0  0  0  0  0  0  0  0  0  0
    7.8715   55.3536  123.8344 C   0  0  0  0  0  0  0  0  0  0  0  0
    7.2530   55.1655  122.6149 C   0  0  0  0  0  0  0  0  0  0  0  0
    7.9284   55.3763  121.4146 C   0  0  0  0  0  0  0  0  0  0  0  0
    9.2512   55.7840  121.4138 C   0  0  0  0  0  0  0  0  0  0  0  0
    9.8534   55.9670  122.6374 C   0  0  0  0  0  0  0  0  0  0  0  0
    9.1860   55.7588  123.8376 C   0  0  0  0  0  0  0  0  0  0  0  0
    8.8576   48.4229  132.0038 S   0  0  0  0  0  0  0  0  0  0  0  0
   10.1654   49.0188  131.5072 O   0  0  0  0  0  0  0  0  0  0  0  0
    8.4826   49.1423  133.2406 O   0  0  0  0  0  0  0  0  0  0  0  0
    9.9072   44.0679  132.6817 C   0  0  0  0  0  0  0  0  0  0  0  0
   10.7984   44.9207  132.0584 C   0  0  0  0  0  0  0  0  0  0  0  0
   10.4284   46.2224  131.8802 C   0  0  0  0  0  0  0  0  0  0  0  0
    9.2026   46.7211  132.2966 C   0  0  0  0  0  0  0  0  0  0  0  0
    8.3163   45.8904  132.9119 C   0  0  0  0  0  0  0  0  0  0  0  0
    8.6732   44.5513  133.1057 C   0  0  0  0  0  0  0  0  0  0  0  0
   11.0703   42.0533  131.9523 C   0  0  0  0  0  0  0  0  0  0  0  0
   10.2735   42.7428  132.8676 O   0  0  0  0  0  0  0  0  0  0  0  0
 35 36  1  0  0  0
 36 29  1  0  0  0
 29 30  2  0  0  0
 30 31  1  0  0  0
 31 32  2  0  0  0
 32 33  1  0  0  0
 33 34  2  0  0  0
 32 26  1  0  0  0
 26 27  2  0  0  0
 26 28  2  0  0  0
 26  1  1  0  0  0
  1  2  1  0  0  0
  2  3  1  0  0  0
  3  4  1  0  0  0
  4  5  1  0  0  0
  5  6  1  0  0  0
  6  7  1  0  0  0
  7  8  1  0  0  0
  8  9  1  0  0  0
  8 10  1  0  0  0
 10 11  1  0  0  0
 11 12  2  0  0  0
 11 14  1  0  0  0
 14 15  2  0  0  0
 15 16  1  0  0  0
 16 17  2  0  0  0
 17 18  1  0  0  0
 18 19  2  0  0  0
 18 20  1  0  0  0
 20 21  2  0  0  0
 21 22  1  0  0  0
 22 23  2  0  0  0
 23 24  1  0  0  0
 24 25  2  0  0  0
 34 29  1  0  0  0
  6  1  1  0  0  0
 19 14  1  0  0  0
 25 20  1  0  0  0
  9  3  1  0  0  0
 10 13  1  0  0  0
M  END
> <minimizedAffinity>
2.66536

> <CNNscore>
0.5158842206

> <CNNaffinity>
7.1893296242

> <CNN_VS>
3.7088618279

> <CNNaffinity_variance>
0.3329998553

$$$$
[H]c1c([H])c([H])c(-c2c([H])c([H])c([H])c(C(=O)N([H])[C@]3([H])C([H])([H])[C@@]4([H])C([H])([H])N(S(=O)(=O)c5c([H])c([H])c(OC([H])([H])[H])c([H])c5[H])[C@]([H])(C([H])([H])C4([H])[H])C3([H])[H])c2[H])c([H])c1[H]


 36 40  0  0  0  0  0  0  0  0999 V2000
    8.0861   45.3478  129.5579 N   0  0  0  0  0  0  0  0  0  0  0  0
    8.5050   46.2660  128.5582 C   0  0  0  0  0  0  0  0  0  0  0  0
    7.5295   47.4371  128.6127 C   0  0  0  0  0  0  0  0  0  0  0  0
    6.1508   46.9039  129.0330 C   0  0  0  0  0  0  0  0  0  0  0  0
    6.2428   46.5191  130.4948 C   0  0  0  0  0  0  0  0  0  0  0  0
    7.6120   45.9299  130.7616 C   0  0  0  0  0  0  0  0  0  0  0  0
    8.5322   46.9003  131.4162 C   0  0  0  0  0  0  0  0  0  0  0  0
    8.8076   48.1488  130.6837 C   0  0  0  0  0  0  0  0  0  0  0  0
    7.9012   48.4971  129.5710 C   0  0  0  0  0  0  0  0  0  0  0  0
    8.7087   49.2539  131.6572 N   0  0  0  0  0  0  0  0  0  0  0  0
    9.8062   49.7600  132.3421 C   0  0  0  0  0  0  0  0  0  0  0  0
   10.9375   49.2562  132.1267 O   0  0  0  0  0  0  0  0  0  0  0  0
    7.7426   49.6208  131.7854 H   0  0  0  0  0  0  0  0  0  0  0  0
    9.7129   50.8512  133.3028 C   0  0  0  0  0  0  0  0  0  0  0  0
    8.5702   51.0927  134.0276 C   0  0  0  0  0  0  0  0  0  0  0  0
    8.5169   52.1380  134.9321 C   0  0  0  0  0  0  0  0  0  0  0  0
    9.6182   52.9431  135.1071 C   0  0  0  0  0  0  0  0  0  0  0  0
   10.7650   52.7332  134.4071 C   0  0  0  0  0  0  0  0  0  0  0  0
   10.8136   51.6977  133.5130 C   0  0  0  0  0  0  0  0  0  0  0  0
   11.9330   53.6013  134.6050 C   0  0  0  0  0  0  0  0  0  0  0  0
   13.1745   53.2272  134.1320 C   0  0  0  0  0  0  0  0  0  0  0  0
   14.2959   54.0350  134.3090 C   0  0  0  0  0  0  0  0  0  0  0  0
   14.1929   55.2465  134.9707 C   0  0  0  0  0  0  0  0  0  0  0  0
   12.9486   55.6049  135.4361 C   0  0  0  0  0  0  0  0  0  0  0  0
   11.8268   54.8045  135.2630 C   0  0  0  0  0  0  0  0  0  0  0  0
    8.9736   43.9223  129.6727 S   0  0  0  0  0  0  0  0  0  0  0  0
    8.0044   42.7850  129.9547 O   0  0  0  0  0  0  0  0  0  0  0  0
    9.7395   43.5631  128.4595 O   0  0  0  0  0  0  0  0  0  0  0  0
   11.4871   44.0878  133.4386 C   0  0  0  0  0  0  0  0  0  0  0  0
   10.3171   43.3530  133.4018 C   0  0  0  0  0  0  0  0  0  0  0  0
    9.6000   43.3400  132.2405 C   0  0  0  0  0  0  0  0  0  0  0  0
    9.9950   44.0292  131.1031 C   0  0  0  0  0  0  0  0  0  0  0  0
   11.1460   44.7565  131.1274 C   0  0  0  0  0  0  0  0  0  0  0  0
   11.8982   44.7853  132.3069 C   0  0  0  0  0  0  0  0  0  0  0  0
   11.7586   43.5284  135.7959 C   0  0  0  0  0  0  0  0  0  0  0  0
   12.2234   44.1077  134.6142 O   0  0  0  0  0  0  0  0  0  0  0  0
 35 36  1  0  0  0
 36 29  1  0  0  0
 29 30  2  0  0  0
 30 31  1  0  0  0
 31 32  2  0  0  0
 32 33  1  0  0  0
 33 34  2  0  0  0
 32 26  1  0  0  0
 26 27  2  0  0  0
 26 28  2  0  0  0
 26  1  1  0  0  0
  1  2  1  0  0  0
  2  3  1  0  0  0
  3  4  1  0  0  0
  4  5  1  0  0  0
  5  6  1  0  0  0
  6  7  1  0  0  0
  7  8  1  0  0  0
  8  9  1  0  0  0
  8 10  1  0  0  0
 10 11  1  0  0  0
 11 12  2  0  0  0
 11 14  1  0  0  0
 14 15  2  0  0  0
 15 16  1  0  0  0
 16 17  2  0  0  0
 17 18  1  0  0  0
 18 19  2  0  0  0
 18 20  1  0  0  0
 20 21  2  0  0  0
 21 22  1  0  0  0
 22 23  2  0  0  0
 23 24  1  0  0  0
 24 25  2  0  0  0
 34 29  1  0  0  0
  6  1  1  0  0  0
 19 14  1  0  0  0
 25 20  1  0  0  0
  9  3  1  0  0  0
 10 13  1  0  0  0
M  END
> <minimizedAffinity>
26.03868

> <CNNscore>
0.4906039834

> <CNNaffinity>
7.5738844872

> <CNN_VS>
3.7157778740

> <CNNaffinity_variance>
0.7289422750

$$$$
[H]c1c([H])c(S(=O)(=O)N2C([H])([H])[C@@]3([H])C([H])([H])[C@@]([H])(N([H])C(=O)c4c([H])n([H])c5c([H])c([H])c([H])c([H])c45)[C@]3([H])C2([H])[H])c([H])c([H])c1OC([H])([H])[H]


 32 36  0  0  0  0  0  0  0  0999 V2000
   11.3992   43.2401  128.7630 N   0  0  0  0  0  0  0  0  0  0  0  0
   10.7360   44.3264  128.0027 C   0  0  0  0  0  0  0  0  0  0  0  0
    9.7503   44.7378  129.0005 C   0  0  0  0  0  0  0  0  0  0  0  0
    8.3741   45.1034  128.8510 C   0  0  0  0  0  0  0  0  0  0  0  0
    8.1545   44.0019  129.9516 C   0  0  0  0  0  0  0  0  0  0  0  0
    9.1708   43.3063  129.2117 C   0  0  0  0  0  0  0  0  0  0  0  0
   10.4232   42.7612  129.7423 C   0  0  0  0  0  0  0  0  0  0  0  0
    7.9664   46.3834  129.3466 N   0  0  0  0  0  0  0  0  0  0  0  0
    8.8760   47.5095  129.2453 C   0  0  0  0  0  0  0  0  0  0  0  0
    9.9826   47.2811  128.7129 O   0  0  0  0  0  0  0  0  0  0  0  0
    7.0340   46.5802  129.7859 H   0  0  0  0  0  0  0  0  0  0  0  0
    8.4553   48.8052  129.7380 C   0  0  0  0  0  0  0  0  0  0  0  0
    7.4633   49.6513  129.2141 C   0  0  0  0  0  0  0  0  0  0  0  0
    7.3323   50.7071  130.0117 N   0  0  0  0  0  0  0  0  0  0  0  0
    8.2015   50.6215  131.0698 C   0  0  0  0  0  0  0  0  0  0  0  0
    8.4664   51.4456  132.1249 C   0  0  0  0  0  0  0  0  0  0  0  0
    9.4519   51.0923  133.0319 C   0  0  0  0  0  0  0  0  0  0  0  0
   10.1654   49.9021  132.8674 C   0  0  0  0  0  0  0  0  0  0  0  0
    9.8810   49.1083  131.8182 C   0  0  0  0  0  0  0  0  0  0  0  0
    8.8979   49.4159  130.8701 C   0  0  0  0  0  0  0  0  0  0  0  0
    6.6695   51.5236  129.9065 H   0  0  0  0  0  0  0  0  0  0  0  0
   12.6630   43.9634  129.6473 S   0  0  0  0  0  0  0  0  0  0  0  0
   13.9542   43.2047  129.5265 O   0  0  0  0  0  0  0  0  0  0  0  0
   12.9916   45.3705  129.1498 O   0  0  0  0  0  0  0  0  0  0  0  0
   11.6575   44.3585  134.1215 C   0  0  0  0  0  0  0  0  0  0  0  0
   11.5041   43.1471  133.4015 C   0  0  0  0  0  0  0  0  0  0  0  0
   11.8293   43.0890  132.0777 C   0  0  0  0  0  0  0  0  0  0  0  0
   12.3172   44.1532  131.3525 C   0  0  0  0  0  0  0  0  0  0  0  0
   12.4672   45.3151  132.0404 C   0  0  0  0  0  0  0  0  0  0  0  0
   12.1445   45.4233  133.4021 C   0  0  0  0  0  0  0  0  0  0  0  0
   11.3921   43.4676  136.4357 C   0  0  0  0  0  0  0  0  0  0  0  0
   11.3336   44.4559  135.4564 O   0  0  0  0  0  0  0  0  0  0  0  0
 31 32  1  0  0  0
 32 25  1  0  0  0
 25 26  2  0  0  0
 26 27  1  0  0  0
 27 28  2  0  0  0
 28 29  1  0  0  0
 29 30  2  0  0  0
 28 22  1  0  0  0
 22 23  2  0  0  0
 22 24  2  0  0  0
 22  1  1  0  0  0
  1  2  1  0  0  0
  2  3  1  0  0  0
  3  4  1  0  0  0
  4  5  1  0  0  0
  5  6  1  0  0  0
  6  7  1  0  0  0
  4  8  1  0  0  0
  8  9  1  0  0  0
  9 10  2  0  0  0
  9 12  1  0  0  0
 12 13  2  0  0  0
 13 14  1  0  0  0
 14 15  1  0  0  0
 15 16  2  0  0  0
 16 17  1  0  0  0
 17 18  2  0  0  0
 18 19  1  0  0  0
 19 20  2  0  0  0
 30 25  1  0  0  0
  7  1  1  0  0  0
 20 12  1  0  0  0
  6  3  1  0  0  0
 20 15  1  0  0  0
  8 11  1  0  0  0
 14 21  1  0  0  0
M  END
> <minimizedAffinity>
4.24742

> <CNNscore>
0.5322858691

> <CNNaffinity>
7.4795084000

> <CNN_VS>
3.9812366962

> <CNNaffinity_variance>
1.2151800394

$$$$
[H]c1c([H])c(S(=O)(=O)N2C([H])([H])[C@@]3([H])C([H])([H])[C@@]([H])(N([H])C(=O)c4c([H])n([H])c5c([H])c([H])c([H])c([H])c45)[C@]3([H])C2([H])[H])c([H])c([H])c1OC([H])([H])[H]


 32 36  0  0  0  0  0  0  0  0999 V2000
    8.3093   42.7816  128.6883 N   0  0  0  0  0  0  0  0  0  0  0  0
    7.9055   44.0241  129.3890 C   0  0  0  0  0  0  0  0  0  0  0  0
    8.4968   43.7534  130.6980 C   0  0  0  0  0  0  0  0  0  0  0  0
    7.9870   43.9909  132.0146 C   0  0  0  0  0  0  0  0  0  0  0  0
    8.3066   42.4640  132.2125 C   0  0  0  0  0  0  0  0  0  0  0  0
    7.8115   42.3637  130.8676 C   0  0  0  0  0  0  0  0  0  0  0  0
    8.5011   41.7640  129.7221 C   0  0  0  0  0  0  0  0  0  0  0  0
    8.7825   44.7805  132.9056 N   0  0  0  0  0  0  0  0  0  0  0  0
    8.1490   45.4391  134.0328 C   0  0  0  0  0  0  0  0  0  0  0  0
    6.9186   45.2636  134.1564 O   0  0  0  0  0  0  0  0  0  0  0  0
    9.8178   44.9222  132.8093 H   0  0  0  0  0  0  0  0  0  0  0  0
    8.9595   46.2280  134.9379 C   0  0  0  0  0  0  0  0  0  0  0  0
    9.1200   46.0642  136.3242 C   0  0  0  0  0  0  0  0  0  0  0  0
   10.0147   46.9452  136.7614 N   0  0  0  0  0  0  0  0  0  0  0  0
   10.4783   47.7150  135.7247 C   0  0  0  0  0  0  0  0  0  0  0  0
   11.3652   48.7503  135.6591 C   0  0  0  0  0  0  0  0  0  0  0  0
   11.6044   49.3634  134.4402 C   0  0  0  0  0  0  0  0  0  0  0  0
   10.9446   48.9232  133.2898 C   0  0  0  0  0  0  0  0  0  0  0  0
   10.0767   47.8988  133.3848 C   0  0  0  0  0  0  0  0  0  0  0  0
    9.7947   47.2438  134.5895 C   0  0  0  0  0  0  0  0  0  0  0  0
   10.3666   47.0796  137.7490 H   0  0  0  0  0  0  0  0  0  0  0  0
    9.8421   43.0803  128.0074 S   0  0  0  0  0  0  0  0  0  0  0  0
   10.4669   41.8393  127.4358 O   0  0  0  0  0  0  0  0  0  0  0  0
    9.7784   44.0583  126.8348 O   0  0  0  0  0  0  0  0  0  0  0  0
   12.9267   44.9936  130.8377 C   0  0  0  0  0  0  0  0  0  0  0  0
   12.5768   45.5574  129.5850 C   0  0  0  0  0  0  0  0  0  0  0  0
   11.6466   44.9489  128.7937 C   0  0  0  0  0  0  0  0  0  0  0  0
   10.9896   43.7850  129.1255 C   0  0  0  0  0  0  0  0  0  0  0  0
   11.3212   43.2434  130.3264 C   0  0  0  0  0  0  0  0  0  0  0  0
   12.2732   43.8322  131.1734 C   0  0  0  0  0  0  0  0  0  0  0  0
   13.6843   46.1292  132.9248 C   0  0  0  0  0  0  0  0  0  0  0  0
   13.8654   45.5763  131.6596 O   0  0  0  0  0  0  0  0  0  0  0  0
 31 32  1  0  0  0
 32 25  1  0  0  0
 25 26  2  0  0  0
 26 27  1  0  0  0
 27 28  2  0  0  0
 28 29  1  0  0  0
 29 30  2  0  0  0
 28 22  1  0  0  0
 22 23  2  0  0  0
 22 24  2  0  0  0
 22  1  1  0  0  0
  1  2  1  0  0  0
  2  3  1  0  0  0
  3  4  1  0  0  0
  4  5  1  0  0  0
  5  6  1  0  0  0
  6  7  1  0  0  0
  4  8  1  0  0  0
  8  9  1  0  0  0
  9 10  2  0  0  0
  9 12  1  0  0  0
 12 13  2  0  0  0
 13 14  1  0  0  0
 14 15  1  0  0  0
 15 16  2  0  0  0
 16 17  1  0  0  0
 17 18  2  0  0  0
 18 19  1  0  0  0
 19 20  2  0  0  0
 30 25  1  0  0  0
  7  1  1  0  0  0
 20 12  1  0  0  0
  6  3  1  0  0  0
 20 15  1  0  0  0
  8 11  1  0  0  0
 14 21  1  0  0  0
M  END
> <minimizedAffinity>
20.58168

> <CNNscore>
0.5271142125

> <CNNaffinity>
6.9011411667

> <CNN_VS>
3.6376895905

> <CNNaffinity_variance>
1.4789111614

$$$$
[H]c1c([H])c(S(=O)(=O)N2C([H])([H])[C@@]3([H])C([H])([H])[C@@]([H])(N([H])C(=O)c4c([H])n([H])c5c([H])c([H])c([H])c([H])c45)[C@]3([H])C2([H])[H])c([H])c([H])c1OC([H])([H])[H]


 32 36  0  0  0  0  0  0  0  0999 V2000
    9.4162   41.9459  129.3960 N   0  0  0  0  0  0  0  0  0  0  0  0
    8.3409   42.8962  129.7684 C   0  0  0  0  0  0  0  0  0  0  0  0
    9.1408   43.8720  130.5063 C   0  0  0  0  0  0  0  0  0  0  0  0
    8.8594   44.5755  131.7211 C   0  0  0  0  0  0  0  0  0  0  0  0
   10.2466   43.9841  132.1667 C   0  0  0  0  0  0  0  0  0  0  0  0
    9.7814   42.8212  131.4629 C   0  0  0  0  0  0  0  0  0  0  0  0
   10.4788   42.1098  130.3884 C   0  0  0  0  0  0  0  0  0  0  0  0
    8.9195   46.0058  131.6928 N   0  0  0  0  0  0  0  0  0  0  0  0
    8.0586   46.7374  130.7821 C   0  0  0  0  0  0  0  0  0  0  0  0
    7.2979   46.0510  130.0678 O   0  0  0  0  0  0  0  0  0  0  0  0
    9.5510   46.5853  132.2983 H   0  0  0  0  0  0  0  0  0  0  0  0
    8.1148   48.1848  130.7646 C   0  0  0  0  0  0  0  0  0  0  0  0
    7.4435   49.0679  129.9022 C   0  0  0  0  0  0  0  0  0  0  0  0
    7.7043   50.3169  130.2762 N   0  0  0  0  0  0  0  0  0  0  0  0
    8.5350   50.3287  131.3680 C   0  0  0  0  0  0  0  0  0  0  0  0
    9.1010   51.3354  132.0952 C   0  0  0  0  0  0  0  0  0  0  0  0
    9.9459   51.0212  133.1470 C   0  0  0  0  0  0  0  0  0  0  0  0
   10.2132   49.6858  133.4599 C   0  0  0  0  0  0  0  0  0  0  0  0
    9.6393   48.7143  132.7261 C   0  0  0  0  0  0  0  0  0  0  0  0
    8.7797   48.9731  131.6519 C   0  0  0  0  0  0  0  0  0  0  0  0
    7.3492   51.2133  129.8431 H   0  0  0  0  0  0  0  0  0  0  0  0
   10.0502   42.4833  127.9089 S   0  0  0  0  0  0  0  0  0  0  0  0
    8.9891   43.0346  126.9993 O   0  0  0  0  0  0  0  0  0  0  0  0
   11.0478   43.6282  128.0802 O   0  0  0  0  0  0  0  0  0  0  0  0
   12.3913   39.3427  125.4920 C   0  0  0  0  0  0  0  0  0  0  0  0
   12.8080   40.6926  125.6087 C   0  0  0  0  0  0  0  0  0  0  0  0
   12.0769   41.5755  126.3486 C   0  0  0  0  0  0  0  0  0  0  0  0
   10.9206   41.2506  127.0222 C   0  0  0  0  0  0  0  0  0  0  0  0
   10.5198   39.9571  126.9140 C   0  0  0  0  0  0  0  0  0  0  0  0
   11.2380   39.0135  126.1629 C   0  0  0  0  0  0  0  0  0  0  0  0
   14.1432   37.5992  125.1595 C   0  0  0  0  0  0  0  0  0  0  0  0
   13.1002   38.4254  124.7487 O   0  0  0  0  0  0  0  0  0  0  0  0
 31 32  1  0  0  0
 32 25  1  0  0  0
 25 26  2  0  0  0
 26 27  1  0  0  0
 27 28  2  0  0  0
 28 29  1  0  0  0
 29 30  2  0  0  0
 28 22  1  0  0  0
 22 23  2  0  0  0
 22 24  2  0  0  0
 22  1  1  0  0  0
  1  2  1  0  0  0
  2  3  1  0  0  0
  3  4  1  0  0  0
  4  5  1  0  0  0
  5  6  1  0  0  0
  6  7  1  0  0  0
  4  8  1  0  0  0
  8  9  1  0  0  0
  9 10  2  0  0  0
  9 12  1  0  0  0
 12 13  2  0  0  0
 13 14  1  0  0  0
 14 15  1  0  0  0
 15 16  2  0  0  0
 16 17  1  0  0  0
 17 18  2  0  0  0
 18 19  1  0  0  0
 19 20  2  0  0  0
 30 25  1  0  0  0
  7  1  1  0  0  0
 20 12  1  0  0  0
  6  3  1  0  0  0
 20 15  1  0  0  0
  8 11  1  0  0  0
 14 21  1  0  0  0
M  END
> <minimizedAffinity>
22.95267

> <CNNscore>
0.5119167566

> <CNNaffinity>
7.1412210464

> <CNN_VS>
3.6557106972

> <CNNaffinity_variance>
1.6557356119

$$$$
[H]c1c([H])c(S(=O)(=O)N2C([H])([H])[C@@]3([H])C([H])([H])[C@@]([H])(N([H])C(=O)c4c([H])n([H])c5c([H])c([H])c([H])c([H])c45)[C@]3([H])C2([H])[H])c([H])c([H])c1OC([H])([H])[H]


 32 36  0  0  0  0  0  0  0  0999 V2000
    9.0338   43.0671  128.4444 N   0  0  0  0  0  0  0  0  0  0  0  0
    8.3860   44.3613  128.1232 C   0  0  0  0  0  0  0  0  0  0  0  0
    8.2530   44.8951  129.4774 C   0  0  0  0  0  0  0  0  0  0  0  0
    7.1749   45.6081  130.0930 C   0  0  0  0  0  0  0  0  0  0  0  0
    7.3003   44.4834  131.1848 C   0  0  0  0  0  0  0  0  0  0  0  0
    7.5209   43.6404  130.0426 C   0  0  0  0  0  0  0  0  0  0  0  0
    8.6588   42.7441  129.8214 C   0  0  0  0  0  0  0  0  0  0  0  0
    7.4634   46.8874  130.6679 N   0  0  0  0  0  0  0  0  0  0  0  0
    7.7987   47.9999  129.7987 C   0  0  0  0  0  0  0  0  0  0  0  0
    7.8081   47.7613  128.5727 O   0  0  0  0  0  0  0  0  0  0  0  0
    7.4473   47.0929  131.6968 H   0  0  0  0  0  0  0  0  0  0  0  0
    8.0792   49.2951  130.3838 C   0  0  0  0  0  0  0  0  0  0  0  0
    7.5733   50.5482  129.9986 C   0  0  0  0  0  0  0  0  0  0  0  0
    8.0159   51.4709  130.8475 N   0  0  0  0  0  0  0  0  0  0  0  0
    8.8127   50.8994  131.8070 C   0  0  0  0  0  0  0  0  0  0  0  0
    9.5108   51.4113  132.8620 C   0  0  0  0  0  0  0  0  0  0  0  0
   10.2720   50.5623  133.6487 C   0  0  0  0  0  0  0  0  0  0  0  0
   10.3215   49.1951  133.3642 C   0  0  0  0  0  0  0  0  0  0  0  0
    9.6211   48.7186  132.3182 C   0  0  0  0  0  0  0  0  0  0  0  0
    8.8375   49.5296  131.4887 C   0  0  0  0  0  0  0  0  0  0  0  0
    7.8144   52.5085  130.8436 H   0  0  0  0  0  0  0  0  0  0  0  0
   10.7138   43.3492  128.4496 S   0  0  0  0  0  0  0  0  0  0  0  0
   11.4807   42.2552  127.7623 O   0  0  0  0  0  0  0  0  0  0  0  0
   11.0934   44.6226  127.6946 O   0  0  0  0  0  0  0  0  0  0  0  0
   12.5991   43.9654  132.6031 C   0  0  0  0  0  0  0  0  0  0  0  0
   12.6439   44.9489  131.5831 C   0  0  0  0  0  0  0  0  0  0  0  0
   12.0570   44.7120  130.3744 C   0  0  0  0  0  0  0  0  0  0  0  0
   11.3944   43.5493  130.0496 C   0  0  0  0  0  0  0  0  0  0  0  0
   11.3480   42.6057  131.0259 C   0  0  0  0  0  0  0  0  0  0  0  0
   11.9385   42.8034  132.2838 C   0  0  0  0  0  0  0  0  0  0  0  0
   12.5836   44.1730  135.0883 C   0  0  0  0  0  0  0  0  0  0  0  0
   13.1857   44.1670  133.8326 O   0  0  0  0  0  0  0  0  0  0  0  0
 31 32  1  0  0  0
 32 25  1  0  0  0
 25 26  2  0  0  0
 26 27  1  0  0  0
 27 28  2  0  0  0
 28 29  1  0  0  0
 29 30  2  0  0  0
 28 22  1  0  0  0
 22 23  2  0  0  0
 22 24  2  0  0  0
 22  1  1  0  0  0
  1  2  1  0  0  0
  2  3  1  0  0  0
  3  4  1  0  0  0
  4  5  1  0  0  0
  5  6  1  0  0  0
  6  7  1  0  0  0
  4  8  1  0  0  0
  8  9  1  0  0  0
  9 10  2  0  0  0
  9 12  1  0  0  0
 12 13  2  0  0  0
 13 14  1  0  0  0
 14 15  1  0  0  0
 15 16  2  0  0  0
 16 17  1  0  0  0
 17 18  2  0  0  0
 18 19  1  0  0  0
 19 20  2  0  0  0
 30 25  1  0  0  0
  7  1  1  0  0  0
 20 12  1  0  0  0
  6  3  1  0  0  0
 20 15  1  0  0  0
  8 11  1  0  0  0
 14 21  1  0  0  0
M  END
> <minimizedAffinity>
8.19555

> <CNNscore>
0.4982324541

> <CNNaffinity>
7.2412919998

> <CNN_VS>
3.6078467369

> <CNNaffinity_variance>
1.3703172207

$$$$
[H]c1c([H])c(S(=O)(=O)N2C([H])([H])[C@@]3([H])C([H])([H])[C@@]([H])(N([H])C(=O)c4c([H])n([H])c5c([H])c([H])c([H])c([H])c45)[C@]3([H])C2([H])[H])c([H])c([H])c1OC([H])([H])[H]


 32 36  0  0  0  0  0  0  0  0999 V2000
   11.3498   44.0351  127.8458 N   0  0  0  0  0  0  0  0  0  0  0  0
   10.5583   45.2878  127.8919 C   0  0  0  0  0  0  0  0  0  0  0  0
    9.8174   45.0473  129.1286 C   0  0  0  0  0  0  0  0  0  0  0  0
    8.4480   45.3064  129.4565 C   0  0  0  0  0  0  0  0  0  0  0  0
    8.4501   43.7863  129.8586 C   0  0  0  0  0  0  0  0  0  0  0  0
    9.2712   43.6558  128.6869 C   0  0  0  0  0  0  0  0  0  0  0  0
   10.5984   43.0394  128.6107 C   0  0  0  0  0  0  0  0  0  0  0  0
    8.1792   46.1195  130.6040 N   0  0  0  0  0  0  0  0  0  0  0  0
    9.1117   47.1704  130.9670 C   0  0  0  0  0  0  0  0  0  0  0  0
   10.1116   47.3021  130.2301 O   0  0  0  0  0  0  0  0  0  0  0  0
    7.3355   46.0170  131.2194 H   0  0  0  0  0  0  0  0  0  0  0  0
    8.8303   47.9976  132.1224 C   0  0  0  0  0  0  0  0  0  0  0  0
    8.4003   49.3351  132.1467 C   0  0  0  0  0  0  0  0  0  0  0  0
    8.1789   49.6937  133.4078 N   0  0  0  0  0  0  0  0  0  0  0  0
    8.4426   48.6498  134.2582 C   0  0  0  0  0  0  0  0  0  0  0  0
    8.3960   48.5218  135.6161 C   0  0  0  0  0  0  0  0  0  0  0  0
    8.7652   47.3202  136.1980 C   0  0  0  0  0  0  0  0  0  0  0  0
    9.1790   46.2501  135.4004 C   0  0  0  0  0  0  0  0  0  0  0  0
    9.2132   46.4051  134.0638 C   0  0  0  0  0  0  0  0  0  0  0  0
    8.8537   47.5962  133.4220 C   0  0  0  0  0  0  0  0  0  0  0  0
    7.8415   50.6280  133.7688 H   0  0  0  0  0  0  0  0  0  0  0  0
   12.7867   44.3325  128.7113 S   0  0  0  0  0  0  0  0  0  0  0  0
   13.8666   43.3393  128.3875 O   0  0  0  0  0  0  0  0  0  0  0  0
   13.3976   45.6929  128.3770 O   0  0  0  0  0  0  0  0  0  0  0  0
   12.1532   44.2461  133.2694 C   0  0  0  0  0  0  0  0  0  0  0  0
   12.0451   43.0912  132.4546 C   0  0  0  0  0  0  0  0  0  0  0  0
   12.2548   43.1778  131.1092 C   0  0  0  0  0  0  0  0  0  0  0  0
   12.5788   44.3421  130.4491 C   0  0  0  0  0  0  0  0  0  0  0  0
   12.6851   45.4503  131.2276 C   0  0  0  0  0  0  0  0  0  0  0  0
   12.4768   45.4105  132.6152 C   0  0  0  0  0  0  0  0  0  0  0  0
   11.1355   43.3204  135.3495 C   0  0  0  0  0  0  0  0  0  0  0  0
   11.9422   44.1977  134.6294 O   0  0  0  0  0  0  0  0  0  0  0  0
 31 32  1  0  0  0
 32 25  1  0  0  0
 25 26  2  0  0  0
 26 27  1  0  0  0
 27 28  2  0  0  0
 28 29  1  0  0  0
 29 30  2  0  0  0
 28 22  1  0  0  0
 22 23  2  0  0  0
 22 24  2  0  0  0
 22  1  1  0  0  0
  1  2  1  0  0  0
  2  3  1  0  0  0
  3  4  1  0  0  0
  4  5  1  0  0  0
  5  6  1  0  0  0
  6  7  1  0  0  0
  4  8  1  0  0  0
  8  9  1  0  0  0
  9 10  2  0  0  0
  9 12  1  0  0  0
 12 13  2  0  0  0
 13 14  1  0  0  0
 14 15  1  0  0  0
 15 16  2  0  0  0
 16 17  1  0  0  0
 17 18  2  0  0  0
 18 19  1  0  0  0
 19 20  2  0  0  0
 30 25  1  0  0  0
  7  1  1  0  0  0
 20 12  1  0  0  0
  6  3  1  0  0  0
 20 15  1  0  0  0
  8 11  1  0  0  0
 14 21  1  0  0  0
M  END
> <minimizedAffinity>
7.85636

> <CNNscore>
0.4945933223

> <CNNaffinity>
7.3744974136

> <CNN_VS>
3.6473772526

> <CNNaffinity_variance>
0.9003963470

$$$$
[H]c1c([H])c(S(=O)(=O)N2C([H])([H])[C@@]3([H])C([H])([H])[C@@]([H])(N([H])C(=O)c4c([H])n([H])c5c([H])c([H])c([H])c([H])c45)[C@]3([H])C2([H])[H])c([H])c([H])c1OC([H])([H])[H]


 32 36  0  0  0  0  0  0  0  0999 V2000
   10.7754   42.3460  130.3741 N   0  0  0  0  0  0  0  0  0  0  0  0
   11.3498   43.5359  129.7017 C   0  0  0  0  0  0  0  0  0  0  0  0
   10.2085   44.4414  129.8206 C   0  0  0  0  0  0  0  0  0  0  0  0
    9.6594   45.3721  128.8814 C   0  0  0  0  0  0  0  0  0  0  0  0
    8.3227   44.5995  129.1796 C   0  0  0  0  0  0  0  0  0  0  0  0
    9.1882   43.4528  129.1793 C   0  0  0  0  0  0  0  0  0  0  0  0
    9.3221   42.4553  130.2444 C   0  0  0  0  0  0  0  0  0  0  0  0
    9.5399   46.7394  129.2894 N   0  0  0  0  0  0  0  0  0  0  0  0
    8.2457   47.3923  129.2231 C   0  0  0  0  0  0  0  0  0  0  0  0
    7.2952   46.6963  128.8079 O   0  0  0  0  0  0  0  0  0  0  0  0
   10.3348   47.3236  129.6472 H   0  0  0  0  0  0  0  0  0  0  0  0
    8.1271   48.7724  129.6471 C   0  0  0  0  0  0  0  0  0  0  0  0
    7.3288   49.7851  129.0889 C   0  0  0  0  0  0  0  0  0  0  0  0
    7.4488   50.8844  129.8271 N   0  0  0  0  0  0  0  0  0  0  0  0
    8.3048   50.6677  130.8772 C   0  0  0  0  0  0  0  0  0  0  0  0
    8.7675   51.4689  131.8805 C   0  0  0  0  0  0  0  0  0  0  0  0
    9.6755   50.9580  132.7934 C   0  0  0  0  0  0  0  0  0  0  0  0
   10.1106   49.6343  132.6874 C   0  0  0  0  0  0  0  0  0  0  0  0
    9.6356   48.8674  131.6885 C   0  0  0  0  0  0  0  0  0  0  0  0
    8.7190   49.3309  130.7372 C   0  0  0  0  0  0  0  0  0  0  0  0
    6.9757   51.8187  129.6843 H   0  0  0  0  0  0  0  0  0  0  0  0
   11.1304   42.5028  132.0329 S   0  0  0  0  0  0  0  0  0  0  0  0
   10.6837   41.3100  132.8297 O   0  0  0  0  0  0  0  0  0  0  0  0
   12.6314   42.6083  132.3004 O   0  0  0  0  0  0  0  0  0  0  0  0
    9.1793   46.2205  133.9192 C   0  0  0  0  0  0  0  0  0  0  0  0
    8.4397   45.0744  133.5331 C   0  0  0  0  0  0  0  0  0  0  0  0
    9.0763   43.9976  132.9882 C   0  0  0  0  0  0  0  0  0  0  0  0
   10.4351   43.9271  132.7753 C   0  0  0  0  0  0  0  0  0  0  0  0
   11.1468   45.0232  133.1463 C   0  0  0  0  0  0  0  0  0  0  0  0
   10.5358   46.1546  133.7091 C   0  0  0  0  0  0  0  0  0  0  0  0
    8.4022   47.6474  135.8111 C   0  0  0  0  0  0  0  0  0  0  0  0
    8.5701   47.3277  134.4662 O   0  0  0  0  0  0  0  0  0  0  0  0
 31 32  1  0  0  0
 32 25  1  0  0  0
 25 26  2  0  0  0
 26 27  1  0  0  0
 27 28  2  0  0  0
 28 29  1  0  0  0
 29 30  2  0  0  0
 28 22  1  0  0  0
 22 23  2  0  0  0
 22 24  2  0  0  0
 22  1  1  0  0  0
  1  2  1  0  0  0
  2  3  1  0  0  0
  3  4  1  0  0  0
  4  5  1  0  0  0
  5  6  1  0  0  0
  6  7  1  0  0  0
  4  8  1  0  0  0
  8  9  1  0  0  0
  9 10  2  0  0  0
  9 12  1  0  0  0
 12 13  2  0  0  0
 13 14  1  0  0  0
 14 15  1  0  0  0
 15 16  2  0  0  0
 16 17  1  0  0  0
 17 18  2  0  0  0
 18 19  1  0  0  0
 19 20  2  0  0  0
 30 25  1  0  0  0
  7  1  1  0  0  0
 20 12  1  0  0  0
  6  3  1  0  0  0
 20 15  1  0  0  0
  8 11  1  0  0  0
 14 21  1  0  0  0
M  END
> <minimizedAffinity>
-1.89282

> <CNNscore>
0.4425089657

> <CNNaffinity>
7.8314995766

> <CNN_VS>
3.4655086994

> <CNNaffinity_variance>
0.2815028727

$$$$
[H]c1c([H])c(S(=O)(=O)N2C([H])([H])[C@@]3([H])C([H])([H])[C@@]([H])(N([H])C(=O)c4c([H])n([H])c5c([H])c([H])c([H])c([H])c45)[C@]3([H])C2([H])[H])c([H])c([H])c1OC([H])([H])[H]


 32 36  0  0  0  0  0  0  0  0999 V2000
   11.5269   42.7535  131.7068 N   0  0  0  0  0  0  0  0  0  0  0  0
   11.3077   43.2301  130.3202 C   0  0  0  0  0  0  0  0  0  0  0  0
    9.9476   43.7453  130.4656 C   0  0  0  0  0  0  0  0  0  0  0  0
    8.8214   43.6557  129.5862 C   0  0  0  0  0  0  0  0  0  0  0  0
    8.1061   43.0794  130.8625 C   0  0  0  0  0  0  0  0  0  0  0  0
    9.3702   42.4269  131.0638 C   0  0  0  0  0  0  0  0  0  0  0  0
   10.2031   42.4822  132.2681 C   0  0  0  0  0  0  0  0  0  0  0  0
    8.1942   44.8768  129.1789 N   0  0  0  0  0  0  0  0  0  0  0  0
    7.5785   45.7295  130.1786 C   0  0  0  0  0  0  0  0  0  0  0  0
    7.6434   45.3323  131.3610 O   0  0  0  0  0  0  0  0  0  0  0  0
    8.1463   45.2174  128.1876 H   0  0  0  0  0  0  0  0  0  0  0  0
    6.9547   46.9694  129.7635 C   0  0  0  0  0  0  0  0  0  0  0  0
    5.7523   47.1405  129.0567 C   0  0  0  0  0  0  0  0  0  0  0  0
    5.4961   48.4409  128.9510 N   0  0  0  0  0  0  0  0  0  0  0  0
    6.4813   49.1765  129.5596 C   0  0  0  0  0  0  0  0  0  0  0  0
    6.6881   50.5182  129.6999 C   0  0  0  0  0  0  0  0  0  0  0  0
    7.8252   50.9655  130.3525 C   0  0  0  0  0  0  0  0  0  0  0  0
    8.7492   50.0501  130.8633 C   0  0  0  0  0  0  0  0  0  0  0  0
    8.5178   48.7329  130.7115 C   0  0  0  0  0  0  0  0  0  0  0  0
    7.3879   48.2244  130.0596 C   0  0  0  0  0  0  0  0  0  0  0  0
    4.6684   48.9051  128.4856 H   0  0  0  0  0  0  0  0  0  0  0  0
   12.1670   44.0686  132.5803 S   0  0  0  0  0  0  0  0  0  0  0  0
   12.9864   43.6284  133.7601 O   0  0  0  0  0  0  0  0  0  0  0  0
   13.1207   44.9174  131.7403 O   0  0  0  0  0  0  0  0  0  0  0  0
    9.0701   47.1219  134.0878 C   0  0  0  0  0  0  0  0  0  0  0  0
   10.0486   47.4352  133.1111 C   0  0  0  0  0  0  0  0  0  0  0  0
   10.9340   46.4837  132.6960 C   0  0  0  0  0  0  0  0  0  0  0  0
   10.9557   45.1889  133.1644 C   0  0  0  0  0  0  0  0  0  0  0  0
   10.0177   44.8850  134.0990 C   0  0  0  0  0  0  0  0  0  0  0  0
    9.0876   45.8307  134.5579 C   0  0  0  0  0  0  0  0  0  0  0  0
    7.8334   48.3834  135.8480 C   0  0  0  0  0  0  0  0  0  0  0  0
    8.1648   48.0582  134.5351 O   0  0  0  0  0  0  0  0  0  0  0  0
 31 32  1  0  0  0
 32 25  1  0  0  0
 25 26  2  0  0  0
 26 27  1  0  0  0
 27 28  2  0  0  0
 28 29  1  0  0  0
 29 30  2  0  0  0
 28 22  1  0  0  0
 22 23  2  0  0  0
 22 24  2  0  0  0
 22  1  1  0  0  0
  1  2  1  0  0  0
  2  3  1  0  0  0
  3  4  1  0  0  0
  4  5  1  0  0  0
  5  6  1  0  0  0
  6  7  1  0  0  0
  4  8  1  0  0  0
  8  9  1  0  0  0
  9 10  2  0  0  0
  9 12  1  0  0  0
 12 13  2  0  0  0
 13 14  1  0  0  0
 14 15  1  0  0  0
 15 16  2  0  0  0
 16 17  1  0  0  0
 17 18  2  0  0  0
 18 19  1  0  0  0
 19 20  2  0  0  0
 30 25  1  0  0  0
  7  1  1  0  0  0
 20 12  1  0  0  0
  6  3  1  0  0  0
 20 15  1  0  0  0
  8 11  1  0  0  0
 14 21  1  0  0  0
M  END
> <minimizedAffinity>
-6.53253

> <CNNscore>
0.4088677466

> <CNNaffinity>
7.6659607887

> <CNN_VS>
3.1343641281

> <CNNaffinity_variance>
0.3437691629

$$$$
[H]c1c([H])c(S(=O)(=O)N2C([H])([H])[C@@]3([H])C([H])([H])[C@@]([H])(N([H])C(=O)c4c([H])n([H])c5c([H])c([H])c([H])c([H])c45)[C@]3([H])C2([H])[H])c([H])c([H])c1OC([H])([H])[H]


 32 36  0  0  0  0  0  0  0  0999 V2000
    9.3625   49.4972  129.5434 N   0  0  0  0  0  0  0  0  0  0  0  0
    9.0365   48.1485  129.0210 C   0  0  0  0  0  0  0  0  0  0  0  0
    9.8037   47.3425  129.9687 C   0  0  0  0  0  0  0  0  0  0  0  0
   10.6047   46.1744  129.7594 C   0  0  0  0  0  0  0  0  0  0  0  0
   11.7029   47.0217  130.5002 C   0  0  0  0  0  0  0  0  0  0  0  0
   11.1457   48.0981  129.7288 C   0  0  0  0  0  0  0  0  0  0  0  0
   10.6424   49.3751  130.2418 C   0  0  0  0  0  0  0  0  0  0  0  0
   10.2887   45.0037  130.5208 N   0  0  0  0  0  0  0  0  0  0  0  0
    9.6278   45.1457  131.8049 C   0  0  0  0  0  0  0  0  0  0  0  0
    9.3671   46.3122  132.1673 O   0  0  0  0  0  0  0  0  0  0  0  0
   10.4984   44.0221  130.2146 H   0  0  0  0  0  0  0  0  0  0  0  0
    9.3002   43.9580  132.5669 C   0  0  0  0  0  0  0  0  0  0  0  0
    8.2066   43.7532  133.4252 C   0  0  0  0  0  0  0  0  0  0  0  0
    8.2304   42.4973  133.8611 N   0  0  0  0  0  0  0  0  0  0  0  0
    9.3047   41.8255  133.3348 C   0  0  0  0  0  0  0  0  0  0  0  0
    9.7734   40.5533  133.4907 C   0  0  0  0  0  0  0  0  0  0  0  0
   10.9338   40.1722  132.8371 C   0  0  0  0  0  0  0  0  0  0  0  0
   11.6151   41.0826  132.0249 C   0  0  0  0  0  0  0  0  0  0  0  0
   11.1281   42.3300  131.8887 C   0  0  0  0  0  0  0  0  0  0  0  0
    9.9622   42.7703  132.5264 C   0  0  0  0  0  0  0  0  0  0  0  0
    7.5475   42.0218  134.5128 H   0  0  0  0  0  0  0  0  0  0  0  0
    8.1927   49.8584  130.7280 S   0  0  0  0  0  0  0  0  0  0  0  0
    8.1554   48.8349  131.8273 O   0  0  0  0  0  0  0  0  0  0  0  0
    8.4727   51.1819  131.4392 O   0  0  0  0  0  0  0  0  0  0  0  0
    3.9685   50.2314  128.9385 C   0  0  0  0  0  0  0  0  0  0  0  0
    4.9372   49.3224  128.4438 C   0  0  0  0  0  0  0  0  0  0  0  0
    6.1703   49.2501  129.0233 C   0  0  0  0  0  0  0  0  0  0  0  0
    6.5684   50.0169  130.0957 C   0  0  0  0  0  0  0  0  0  0  0  0
    5.6414   50.8875  130.5734 C   0  0  0  0  0  0  0  0  0  0  0  0
    4.3610   50.9986  130.0090 C   0  0  0  0  0  0  0  0  0  0  0  0
    2.2780   51.2294  127.4004 C   0  0  0  0  0  0  0  0  0  0  0  0
    2.7165   50.3364  128.3749 O   0  0  0  0  0  0  0  0  0  0  0  0
 31 32  1  0  0  0
 32 25  1  0  0  0
 25 26  2  0  0  0
 26 27  1  0  0  0
 27 28  2  0  0  0
 28 29  1  0  0  0
 29 30  2  0  0  0
 28 22  1  0  0  0
 22 23  2  0  0  0
 22 24  2  0  0  0
 22  1  1  0  0  0
  1  2  1  0  0  0
  2  3  1  0  0  0
  3  4  1  0  0  0
  4  5  1  0  0  0
  5  6  1  0  0  0
  6  7  1  0  0  0
  4  8  1  0  0  0
  8  9  1  0  0  0
  9 10  2  0  0  0
  9 12  1  0  0  0
 12 13  2  0  0  0
 13 14  1  0  0  0
 14 15  1  0  0  0
 15 16  2  0  0  0
 16 17  1  0  0  0
 17 18  2  0  0  0
 18 19  1  0  0  0
 19 20  2  0  0  0
 30 25  1  0  0  0
  7  1  1  0  0  0
 20 12  1  0  0  0
  6  3  1  0  0  0
 20 15  1  0  0  0
  8 11  1  0  0  0
 14 21  1  0  0  0
M  END
> <minimizedAffinity>
24.14133

> <CNNscore>
0.3962538838

> <CNNaffinity>
6.9567441940

> <CNN_VS>
2.7566368580

> <CNNaffinity_variance>
1.3857774734

$$$$
[H]c1c([H])c(S(=O)(=O)N2C([H])([H])[C@@]3([H])C([H])([H])[C@@]([H])(N([H])C(=O)c4c([H])n([H])c5c([H])c([H])c([H])c([H])c45)[C@]3([H])C2([H])[H])c([H])c([H])c1OC([H])([H])[H]


 32 36  0  0  0  0  0  0  0  0999 V2000
   12.1429   44.5023  133.6816 N   0  0  0  0  0  0  0  0  0  0  0  0
   10.9245   45.1062  134.2721 C   0  0  0  0  0  0  0  0  0  0  0  0
   10.8641   46.3300  133.4751 C   0  0  0  0  0  0  0  0  0  0  0  0
   10.5465   47.6727  133.8572 C   0  0  0  0  0  0  0  0  0  0  0  0
   11.9230   47.9966  133.1694 C   0  0  0  0  0  0  0  0  0  0  0  0
   12.3266   46.7663  133.7920 C   0  0  0  0  0  0  0  0  0  0  0  0
   12.9298   45.6060  133.1308 C   0  0  0  0  0  0  0  0  0  0  0  0
    9.4814   48.3300  133.1618 N   0  0  0  0  0  0  0  0  0  0  0  0
    9.5075   48.3908  131.7122 C   0  0  0  0  0  0  0  0  0  0  0  0
   10.4822   47.8459  131.1527 O   0  0  0  0  0  0  0  0  0  0  0  0
    8.6568   48.7806  133.6288 H   0  0  0  0  0  0  0  0  0  0  0  0
    8.4223   49.0472  131.0122 C   0  0  0  0  0  0  0  0  0  0  0  0
    8.2092   50.4256  130.8413 C   0  0  0  0  0  0  0  0  0  0  0  0
    7.1437   50.6040  130.0663 N   0  0  0  0  0  0  0  0  0  0  0  0
    6.6105   49.3955  129.6957 C   0  0  0  0  0  0  0  0  0  0  0  0
    5.5251   49.0488  128.9444 C   0  0  0  0  0  0  0  0  0  0  0  0
    5.2158   47.7091  128.7757 C   0  0  0  0  0  0  0  0  0  0  0  0
    6.0099   46.7237  129.3681 C   0  0  0  0  0  0  0  0  0  0  0  0
    7.0751   47.0956  130.1022 C   0  0  0  0  0  0  0  0  0  0  0  0
    7.4335   48.4332  130.3080 C   0  0  0  0  0  0  0  0  0  0  0  0
    6.7219   51.5167  129.7402 H   0  0  0  0  0  0  0  0  0  0  0  0
   11.6295   43.5609  132.3577 S   0  0  0  0  0  0  0  0  0  0  0  0
   11.6774   44.3200  131.0620 O   0  0  0  0  0  0  0  0  0  0  0  0
   12.5233   42.3428  132.1273 O   0  0  0  0  0  0  0  0  0  0  0  0
    7.4261   41.7732  132.9245 C   0  0  0  0  0  0  0  0  0  0  0  0
    8.3726   41.8646  133.9758 C   0  0  0  0  0  0  0  0  0  0  0  0
    9.6004   42.4149  133.7488 C   0  0  0  0  0  0  0  0  0  0  0  0
   10.0134   42.9124  132.5330 C   0  0  0  0  0  0  0  0  0  0  0  0
    9.1077   42.8281  131.5239 C   0  0  0  0  0  0  0  0  0  0  0  0
    7.8336   42.2689  131.7092 C   0  0  0  0  0  0  0  0  0  0  0  0
    5.5861   40.8142  134.3079 C   0  0  0  0  0  0  0  0  0  0  0  0
    6.1803   41.2184  133.1151 O   0  0  0  0  0  0  0  0  0  0  0  0
 31 32  1  0  0  0
 32 25  1  0  0  0
 25 26  2  0  0  0
 26 27  1  0  0  0
 27 28  2  0  0  0
 28 29  1  0  0  0
 29 30  2  0  0  0
 28 22  1  0  0  0
 22 23  2  0  0  0
 22 24  2  0  0  0
 22  1  1  0  0  0
  1  2  1  0  0  0
  2  3  1  0  0  0
  3  4  1  0  0  0
  4  5  1  0  0  0
  5  6  1  0  0  0
  6  7  1  0  0  0
  4  8  1  0  0  0
  8  9  1  0  0  0
  9 10  2  0  0  0
  9 12  1  0  0  0
 12 13  2  0  0  0
 13 14  1  0  0  0
 14 15  1  0  0  0
 15 16  2  0  0  0
 16 17  1  0  0  0
 17 18  2  0  0  0
 18 19  1  0  0  0
 19 20  2  0  0  0
 30 25  1  0  0  0
  7  1  1  0  0  0
 20 12  1  0  0  0
  6  3  1  0  0  0
 20 15  1  0  0  0
  8 11  1  0  0  0
 14 21  1  0  0  0
M  END
> <minimizedAffinity>
4.19534

> <CNNscore>
0.3881332576

> <CNNaffinity>
7.5170583725

> <CNN_VS>
2.9176204205

> <CNNaffinity_variance>
0.6422525644

$$$$
[H]c1c([H])c([H])c(-c2c([H])c([H])c(C(=O)N([H])[C@]3([H])C([H])([H])[C@@]4([H])C([H])([H])N(S(=O)(=O)c5c([H])c([H])c(OC([H])([H])[H])c([H])c5[H])[C@]([H])(C([H])([H])C4([H])[H])C3([H])[H])c([H])c2[H])c([H])c1[H]


 36 40  0  0  0  0  0  0  0  0999 V2000
    9.8835   46.1193  131.8109 N   0  0  0  0  0  0  0  0  0  0  0  0
    8.8926   46.3272  132.7718 C   0  0  0  0  0  0  0  0  0  0  0  0
    8.9501   47.7176  133.3295 C   0  0  0  0  0  0  0  0  0  0  0  0
   10.3024   47.9623  133.9461 C   0  0  0  0  0  0  0  0  0  0  0  0
   11.4020   47.4188  133.0757 C   0  0  0  0  0  0  0  0  0  0  0  0
   10.9279   47.0542  131.6914 C   0  0  0  0  0  0  0  0  0  0  0  0
   10.5706   48.3095  130.9385 C   0  0  0  0  0  0  0  0  0  0  0  0
    9.0808   48.5721  130.9534 C   0  0  0  0  0  0  0  0  0  0  0  0
    8.6277   48.8062  132.3533 C   0  0  0  0  0  0  0  0  0  0  0  0
    8.8486   49.8068  130.2145 N   0  0  0  0  0  0  0  0  0  0  0  0
    7.7991   49.8929  129.2689 C   0  0  0  0  0  0  0  0  0  0  0  0
    7.0657   48.8841  129.0719 O   0  0  0  0  0  0  0  0  0  0  0  0
    9.4690   50.6402  130.3874 H   0  0  0  0  0  0  0  0  0  0  0  0
    7.5172   51.0963  128.5026 C   0  0  0  0  0  0  0  0  0  0  0  0
    7.0026   52.2461  129.0663 C   0  0  0  0  0  0  0  0  0  0  0  0
    6.7480   53.3784  128.2942 C   0  0  0  0  0  0  0  0  0  0  0  0
    6.9974   53.4011  126.9393 C   0  0  0  0  0  0  0  0  0  0  0  0
    7.5107   52.2594  126.3673 C   0  0  0  0  0  0  0  0  0  0  0  0
    7.7600   51.1485  127.1279 C   0  0  0  0  0  0  0  0  0  0  0  0
    6.7167   54.6024  126.1612 C   0  0  0  0  0  0  0  0  0  0  0  0
    7.3634   54.8236  124.9553 C   0  0  0  0  0  0  0  0  0  0  0  0
    7.1144   55.9526  124.2013 C   0  0  0  0  0  0  0  0  0  0  0  0
    6.2056   56.9115  124.6220 C   0  0  0  0  0  0  0  0  0  0  0  0
    5.5629   56.6989  125.8133 C   0  0  0  0  0  0  0  0  0  0  0  0
    5.8135   55.5611  126.5736 C   0  0  0  0  0  0  0  0  0  0  0  0
   10.0425   44.6058  131.1294 S   0  0  0  0  0  0  0  0  0  0  0  0
    9.3370   44.5906  129.7801 O   0  0  0  0  0  0  0  0  0  0  0  0
   11.4254   44.1359  130.9042 O   0  0  0  0  0  0  0  0  0  0  0  0
    7.8294   41.5365  133.7083 C   0  0  0  0  0  0  0  0  0  0  0  0
    7.3507   41.9266  132.4811 C   0  0  0  0  0  0  0  0  0  0  0  0
    8.0126   42.8508  131.6998 C   0  0  0  0  0  0  0  0  0  0  0  0
    9.1951   43.4260  132.1257 C   0  0  0  0  0  0  0  0  0  0  0  0
    9.6758   43.0342  133.3583 C   0  0  0  0  0  0  0  0  0  0  0  0
    9.0070   42.0993  134.1494 C   0  0  0  0  0  0  0  0  0  0  0  0
    5.7415   40.6737  134.6939 C   0  0  0  0  0  0  0  0  0  0  0  0
    7.1121   40.5971  134.4497 O   0  0  0  0  0  0  0  0  0  0  0  0
 35 36  1  0  0  0
 36 29  1  0  0  0
 29 30  2  0  0  0
 30 31  1  0  0  0
 31 32  2  0  0  0
 32 33  1  0  0  0
 33 34  2  0  0  0
 32 26  1  0  0  0
 26 27  2  0  0  0
 26 28  2  0  0  0
 26  1  1  0  0  0
  1  2  1  0  0  0
  2  3  1  0  0  0
  3  4  1  0  0  0
  4  5  1  0  0  0
  5  6  1  0  0  0
  6  7  1  0  0  0
  7  8  1  0  0  0
  8  9  1  0  0  0
  8 10  1  0  0  0
 10 11  1  0  0  0
 11 12  2  0  0  0
 11 14  1  0  0  0
 14 15  2  0  0  0
 15 16  1  0  0  0
 16 17  2  0  0  0
 17 18  1  0  0  0
 18 19  2  0  0  0
 17 20  1  0  0  0
 20 21  2  0  0  0
 21 22  1  0  0  0
 22 23  2  0  0  0
 23 24  1  0  0  0
 24 25  2  0  0  0
 34 29  1  0  0  0
  6  1  1  0  0  0
 19 14  1  0  0  0
 25 20  1  0  0  0
  9  3  1  0  0  0
 10 13  1  0  0  0
M  END
> <minimizedAffinity>
14.13255

> <CNNscore>
0.4895147681

> <CNNaffinity>
7.0558595657

> <CNN_VS>
3.4539475441

> <CNNaffinity_variance>
1.0245568752

$$$$
[H]c1c([H])c([H])c(-c2c([H])c([H])c(C(=O)N([H])[C@]3([H])C([H])([H])[C@@]4([H])C([H])([H])N(S(=O)(=O)c5c([H])c([H])c(OC([H])([H])[H])c([H])c5[H])[C@]([H])(C([H])([H])C4([H])[H])C3([H])[H])c([H])c2[H])c([H])c1[H]


 36 40  0  0  0  0  0  0  0  0999 V2000
   10.2375   46.6436  132.6874 N   0  0  0  0  0  0  0  0  0  0  0  0
    8.8875   46.4113  132.9557 C   0  0  0  0  0  0  0  0  0  0  0  0
    8.1743   47.6770  133.3254 C   0  0  0  0  0  0  0  0  0  0  0  0
    8.8253   48.2920  134.5366 C   0  0  0  0  0  0  0  0  0  0  0  0
   10.3248   48.2365  134.4336 C   0  0  0  0  0  0  0  0  0  0  0  0
   10.8044   47.8792  133.0494 C   0  0  0  0  0  0  0  0  0  0  0  0
   10.5019   49.0149  132.1067 C   0  0  0  0  0  0  0  0  0  0  0  0
    9.2415   48.7653  131.3080 C   0  0  0  0  0  0  0  0  0  0  0  0
    8.0722   48.6910  132.2284 C   0  0  0  0  0  0  0  0  0  0  0  0
    9.0362   49.9218  130.4451 N   0  0  0  0  0  0  0  0  0  0  0  0
    7.7969   50.1208  129.7912 C   0  0  0  0  0  0  0  0  0  0  0  0
    6.8698   49.2812  129.9639 O   0  0  0  0  0  0  0  0  0  0  0  0
    9.8187   50.6135  130.3085 H   0  0  0  0  0  0  0  0  0  0  0  0
    7.5315   51.2546  128.9201 C   0  0  0  0  0  0  0  0  0  0  0  0
    7.1374   52.4909  129.3902 C   0  0  0  0  0  0  0  0  0  0  0  0
    6.8942   53.5516  128.5192 C   0  0  0  0  0  0  0  0  0  0  0  0
    7.0356   53.4147  127.1555 C   0  0  0  0  0  0  0  0  0  0  0  0
    7.4284   52.1858  126.6763 C   0  0  0  0  0  0  0  0  0  0  0  0
    7.6667   51.1455  127.5339 C   0  0  0  0  0  0  0  0  0  0  0  0
    6.7704   54.5452  126.2728 C   0  0  0  0  0  0  0  0  0  0  0  0
    5.8902   55.5442  126.6584 C   0  0  0  0  0  0  0  0  0  0  0  0
    5.6233   56.6237  125.8406 C   0  0  0  0  0  0  0  0  0  0  0  0
    6.2269   56.7508  124.5988 C   0  0  0  0  0  0  0  0  0  0  0  0
    7.0980   55.7666  124.2116 C   0  0  0  0  0  0  0  0  0  0  0  0
    7.3674   54.6784  125.0356 C   0  0  0  0  0  0  0  0  0  0  0  0
   11.2262   45.3469  132.3391 S   0  0  0  0  0  0  0  0  0  0  0  0
   12.2369   45.7621  131.2786 O   0  0  0  0  0  0  0  0  0  0  0  0
   11.9895   44.7877  133.4743 O   0  0  0  0  0  0  0  0  0  0  0  0
    8.7271   42.0040  130.4556 C   0  0  0  0  0  0  0  0  0  0  0  0
    8.7218   42.2326  131.8102 C   0  0  0  0  0  0  0  0  0  0  0  0
    9.4725   43.2378  132.3835 C   0  0  0  0  0  0  0  0  0  0  0  0
   10.2673   44.0622  131.6093 C   0  0  0  0  0  0  0  0  0  0  0  0
   10.2726   43.8324  130.2489 C   0  0  0  0  0  0  0  0  0  0  0  0
    9.5135   42.8159  129.6679 C   0  0  0  0  0  0  0  0  0  0  0  0
    8.3877   39.6584  129.7788 C   0  0  0  0  0  0  0  0  0  0  0  0
    7.9450   40.9708  129.9382 O   0  0  0  0  0  0  0  0  0  0  0  0
 35 36  1  0  0  0
 36 29  1  0  0  0
 29 30  2  0  0  0
 30 31  1  0  0  0
 31 32  2  0  0  0
 32 33  1  0  0  0
 33 34  2  0  0  0
 32 26  1  0  0  0
 26 27  2  0  0  0
 26 28  2  0  0  0
 26  1  1  0  0  0
  1  2  1  0  0  0
  2  3  1  0  0  0
  3  4  1  0  0  0
  4  5  1  0  0  0
  5  6  1  0  0  0
  6  7  1  0  0  0
  7  8  1  0  0  0
  8  9  1  0  0  0
  8 10  1  0  0  0
 10 11  1  0  0  0
 11 12  2  0  0  0
 11 14  1  0  0  0
 14 15  2  0  0  0
 15 16  1  0  0  0
 16 17  2  0  0  0
 17 18  1  0  0  0
 18 19  2  0  0  0
 17 20  1  0  0  0
 20 21  2  0  0  0
 21 22  1  0  0  0
 22 23  2  0  0  0
 23 24  1  0  0  0
 24 25  2  0  0  0
 34 29  1  0  0  0
  6  1  1  0  0  0
 19 14  1  0  0  0
 25 20  1  0  0  0
  9  3  1  0  0  0
 10 13  1  0  0  0
M  END
> <minimizedAffinity>
13.37212

> <CNNscore>
0.4412611127

> <CNNaffinity>
7.0859665871

> <CNN_VS>
3.1267614365

> <CNNaffinity_variance>
0.9030805826

$$$$
[H]c1c([H])c([H])c(-c2c([H])c([H])c(C(=O)N([H])[C@]3([H])C([H])([H])[C@@]4([H])C([H])([H])N(S(=O)(=O)c5c([H])c([H])c(OC([H])([H])[H])c([H])c5[H])[C@]([H])(C([H])([H])C4([H])[H])C3([H])[H])c([H])c2[H])c([H])c1[H]


 36 40  0  0  0  0  0  0  0  0999 V2000
    9.3022   44.6973  131.2099 N   0  0  0  0  0  0  0  0  0  0  0  0
   10.4921   44.4699  130.5165 C   0  0  0  0  0  0  0  0  0  0  0  0
   10.3101   44.6461  129.0389 C   0  0  0  0  0  0  0  0  0  0  0  0
    9.2524   43.6966  128.5403 C   0  0  0  0  0  0  0  0  0  0  0  0
    8.0766   43.6536  129.4771 C   0  0  0  0  0  0  0  0  0  0  0  0
    8.0946   44.7689  130.4919 C   0  0  0  0  0  0  0  0  0  0  0  0
    7.8488   46.0823  129.7958 C   0  0  0  0  0  0  0  0  0  0  0  0
    9.1367   46.8309  129.5317 C   0  0  0  0  0  0  0  0  0  0  0  0
    9.9924   46.0424  128.6012 C   0  0  0  0  0  0  0  0  0  0  0  0
    8.7880   48.0704  128.8486 N   0  0  0  0  0  0  0  0  0  0  0  0
    8.1148   49.1070  129.5380 C   0  0  0  0  0  0  0  0  0  0  0  0
    7.8182   48.9438  130.7544 O   0  0  0  0  0  0  0  0  0  0  0  0
    9.0400   48.1926  127.8333 H   0  0  0  0  0  0  0  0  0  0  0  0
    7.7419   50.3655  128.9119 C   0  0  0  0  0  0  0  0  0  0  0  0
    7.2920   51.4584  129.6247 C   0  0  0  0  0  0  0  0  0  0  0  0
    6.9458   52.6468  128.9839 C   0  0  0  0  0  0  0  0  0  0  0  0
    7.0366   52.7840  127.6159 C   0  0  0  0  0  0  0  0  0  0  0  0
    7.4842   51.7000  126.8957 C   0  0  0  0  0  0  0  0  0  0  0  0
    7.8238   50.5337  127.5275 C   0  0  0  0  0  0  0  0  0  0  0  0
    6.6635   54.0415  126.9779 C   0  0  0  0  0  0  0  0  0  0  0  0
    7.5785   55.0784  126.8842 C   0  0  0  0  0  0  0  0  0  0  0  0
    7.2490   56.2774  126.2849 C   0  0  0  0  0  0  0  0  0  0  0  0
    5.9869   56.4913  125.7522 C   0  0  0  0  0  0  0  0  0  0  0  0
    5.0777   55.4702  125.8416 C   0  0  0  0  0  0  0  0  0  0  0  0
    5.4093   54.2615  126.4455 C   0  0  0  0  0  0  0  0  0  0  0  0
    9.2737   44.4682  132.8613 S   0  0  0  0  0  0  0  0  0  0  0  0
    8.0976   45.2355  133.4502 O   0  0  0  0  0  0  0  0  0  0  0  0
    9.1565   43.0688  133.3218 O   0  0  0  0  0  0  0  0  0  0  0  0
   13.0330   46.3146  134.7124 C   0  0  0  0  0  0  0  0  0  0  0  0
   12.9736   44.9840  134.3762 C   0  0  0  0  0  0  0  0  0  0  0  0
   11.8442   44.4219  133.8185 C   0  0  0  0  0  0  0  0  0  0  0  0
   10.7169   45.1836  133.5740 C   0  0  0  0  0  0  0  0  0  0  0  0
   10.7766   46.5200  133.9118 C   0  0  0  0  0  0  0  0  0  0  0  0
   11.9187   47.0895  134.4759 C   0  0  0  0  0  0  0  0  0  0  0  0
   14.2706   47.9943  136.0247 C   0  0  0  0  0  0  0  0  0  0  0  0
   14.2057   46.8217  135.2733 O   0  0  0  0  0  0  0  0  0  0  0  0
 35 36  1  0  0  0
 36 29  1  0  0  0
 29 30  2  0  0  0
 30 31  1  0  0  0
 31 32  2  0  0  0
 32 33  1  0  0  0
 33 34  2  0  0  0
 32 26  1  0  0  0
 26 27  2  0  0  0
 26 28  2  0  0  0
 26  1  1  0  0  0
  1  2  1  0  0  0
  2  3  1  0  0  0
  3  4  1  0  0  0
  4  5  1  0  0  0
  5  6  1  0  0  0
  6  7  1  0  0  0
  7  8  1  0  0  0
  8  9  1  0  0  0
  8 10  1  0  0  0
 10 11  1  0  0  0
 11 12  2  0  0  0
 11 14  1  0  0  0
 14 15  2  0  0  0
 15 16  1  0  0  0
 16 17  2  0  0  0
 17 18  1  0  0  0
 18 19  2  0  0  0
 17 20  1  0  0  0
 20 21  2  0  0  0
 21 22  1  0  0  0
 22 23  2  0  0  0
 23 24  1  0  0  0
 24 25  2  0  0  0
 34 29  1  0  0  0
  6  1  1  0  0  0
 19 14  1  0  0  0
 25 20  1  0  0  0
  9  3  1  0  0  0
 10 13  1  0  0  0
M  END
> <minimizedAffinity>
12.44769

> <CNNscore>
0.4323121011

> <CNNaffinity>
7.2257957458

> <CNN_VS>
3.1237988472

> <CNNaffinity_variance>
0.7737239003

$$$$
[H]c1c([H])c([H])c(-c2c([H])c([H])c(C(=O)N([H])[C@]3([H])C([H])([H])[C@@]4([H])C([H])([H])N(S(=O)(=O)c5c([H])c([H])c(OC([H])([H])[H])c([H])c5[H])[C@]([H])(C([H])([H])C4([H])[H])C3([H])[H])c([H])c2[H])c([H])c1[H]


 36 40  0  0  0  0  0  0  0  0999 V2000
    9.0802   46.7790  133.1293 N   0  0  0  0  0  0  0  0  0  0  0  0
    8.7710   47.6528  134.1730 C   0  0  0  0  0  0  0  0  0  0  0  0
    9.5617   48.9230  134.0796 C   0  0  0  0  0  0  0  0  0  0  0  0
   11.0344   48.6083  134.1119 C   0  0  0  0  0  0  0  0  0  0  0  0
   11.3541   47.4186  133.2491 C   0  0  0  0  0  0  0  0  0  0  0  0
   10.2159   47.0321  132.3386 C   0  0  0  0  0  0  0  0  0  0  0  0
   10.0317   48.0968  131.2886 C   0  0  0  0  0  0  0  0  0  0  0  0
    8.9090   49.0481  131.6401 C   0  0  0  0  0  0  0  0  0  0  0  0
    9.2470   49.7802  132.8930 C   0  0  0  0  0  0  0  0  0  0  0  0
    8.8264   50.0377  130.5732 N   0  0  0  0  0  0  0  0  0  0  0  0
    7.5689   50.4793  130.0971 C   0  0  0  0  0  0  0  0  0  0  0  0
    6.5171   50.0031  130.6083 O   0  0  0  0  0  0  0  0  0  0  0  0
    9.7118   50.4255  130.1545 H   0  0  0  0  0  0  0  0  0  0  0  0
    7.4220   51.4642  129.0373 C   0  0  0  0  0  0  0  0  0  0  0  0
    7.4487   51.1389  127.6964 C   0  0  0  0  0  0  0  0  0  0  0  0
    7.3031   52.1155  126.7126 C   0  0  0  0  0  0  0  0  0  0  0  0
    7.1266   53.4441  127.0326 C   0  0  0  0  0  0  0  0  0  0  0  0
    7.0984   53.7790  128.3672 C   0  0  0  0  0  0  0  0  0  0  0  0
    7.2416   52.8178  129.3317 C   0  0  0  0  0  0  0  0  0  0  0  0
    6.9798   54.4402  125.9773 C   0  0  0  0  0  0  0  0  0  0  0  0
    7.6024   54.2602  124.7520 C   0  0  0  0  0  0  0  0  0  0  0  0
    7.4782   55.1887  123.7381 C   0  0  0  0  0  0  0  0  0  0  0  0
    6.7241   56.3399  123.9066 C   0  0  0  0  0  0  0  0  0  0  0  0
    6.1060   56.5238  125.1155 C   0  0  0  0  0  0  0  0  0  0  0  0
    6.2308   55.5883  126.1377 C   0  0  0  0  0  0  0  0  0  0  0  0
    8.3678   45.2717  133.1005 S   0  0  0  0  0  0  0  0  0  0  0  0
    8.9793   44.4109  134.1977 O   0  0  0  0  0  0  0  0  0  0  0  0
    6.9022   45.2413  133.2876 O   0  0  0  0  0  0  0  0  0  0  0  0
    9.3938   43.1934  129.1512 C   0  0  0  0  0  0  0  0  0  0  0  0
    8.5844   44.3026  129.1935 C   0  0  0  0  0  0  0  0  0  0  0  0
    8.2716   44.9329  130.3799 C   0  0  0  0  0  0  0  0  0  0  0  0
    8.7654   44.4680  131.5844 C   0  0  0  0  0  0  0  0  0  0  0  0
    9.5782   43.3540  131.5418 C   0  0  0  0  0  0  0  0  0  0  0  0
    9.8954   42.7157  130.3422 C   0  0  0  0  0  0  0  0  0  0  0  0
   10.6084   43.0925  127.0089 C   0  0  0  0  0  0  0  0  0  0  0  0
    9.6721   42.6024  127.9183 O   0  0  0  0  0  0  0  0  0  0  0  0
 35 36  1  0  0  0
 36 29  1  0  0  0
 29 30  2  0  0  0
 30 31  1  0  0  0
 31 32  2  0  0  0
 32 33  1  0  0  0
 33 34  2  0  0  0
 32 26  1  0  0  0
 26 27  2  0  0  0
 26 28  2  0  0  0
 26  1  1  0  0  0
  1  2  1  0  0  0
  2  3  1  0  0  0
  3  4  1  0  0  0
  4  5  1  0  0  0
  5  6  1  0  0  0
  6  7  1  0  0  0
  7  8  1  0  0  0
  8  9  1  0  0  0
  8 10  1  0  0  0
 10 11  1  0  0  0
 11 12  2  0  0  0
 11 14  1  0  0  0
 14 15  2  0  0  0
 15 16  1  0  0  0
 16 17  2  0  0  0
 17 18  1  0  0  0
 18 19  2  0  0  0
 17 20  1  0  0  0
 20 21  2  0  0  0
 21 22  1  0  0  0
 22 23  2  0  0  0
 23 24  1  0  0  0
 24 25  2  0  0  0
 34 29  1  0  0  0
  6  1  1  0  0  0
 19 14  1  0  0  0
 25 20  1  0  0  0
  9  3  1  0  0  0
 10 13  1  0  0  0
M  END
> <minimizedAffinity>
8.73207

> <CNNscore>
0.4187560976

> <CNNaffinity>
6.9614830017

> <CNN_VS>
2.9151635170

> <CNNaffinity_variance>
0.7388641238

$$$$
[H]c1c([H])c([H])c(-c2c([H])c([H])c(C(=O)N([H])[C@]3([H])C([H])([H])[C@@]4([H])C([H])([H])N(S(=O)(=O)c5c([H])c([H])c(OC([H])([H])[H])c([H])c5[H])[C@]([H])(C([H])([H])C4([H])[H])C3([H])[H])c([H])c2[H])c([H])c1[H]


 36 40  0  0  0  0  0  0  0  0999 V2000
    9.3557   45.4294  133.0979 N   0  0  0  0  0  0  0  0  0  0  0  0
    8.2203   45.6262  133.8857 C   0  0  0  0  0  0  0  0  0  0  0  0
    8.1717   47.0171  134.4429 C   0  0  0  0  0  0  0  0  0  0  0  0
    9.4039   47.2768  135.2695 C   0  0  0  0  0  0  0  0  0  0  0  0
   10.6356   46.7456  134.5891 C   0  0  0  0  0  0  0  0  0  0  0  0
   10.3953   46.3759  133.1471 C   0  0  0  0  0  0  0  0  0  0  0  0
   10.1507   47.6271  132.3441 C   0  0  0  0  0  0  0  0  0  0  0  0
    8.6753   47.8731  132.1176 C   0  0  0  0  0  0  0  0  0  0  0  0
    7.9994   48.1022  133.4256 C   0  0  0  0  0  0  0  0  0  0  0  0
    8.5520   49.1052  131.3487 N   0  0  0  0  0  0  0  0  0  0  0  0
    7.6291   49.1970  130.2797 C   0  0  0  0  0  0  0  0  0  0  0  0
    6.9132   48.1955  129.9989 O   0  0  0  0  0  0  0  0  0  0  0  0
    9.1565   49.9325  131.5927 H   0  0  0  0  0  0  0  0  0  0  0  0
    7.4595   50.3981  129.4777 C   0  0  0  0  0  0  0  0  0  0  0  0
    7.2478   51.6471  130.0254 C   0  0  0  0  0  0  0  0  0  0  0  0
    7.0912   52.7731  129.2189 C   0  0  0  0  0  0  0  0  0  0  0  0
    7.1403   52.6908  127.8443 C   0  0  0  0  0  0  0  0  0  0  0  0
    7.3511   51.4497  127.2880 C   0  0  0  0  0  0  0  0  0  0  0  0
    7.5047   50.3452  128.0824 C   0  0  0  0  0  0  0  0  0  0  0  0
    6.9699   53.8892  127.0306 C   0  0  0  0  0  0  0  0  0  0  0  0
    8.0620   54.6808  126.7112 C   0  0  0  0  0  0  0  0  0  0  0  0
    7.9258   55.8193  125.9426 C   0  0  0  0  0  0  0  0  0  0  0  0
    6.6883   56.2160  125.4592 C   0  0  0  0  0  0  0  0  0  0  0  0
    5.6047   55.4378  125.7714 C   0  0  0  0  0  0  0  0  0  0  0  0
    5.7414   54.2902  126.5460 C   0  0  0  0  0  0  0  0  0  0  0  0
    9.6393   43.9178  132.4537 S   0  0  0  0  0  0  0  0  0  0  0  0
   10.1725   43.0023  133.5475 O   0  0  0  0  0  0  0  0  0  0  0  0
    8.4743   43.2404  131.8471 O   0  0  0  0  0  0  0  0  0  0  0  0
   12.9881   44.2004  129.3435 C   0  0  0  0  0  0  0  0  0  0  0  0
   13.2581   44.0809  130.6851 C   0  0  0  0  0  0  0  0  0  0  0  0
   12.2538   43.9955  131.6268 C   0  0  0  0  0  0  0  0  0  0  0  0
   10.9234   44.0273  131.2531 C   0  0  0  0  0  0  0  0  0  0  0  0
   10.6523   44.1474  129.9056 C   0  0  0  0  0  0  0  0  0  0  0  0
   11.6676   44.2338  128.9522 C   0  0  0  0  0  0  0  0  0  0  0  0
   15.3427   43.8362  128.7124 C   0  0  0  0  0  0  0  0  0  0  0  0
   14.0497   44.2821  128.4418 O   0  0  0  0  0  0  0  0  0  0  0  0
 35 36  1  0  0  0
 36 29  1  0  0  0
 29 30  2  0  0  0
 30 31  1  0  0  0
 31 32  2  0  0  0
 32 33  1  0  0  0
 33 34  2  0  0  0
 32 26  1  0  0  0
 26 27  2  0  0  0
 26 28  2  0  0  0
 26  1  1  0  0  0
  1  2  1  0  0  0
  2  3  1  0  0  0
  3  4  1  0  0  0
  4  5  1  0  0  0
  5  6  1  0  0  0
  6  7  1  0  0  0
  7  8  1  0  0  0
  8  9  1  0  0  0
  8 10  1  0  0  0
 10 11  1  0  0  0
 11 12  2  0  0  0
 11 14  1  0  0  0
 14 15  2  0  0  0
 15 16  1  0  0  0
 16 17  2  0  0  0
 17 18  1  0  0  0
 18 19  2  0  0  0
 17 20  1  0  0  0
 20 21  2  0  0  0
 21 22  1  0  0  0
 22 23  2  0  0  0
 23 24  1  0  0  0
 24 25  2  0  0  0
 34 29  1  0  0  0
  6  1  1  0  0  0
 19 14  1  0  0  0
 25 20  1  0  0  0
  9  3  1  0  0  0
 10 13  1  0  0  0
M  END
> <minimizedAffinity>
6.50800

> <CNNscore>
0.3923454583

> <CNNaffinity>
7.0885286331

> <CNN_VS>
2.7811520100

> <CNNaffinity_variance>
0.2805512547

$$$$
[H]c1c([H])c([H])c(-c2c([H])c([H])c(C(=O)N([H])[C@]3([H])C([H])([H])[C@@]4([H])C([H])([H])N(S(=O)(=O)c5c([H])c([H])c(OC([H])([H])[H])c([H])c5[H])[C@]([H])(C([H])([H])C4([H])[H])C3([H])[H])c([H])c2[H])c([H])c1[H]


 36 40  0  0  0  0  0  0  0  0999 V2000
    9.6216   43.8851  130.9044 N   0  0  0  0  0  0  0  0  0  0  0  0
   10.9427   43.8531  130.4547 C   0  0  0  0  0  0  0  0  0  0  0  0
   11.0406   44.2325  129.0077 C   0  0  0  0  0  0  0  0  0  0  0  0
   10.2080   43.2907  128.1779 C   0  0  0  0  0  0  0  0  0  0  0  0
    8.8804   43.0210  128.8312 C   0  0  0  0  0  0  0  0  0  0  0  0
    8.5800   43.9714  129.9627 C   0  0  0  0  0  0  0  0  0  0  0  0
    8.3421   45.3515  129.4067 C   0  0  0  0  0  0  0  0  0  0  0  0
    9.5717   46.2256  129.5204 C   0  0  0  0  0  0  0  0  0  0  0  0
   10.6726   45.6504  128.6976 C   0  0  0  0  0  0  0  0  0  0  0  0
    9.2385   47.5229  128.9456 N   0  0  0  0  0  0  0  0  0  0  0  0
    8.2522   48.3430  129.5437 C   0  0  0  0  0  0  0  0  0  0  0  0
    7.6622   47.9351  130.5829 O   0  0  0  0  0  0  0  0  0  0  0  0
    9.7373   47.8502  128.0776 H   0  0  0  0  0  0  0  0  0  0  0  0
    7.8775   49.6462  129.0185 C   0  0  0  0  0  0  0  0  0  0  0  0
    7.5628   50.7220  129.8238 C   0  0  0  0  0  0  0  0  0  0  0  0
    7.2095   51.9548  129.2779 C   0  0  0  0  0  0  0  0  0  0  0  0
    7.1587   52.1548  127.9155 C   0  0  0  0  0  0  0  0  0  0  0  0
    7.4708   51.0884  127.1035 C   0  0  0  0  0  0  0  0  0  0  0  0
    7.8176   49.8783  127.6422 C   0  0  0  0  0  0  0  0  0  0  0  0
    6.7826   53.4576  127.3783 C   0  0  0  0  0  0  0  0  0  0  0  0
    7.6955   54.5006  127.3653 C   0  0  0  0  0  0  0  0  0  0  0  0
    7.3629   55.7422  126.8621 C   0  0  0  0  0  0  0  0  0  0  0  0
    6.0999   55.9946  126.3489 C   0  0  0  0  0  0  0  0  0  0  0  0
    5.1928   54.9679  126.3589 C   0  0  0  0  0  0  0  0  0  0  0  0
    5.5274   53.7162  126.8659 C   0  0  0  0  0  0  0  0  0  0  0  0
    9.2894   43.4119  132.4684 S   0  0  0  0  0  0  0  0  0  0  0  0
    7.9405   42.7060  132.4992 O   0  0  0  0  0  0  0  0  0  0  0  0
   10.2719   42.5034  133.0956 O   0  0  0  0  0  0  0  0  0  0  0  0
    8.7983   47.1285  135.0979 C   0  0  0  0  0  0  0  0  0  0  0  0
    7.9635   46.8814  134.0352 C   0  0  0  0  0  0  0  0  0  0  0  0
    8.1064   45.7639  133.2394 C   0  0  0  0  0  0  0  0  0  0  0  0
    9.1054   44.8400  133.4828 C   0  0  0  0  0  0  0  0  0  0  0  0
    9.9439   45.0883  134.5500 C   0  0  0  0  0  0  0  0  0  0  0  0
    9.8000   46.2185  135.3557 C   0  0  0  0  0  0  0  0  0  0  0  0
    7.3512   48.8406  136.1223 C   0  0  0  0  0  0  0  0  0  0  0  0
    8.6003   48.2776  135.8642 O   0  0  0  0  0  0  0  0  0  0  0  0
 35 36  1  0  0  0
 36 29  1  0  0  0
 29 30  2  0  0  0
 30 31  1  0  0  0
 31 32  2  0  0  0
 32 33  1  0  0  0
 33 34  2  0  0  0
 32 26  1  0  0  0
 26 27  2  0  0  0
 26 28  2  0  0  0
 26  1  1  0  0  0
  1  2  1  0  0  0
  2  3  1  0  0  0
  3  4  1  0  0  0
  4  5  1  0  0  0
  5  6  1  0  0  0
  6  7  1  0  0  0
  7  8  1  0  0  0
  8  9  1  0  0  0
  8 10  1  0  0  0
 10 11  1  0  0  0
 11 12  2  0  0  0
 11 14  1  0  0  0
 14 15  2  0  0  0
 15 16  1  0  0  0
 16 17  2  0  0  0
 17 18  1  0  0  0
 18 19  2  0  0  0
 17 20  1  0  0  0
 20 21  2  0  0  0
 21 22  1  0  0  0
 22 23  2  0  0  0
 23 24  1  0  0  0
 24 25  2  0  0  0
 34 29  1  0  0  0
  6  1  1  0  0  0
 19 14  1  0  0  0
 25 20  1  0  0  0
  9  3  1  0  0  0
 10 13  1  0  0  0
M  END
> <minimizedAffinity>
11.62839

> <CNNscore>
0.3507843614

> <CNNaffinity>
7.1371674538

> <CNN_VS>
2.5036067963

> <CNNaffinity_variance>
0.2424475849

$$$$
[H]c1c([H])c([H])c(-c2c([H])c([H])c(C(=O)N([H])[C@]3([H])C([H])([H])[C@@]4([H])C([H])([H])N(S(=O)(=O)c5c([H])c([H])c(OC([H])([H])[H])c([H])c5[H])[C@]([H])(C([H])([H])C4([H])[H])C3([H])[H])c([H])c2[H])c([H])c1[H]


 36 40  0  0  0  0  0  0  0  0999 V2000
    9.4671   45.2180  133.4417 N   0  0  0  0  0  0  0  0  0  0  0  0
    8.4099   45.4956  134.3098 C   0  0  0  0  0  0  0  0  0  0  0  0
    8.4582   46.9114  134.8005 C   0  0  0  0  0  0  0  0  0  0  0  0
    9.7641   47.1594  135.5090 C   0  0  0  0  0  0  0  0  0  0  0  0
   10.9143   46.5491  134.7562 C   0  0  0  0  0  0  0  0  0  0  0  0
   10.5404   46.1237  133.3587 C   0  0  0  0  0  0  0  0  0  0  0  0
   10.2739   47.3457  132.5184 C   0  0  0  0  0  0  0  0  0  0  0  0
    8.7944   47.6395  132.4026 C   0  0  0  0  0  0  0  0  0  0  0  0
    8.2397   47.9548  133.7490 C   0  0  0  0  0  0  0  0  0  0  0  0
    8.6510   48.8391  131.5872 N   0  0  0  0  0  0  0  0  0  0  0  0
    7.7291   48.8736  130.5139 C   0  0  0  0  0  0  0  0  0  0  0  0
    7.0319   47.8495  130.2702 O   0  0  0  0  0  0  0  0  0  0  0  0
    9.2401   49.6858  131.8005 H   0  0  0  0  0  0  0  0  0  0  0  0
    7.5400   50.0402  129.6665 C   0  0  0  0  0  0  0  0  0  0  0  0
    7.5775   49.9851  128.2879 C   0  0  0  0  0  0  0  0  0  0  0  0
    7.3901   51.1286  127.5134 C   0  0  0  0  0  0  0  0  0  0  0  0
    7.1599   52.3605  128.0861 C   0  0  0  0  0  0  0  0  0  0  0  0
    7.1205   52.4263  129.4602 C   0  0  0  0  0  0  0  0  0  0  0  0
    7.3048   51.3015  130.2189 C   0  0  0  0  0  0  0  0  0  0  0  0
    6.9705   53.5372  127.2453 C   0  0  0  0  0  0  0  0  0  0  0  0
    8.0553   54.3175  126.8768 C   0  0  0  0  0  0  0  0  0  0  0  0
    7.9011   55.4353  126.0819 C   0  0  0  0  0  0  0  0  0  0  0  0
    6.6523   55.8217  125.6199 C   0  0  0  0  0  0  0  0  0  0  0  0
    5.5757   55.0547  125.9806 C   0  0  0  0  0  0  0  0  0  0  0  0
    5.7305   53.9279  126.7818 C   0  0  0  0  0  0  0  0  0  0  0  0
    9.6411   43.6685  132.8510 S   0  0  0  0  0  0  0  0  0  0  0  0
   10.9048   43.0517  133.4354 O   0  0  0  0  0  0  0  0  0  0  0  0
    8.5296   42.7362  133.1332 O   0  0  0  0  0  0  0  0  0  0  0  0
   10.3329   43.8430  128.3278 C   0  0  0  0  0  0  0  0  0  0  0  0
   11.3142   44.1967  129.2216 C   0  0  0  0  0  0  0  0  0  0  0  0
   11.1119   44.1465  130.5851 C   0  0  0  0  0  0  0  0  0  0  0  0
    9.9015   43.7341  131.1102 C   0  0  0  0  0  0  0  0  0  0  0  0
    8.9159   43.3789  130.2123 C   0  0  0  0  0  0  0  0  0  0  0  0
    9.1197   43.4293  128.8329 C   0  0  0  0  0  0  0  0  0  0  0  0
   10.3647   45.0437  126.1755 C   0  0  0  0  0  0  0  0  0  0  0  0
   10.6012   43.9159  126.9605 O   0  0  0  0  0  0  0  0  0  0  0  0
 35 36  1  0  0  0
 36 29  1  0  0  0
 29 30  2  0  0  0
 30 31  1  0  0  0
 31 32  2  0  0  0
 32 33  1  0  0  0
 33 34  2  0  0  0
 32 26  1  0  0  0
 26 27  2  0  0  0
 26 28  2  0  0  0
 26  1  1  0  0  0
  1  2  1  0  0  0
  2  3  1  0  0  0
  3  4  1  0  0  0
  4  5  1  0  0  0
  5  6  1  0  0  0
  6  7  1  0  0  0
  7  8  1  0  0  0
  8  9  1  0  0  0
  8 10  1  0  0  0
 10 11  1  0  0  0
 11 12  2  0  0  0
 11 14  1  0  0  0
 14 15  2  0  0  0
 15 16  1  0  0  0
 16 17  2  0  0  0
 17 18  1  0  0  0
 18 19  2  0  0  0
 17 20  1  0  0  0
 20 21  2  0  0  0
 21 22  1  0  0  0
 22 23  2  0  0  0
 23 24  1  0  0  0
 24 25  2  0  0  0
 34 29  1  0  0  0
  6  1  1  0  0  0
 19 14  1  0  0  0
 25 20  1  0  0  0
  9  3  1  0  0  0
 10 13  1  0  0  0
M  END
> <minimizedAffinity>
6.50326

> <CNNscore>
0.2817524970

> <CNNaffinity>
7.0925455093

> <CNN_VS>
1.9983423948

> <CNNaffinity_variance>
0.1473601907

$$$$
[H]c1c([H])c([H])c(-c2c([H])c([H])c(C(=O)N([H])[C@]3([H])C([H])([H])[C@@]4([H])C([H])([H])N(S(=O)(=O)c5c([H])c([H])c(OC([H])([H])[H])c([H])c5[H])[C@]([H])(C([H])([H])C4([H])[H])C3([H])[H])c([H])c2[H])c([H])c1[H]


 36 40  0  0  0  0  0  0  0  0999 V2000
   10.3005   45.0045  132.7923 N   0  0  0  0  0  0  0  0  0  0  0  0
   10.0603   43.7148  132.3153 C   0  0  0  0  0  0  0  0  0  0  0  0
   11.3250   43.0538  131.8559 C   0  0  0  0  0  0  0  0  0  0  0  0
   11.9628   43.8776  130.7680 C   0  0  0  0  0  0  0  0  0  0  0  0
   11.9187   45.3436  131.1010 C   0  0  0  0  0  0  0  0  0  0  0  0
   11.5459   45.6073  132.5381 C   0  0  0  0  0  0  0  0  0  0  0  0
   12.6655   45.1505  133.4371 C   0  0  0  0  0  0  0  0  0  0  0  0
   12.3936   43.7845  134.0278 C   0  0  0  0  0  0  0  0  0  0  0  0
   12.3224   42.7724  132.9367 C   0  0  0  0  0  0  0  0  0  0  0  0
   13.5360   43.4359  134.8632 N   0  0  0  0  0  0  0  0  0  0  0  0
   13.3456   42.9909  136.1932 C   0  0  0  0  0  0  0  0  0  0  0  0
   12.1713   42.9008  136.6484 O   0  0  0  0  0  0  0  0  0  0  0  0
   14.5103   43.5172  134.4714 H   0  0  0  0  0  0  0  0  0  0  0  0
   14.4442   42.6277  137.0741 C   0  0  0  0  0  0  0  0  0  0  0  0
   15.7141   43.1541  136.9526 C   0  0  0  0  0  0  0  0  0  0  0  0
   16.7385   42.7784  137.8200 C   0  0  0  0  0  0  0  0  0  0  0  0
   16.5307   41.8685  138.8336 C   0  0  0  0  0  0  0  0  0  0  0  0
   15.2677   41.3375  138.9634 C   0  0  0  0  0  0  0  0  0  0  0  0
   14.2631   41.7082  138.1102 C   0  0  0  0  0  0  0  0  0  0  0  0
   17.6262   41.4960  139.7217 C   0  0  0  0  0  0  0  0  0  0  0  0
   17.6501   40.2455  140.3191 C   0  0  0  0  0  0  0  0  0  0  0  0
   18.6760   39.8702  141.1629 C   0  0  0  0  0  0  0  0  0  0  0  0
   19.7247   40.7317  141.4462 C   0  0  0  0  0  0  0  0  0  0  0  0
   19.7071   41.9695  140.8589 C   0  0  0  0  0  0  0  0  0  0  0  0
   18.6734   42.3482  140.0083 C   0  0  0  0  0  0  0  0  0  0  0  0
    9.0076   45.9413  133.2729 S   0  0  0  0  0  0  0  0  0  0  0  0
    7.7894   45.0481  133.4646 O   0  0  0  0  0  0  0  0  0  0  0  0
    9.1886   46.7070  134.5239 O   0  0  0  0  0  0  0  0  0  0  0  0
    7.9127   48.8547  129.9139 C   0  0  0  0  0  0  0  0  0  0  0  0
    8.5866   49.2691  131.0370 C   0  0  0  0  0  0  0  0  0  0  0  0
    8.9191   48.3966  132.0522 C   0  0  0  0  0  0  0  0  0  0  0  0
    8.5835   47.0576  131.9781 C   0  0  0  0  0  0  0  0  0  0  0  0
    7.9066   46.6415  130.8501 C   0  0  0  0  0  0  0  0  0  0  0  0
    7.5699   47.5234  129.8226 C   0  0  0  0  0  0  0  0  0  0  0  0
    7.0796   51.0536  129.1754 C   0  0  0  0  0  0  0  0  0  0  0  0
    7.6063   49.7876  128.9227 O   0  0  0  0  0  0  0  0  0  0  0  0
 35 36  1  0  0  0
 36 29  1  0  0  0
 29 30  2  0  0  0
 30 31  1  0  0  0
 31 32  2  0  0  0
 32 33  1  0  0  0
 33 34  2  0  0  0
 32 26  1  0  0  0
 26 27  2  0  0  0
 26 28  2  0  0  0
 26  1  1  0  0  0
  1  2  1  0  0  0
  2  3  1  0  0  0
  3  4  1  0  0  0
  4  5  1  0  0  0
  5  6  1  0  0  0
  6  7  1  0  0  0
  7  8  1  0  0  0
  8  9  1  0  0  0
  8 10  1  0  0  0
 10 11  1  0  0  0
 11 12  2  0  0  0
 11 14  1  0  0  0
 14 15  2  0  0  0
 15 16  1  0  0  0
 16 17  2  0  0  0
 17 18  1  0  0  0
 18 19  2  0  0  0
 17 20  1  0  0  0
 20 21  2  0  0  0
 21 22  1  0  0  0
 22 23  2  0  0  0
 23 24  1  0  0  0
 24 25  2  0  0  0
 34 29  1  0  0  0
  6  1  1  0  0  0
 19 14  1  0  0  0
 25 20  1  0  0  0
  9  3  1  0  0  0
 10 13  1  0  0  0
M  END
> <minimizedAffinity>
12.83843

> <CNNscore>
0.1739372313

> <CNNaffinity>
6.7505807877

> <CNN_VS>
1.1741772890

> <CNNaffinity_variance>
0.1928128898

$$$$
[H]c1c([H])c(S(=O)(=O)N2C([H])([H])[C@@]3([H])[C@]([H])(c4c([H])n([H])c5c([H])c([H])c(C(=O)N([H])[H])c([H])c45)C([H])([H])[C@@]23[H])c([H])c([H])c1OC([H])([H])[H]


 32 36  0  0  0  0  0  0  0  0999 V2000
    9.5661   46.8839  133.5861 N   0  0  0  0  0  0  0  0  0  0  0  0
   10.6925   46.0474  133.1837 C   0  0  0  0  0  0  0  0  0  0  0  0
   10.1377   46.0741  131.7838 C   0  0  0  0  0  0  0  0  0  0  0  0
    9.0090   45.1406  131.5326 C   0  0  0  0  0  0  0  0  0  0  0  0
    8.0532   46.3009  131.6841 C   0  0  0  0  0  0  0  0  0  0  0  0
    9.1762   47.1398  132.2552 C   0  0  0  0  0  0  0  0  0  0  0  0
    9.0569   44.5237  130.2009 C   0  0  0  0  0  0  0  0  0  0  0  0
    8.0419   44.0778  129.3978 C   0  0  0  0  0  0  0  0  0  0  0  0
    8.5292   43.5783  128.2513 N   0  0  0  0  0  0  0  0  0  0  0  0
    9.8649   43.6841  128.2757 C   0  0  0  0  0  0  0  0  0  0  0  0
   10.8689   43.3398  127.3844 C   0  0  0  0  0  0  0  0  0  0  0  0
   12.1756   43.5904  127.7239 C   0  0  0  0  0  0  0  0  0  0  0  0
   12.5659   44.1666  128.9019 C   0  0  0  0  0  0  0  0  0  0  0  0
   11.5644   44.5126  129.7968 C   0  0  0  0  0  0  0  0  0  0  0  0
   10.2251   44.2699  129.4788 C   0  0  0  0  0  0  0  0  0  0  0  0
    7.9879   43.1774  127.4727 H   0  0  0  0  0  0  0  0  0  0  0  0
   13.9576   44.4239  129.2427 C   0  0  0  0  0  0  0  0  0  0  0  0
   14.3240   44.8242  130.5430 N   0  0  0  0  0  0  0  0  0  0  0  0
   14.8643   44.2943  128.3824 O   0  0  0  0  0  0  0  0  0  0  0  0
   14.6689   44.1307  131.2237 H   0  0  0  0  0  0  0  0  0  0  0  0
   14.2466   45.8158  130.8145 H   0  0  0  0  0  0  0  0  0  0  0  0
   10.0001   48.1554  134.5997 S   0  0  0  0  0  0  0  0  0  0  0  0
    9.7792   49.4628  133.8519 O   0  0  0  0  0  0  0  0  0  0  0  0
    9.0516   48.1972  135.7783 O   0  0  0  0  0  0  0  0  0  0  0  0
   14.2474   48.0113  136.1369 C   0  0  0  0  0  0  0  0  0  0  0  0
   13.3745   48.9500  136.6094 C   0  0  0  0  0  0  0  0  0  0  0  0
   12.0694   49.0087  136.1495 C   0  0  0  0  0  0  0  0  0  0  0  0
   11.6112   48.1205  135.1999 C   0  0  0  0  0  0  0  0  0  0  0  0
   12.5058   47.1812  134.7355 C   0  0  0  0  0  0  0  0  0  0  0  0
   13.8139   47.1159  135.1907 C   0  0  0  0  0  0  0  0  0  0  0  0
   16.0028   46.8974  137.4367 C   0  0  0  0  0  0  0  0  0  0  0  0
   15.5788   47.9340  136.5910 O   0  0  0  0  0  0  0  0  0  0  0  0
 31 32  1  0  0  0
 32 25  1  0  0  0
 25 26  2  0  0  0
 26 27  1  0  0  0
 27 28  2  0  0  0
 28 29  1  0  0  0
 29 30  2  0  0  0
 28 22  1  0  0  0
 22 23  2  0  0  0
 22 24  2  0  0  0
 22  1  1  0  0  0
  1  2  1  0  0  0
  2  3  1  0  0  0
  3  4  1  0  0  0
  4  5  1  0  0  0
  5  6  1  0  0  0
  4  7  1  0  0  0
  7  8  2  0  0  0
  8  9  1  0  0  0
  9 10  1  0  0  0
 10 11  2  0  0  0
 11 12  1  0  0  0
 12 13  2  0  0  0
 13 14  1  0  0  0
 14 15  2  0  0  0
 13 17  1  0  0  0
 17 18  1  0  0  0
 17 19  2  0  0  0
 30 25  1  0  0  0
  6  1  1  0  0  0
 15  7  1  0  0  0
  6  3  1  0  0  0
 15 10  1  0  0  0
  9 16  1  0  0  0
 18 20  1  0  0  0
 18 21  1  0  0  0
M  END
> <minimizedAffinity>
20.28086

> <CNNscore>
0.5516299605

> <CNNaffinity>
7.0381975174

> <CNN_VS>
3.8824806213

> <CNNaffinity_variance>
1.8964945078

$$$$
[H]c1c([H])c(S(=O)(=O)N2C([H])([H])[C@@]3([H])[C@]([H])(c4c([H])n([H])c5c([H])c([H])c(C(=O)N([H])[H])c([H])c45)C([H])([H])[C@@]23[H])c([H])c([H])c1OC([H])([H])[H]


 32 36  0  0  0  0  0  0  0  0999 V2000
   11.2924   45.5770  131.9511 N   0  0  0  0  0  0  0  0  0  0  0  0
   10.9680   46.3415  133.1514 C   0  0  0  0  0  0  0  0  0  0  0  0
    9.9612   47.0995  132.3266 C   0  0  0  0  0  0  0  0  0  0  0  0
   10.5259   48.1745  131.4699 C   0  0  0  0  0  0  0  0  0  0  0  0
   10.4419   47.2372  130.2879 C   0  0  0  0  0  0  0  0  0  0  0  0
   10.1889   46.0824  131.2330 C   0  0  0  0  0  0  0  0  0  0  0  0
    9.6701   49.3658  131.4011 C   0  0  0  0  0  0  0  0  0  0  0  0
    9.8710   50.6265  131.8953 C   0  0  0  0  0  0  0  0  0  0  0  0
    8.8278   51.4204  131.6070 N   0  0  0  0  0  0  0  0  0  0  0  0
    7.9255   50.7042  130.9223 C   0  0  0  0  0  0  0  0  0  0  0  0
    6.6851   50.9966  130.3774 C   0  0  0  0  0  0  0  0  0  0  0  0
    5.9975   50.0078  129.7180 C   0  0  0  0  0  0  0  0  0  0  0  0
    6.4573   48.7292  129.5570 C   0  0  0  0  0  0  0  0  0  0  0  0
    7.6981   48.4322  130.1008 C   0  0  0  0  0  0  0  0  0  0  0  0
    8.4215   49.4184  130.7775 C   0  0  0  0  0  0  0  0  0  0  0  0
    8.7185   52.4126  131.8589 H   0  0  0  0  0  0  0  0  0  0  0  0
    5.7120   47.6950  128.8539 C   0  0  0  0  0  0  0  0  0  0  0  0
    4.9145   46.7705  129.5573 N   0  0  0  0  0  0  0  0  0  0  0  0
    5.7643   47.6042  127.6018 O   0  0  0  0  0  0  0  0  0  0  0  0
    3.8990   46.9234  129.6500 H   0  0  0  0  0  0  0  0  0  0  0  0
    5.3494   45.9373  129.9811 H   0  0  0  0  0  0  0  0  0  0  0  0
   11.4372   43.9229  132.2254 S   0  0  0  0  0  0  0  0  0  0  0  0
   12.1461   43.2981  131.0319 O   0  0  0  0  0  0  0  0  0  0  0  0
   12.3547   43.6937  133.4072 O   0  0  0  0  0  0  0  0  0  0  0  0
    7.5914   41.6904  133.0304 C   0  0  0  0  0  0  0  0  0  0  0  0
    7.8477   42.1967  131.7877 C   0  0  0  0  0  0  0  0  0  0  0  0
    9.0209   42.8834  131.5233 C   0  0  0  0  0  0  0  0  0  0  0  0
    9.9668   43.0771  132.5073 C   0  0  0  0  0  0  0  0  0  0  0  0
    9.6907   42.5593  133.7540 C   0  0  0  0  0  0  0  0  0  0  0  0
    8.5186   41.8707  134.0267 C   0  0  0  0  0  0  0  0  0  0  0  0
    5.9336   40.8640  134.6369 C   0  0  0  0  0  0  0  0  0  0  0  0
    6.4046   40.9888  133.3208 O   0  0  0  0  0  0  0  0  0  0  0  0
 31 32  1  0  0  0
 32 25  1  0  0  0
 25 26  2  0  0  0
 26 27  1  0  0  0
 27 28  2  0  0  0
 28 29  1  0  0  0
 29 30  2  0  0  0
 28 22  1  0  0  0
 22 23  2  0  0  0
 22 24  2  0  0  0
 22  1  1  0  0  0
  1  2  1  0  0  0
  2  3  1  0  0  0
  3  4  1  0  0  0
  4  5  1  0  0  0
  5  6  1  0  0  0
  4  7  1  0  0  0
  7  8  2  0  0  0
  8  9  1  0  0  0
  9 10  1  0  0  0
 10 11  2  0  0  0
 11 12  1  0  0  0
 12 13  2  0  0  0
 13 14  1  0  0  0
 14 15  2  0  0  0
 13 17  1  0  0  0
 17 18  1  0  0  0
 17 19  2  0  0  0
 30 25  1  0  0  0
  6  1  1  0  0  0
 15  7  1  0  0  0
  6  3  1  0  0  0
 15 10  1  0  0  0
  9 16  1  0  0  0
 18 20  1  0  0  0
 18 21  1  0  0  0
M  END
> <minimizedAffinity>
3.01217

> <CNNscore>
0.5417062044

> <CNNaffinity>
7.6352491379

> <CNN_VS>
4.1360616684

> <CNNaffinity_variance>
0.8976821899

$$$$
[H]c1c([H])c(S(=O)(=O)N2C([H])([H])[C@@]3([H])[C@]([H])(c4c([H])n([H])c5c([H])c([H])c(C(=O)N([H])[H])c([H])c45)C([H])([H])[C@@]23[H])c([H])c([H])c1OC([H])([H])[H]


 32 36  0  0  0  0  0  0  0  0999 V2000
    9.0025   46.7484  133.9728 N   0  0  0  0  0  0  0  0  0  0  0  0
    9.7336   45.5220  134.2760 C   0  0  0  0  0  0  0  0  0  0  0  0
    9.5616   45.1308  132.8319 C   0  0  0  0  0  0  0  0  0  0  0  0
    8.2309   44.5688  132.4828 C   0  0  0  0  0  0  0  0  0  0  0  0
    7.8406   45.9165  131.9224 C   0  0  0  0  0  0  0  0  0  0  0  0
    9.0568   46.5323  132.5802 C   0  0  0  0  0  0  0  0  0  0  0  0
    8.3060   43.4713  131.5100 C   0  0  0  0  0  0  0  0  0  0  0  0
    7.5981   42.3016  131.4428 C   0  0  0  0  0  0  0  0  0  0  0  0
    7.9846   41.5738  130.3833 N   0  0  0  0  0  0  0  0  0  0  0  0
    8.9477   42.2443  129.7361 C   0  0  0  0  0  0  0  0  0  0  0  0
    9.6993   41.9827  128.6013 C   0  0  0  0  0  0  0  0  0  0  0  0
   10.6317   42.9042  128.1930 C   0  0  0  0  0  0  0  0  0  0  0  0
   10.8776   44.0854  128.8383 C   0  0  0  0  0  0  0  0  0  0  0  0
   10.1277   44.3513  129.9743 C   0  0  0  0  0  0  0  0  0  0  0  0
    9.1710   43.4320  130.4142 C   0  0  0  0  0  0  0  0  0  0  0  0
    7.6177   40.6552  130.0979 H   0  0  0  0  0  0  0  0  0  0  0  0
   11.8714   45.0495  128.3885 C   0  0  0  0  0  0  0  0  0  0  0  0
   11.4910   46.3359  127.9575 N   0  0  0  0  0  0  0  0  0  0  0  0
   13.0927   44.7543  128.3749 O   0  0  0  0  0  0  0  0  0  0  0  0
   11.5422   47.1379  128.6034 H   0  0  0  0  0  0  0  0  0  0  0  0
   11.1599   46.4751  126.9910 H   0  0  0  0  0  0  0  0  0  0  0  0
    9.6956   48.1282  134.6422 S   0  0  0  0  0  0  0  0  0  0  0  0
    9.5226   49.2779  133.6595 O   0  0  0  0  0  0  0  0  0  0  0  0
    8.9147   48.5280  135.8755 O   0  0  0  0  0  0  0  0  0  0  0  0
   14.0545   47.8514  135.8027 C   0  0  0  0  0  0  0  0  0  0  0  0
   13.5203   46.9640  134.9120 C   0  0  0  0  0  0  0  0  0  0  0  0
   12.1867   47.0340  134.5450 C   0  0  0  0  0  0  0  0  0  0  0  0
   11.3569   48.0026  135.0682 C   0  0  0  0  0  0  0  0  0  0  0  0
   11.9134   48.8886  135.9648 C   0  0  0  0  0  0  0  0  0  0  0  0
   13.2475   48.8251  136.3373 C   0  0  0  0  0  0  0  0  0  0  0  0
   15.7790   47.7267  137.5412 C   0  0  0  0  0  0  0  0  0  0  0  0
   15.4081   47.7980  136.1895 O   0  0  0  0  0  0  0  0  0  0  0  0
 31 32  1  0  0  0
 32 25  1  0  0  0
 25 26  2  0  0  0
 26 27  1  0  0  0
 27 28  2  0  0  0
 28 29  1  0  0  0
 29 30  2  0  0  0
 28 22  1  0  0  0
 22 23  2  0  0  0
 22 24  2  0  0  0
 22  1  1  0  0  0
  1  2  1  0  0  0
  2  3  1  0  0  0
  3  4  1  0  0  0
  4  5  1  0  0  0
  5  6  1  0  0  0
  4  7  1  0  0  0
  7  8  2  0  0  0
  8  9  1  0  0  0
  9 10  1  0  0  0
 10 11  2  0  0  0
 11 12  1  0  0  0
 12 13  2  0  0  0
 13 14  1  0  0  0
 14 15  2  0  0  0
 13 17  1  0  0  0
 17 18  1  0  0  0
 17 19  2  0  0  0
 30 25  1  0  0  0
  6  1  1  0  0  0
 15  7  1  0  0  0
  6  3  1  0  0  0
 15 10  1  0  0  0
  9 16  1  0  0  0
 18 20  1  0  0  0
 18 21  1  0  0  0
M  END
> <minimizedAffinity>
18.86568

> <CNNscore>
0.4941910505

> <CNNaffinity>
7.0327339172

> <CNN_VS>
3.4755141735

> <CNNaffinity_variance>
1.9248533249

$$$$
[H]c1c([H])c(S(=O)(=O)N2C([H])([H])[C@@]3([H])[C@]([H])(c4c([H])n([H])c5c([H])c([H])c(C(=O)N([H])[H])c([H])c45)C([H])([H])[C@@]23[H])c([H])c([H])c1OC([H])([H])[H]


 32 36  0  0  0  0  0  0  0  0999 V2000
    8.0028   43.9897  130.4891 N   0  0  0  0  0  0  0  0  0  0  0  0
    8.1503   44.4865  129.1246 C   0  0  0  0  0  0  0  0  0  0  0  0
    7.9051   45.8712  129.6636 C   0  0  0  0  0  0  0  0  0  0  0  0
    6.4801   46.2081  129.9176 C   0  0  0  0  0  0  0  0  0  0  0  0
    6.7054   45.9288  131.3853 C   0  0  0  0  0  0  0  0  0  0  0  0
    8.0328   45.2835  131.0495 C   0  0  0  0  0  0  0  0  0  0  0  0
    6.1467   47.5969  129.5767 C   0  0  0  0  0  0  0  0  0  0  0  0
    5.1429   48.0963  128.7912 C   0  0  0  0  0  0  0  0  0  0  0  0
    5.1988   49.4365  128.7457 N   0  0  0  0  0  0  0  0  0  0  0  0
    6.2327   49.8442  129.4945 C   0  0  0  0  0  0  0  0  0  0  0  0
    6.7570   51.0887  129.8065 C   0  0  0  0  0  0  0  0  0  0  0  0
    7.8560   51.1620  130.6262 C   0  0  0  0  0  0  0  0  0  0  0  0
    8.4838   50.0736  131.1680 C   0  0  0  0  0  0  0  0  0  0  0  0
    7.9625   48.8262  130.8584 C   0  0  0  0  0  0  0  0  0  0  0  0
    6.8442   48.7202  130.0266 C   0  0  0  0  0  0  0  0  0  0  0  0
    4.5661   50.0641  128.2301 H   0  0  0  0  0  0  0  0  0  0  0  0
    9.6487   50.1731  132.0354 C   0  0  0  0  0  0  0  0  0  0  0  0
   10.6899   49.2265  131.9631 N   0  0  0  0  0  0  0  0  0  0  0  0
    9.7508   51.1075  132.8693 O   0  0  0  0  0  0  0  0  0  0  0  0
   11.5393   49.4275  131.4144 H   0  0  0  0  0  0  0  0  0  0  0  0
   10.6011   48.3285  132.4618 H   0  0  0  0  0  0  0  0  0  0  0  0
    9.1667   42.8536  130.9213 S   0  0  0  0  0  0  0  0  0  0  0  0
    8.9872   42.5187  132.3954 O   0  0  0  0  0  0  0  0  0  0  0  0
    8.9012   41.5626  130.1772 O   0  0  0  0  0  0  0  0  0  0  0  0
   13.4454   44.0806  130.1407 C   0  0  0  0  0  0  0  0  0  0  0  0
   13.0989   43.5065  131.3309 C   0  0  0  0  0  0  0  0  0  0  0  0
   11.7926   43.1244  131.5871 C   0  0  0  0  0  0  0  0  0  0  0  0
   10.8013   43.3120  130.6476 C   0  0  0  0  0  0  0  0  0  0  0  0
   11.1698   43.8923  129.4535 C   0  0  0  0  0  0  0  0  0  0  0  0
   12.4753   44.2776  129.1894 C   0  0  0  0  0  0  0  0  0  0  0  0
   15.4176   44.0700  128.6839 C   0  0  0  0  0  0  0  0  0  0  0  0
   14.7679   44.4766  129.8596 O   0  0  0  0  0  0  0  0  0  0  0  0
 31 32  1  0  0  0
 32 25  1  0  0  0
 25 26  2  0  0  0
 26 27  1  0  0  0
 27 28  2  0  0  0
 28 29  1  0  0  0
 29 30  2  0  0  0
 28 22  1  0  0  0
 22 23  2  0  0  0
 22 24  2  0  0  0
 22  1  1  0  0  0
  1  2  1  0  0  0
  2  3  1  0  0  0
  3  4  1  0  0  0
  4  5  1  0  0  0
  5  6  1  0  0  0
  4  7  1  0  0  0
  7  8  2  0  0  0
  8  9  1  0  0  0
  9 10  1  0  0  0
 10 11  2  0  0  0
 11 12  1  0  0  0
 12 13  2  0  0  0
 13 14  1  0  0  0
 14 15  2  0  0  0
 13 17  1  0  0  0
 17 18  1  0  0  0
 17 19  2  0  0  0
 30 25  1  0  0  0
  6  1  1  0  0  0
 15  7  1  0  0  0
  6  3  1  0  0  0
 15 10  1  0  0  0
  9 16  1  0  0  0
 18 20  1  0  0  0
 18 21  1  0  0  0
M  END
> <minimizedAffinity>
0.71754

> <CNNscore>
0.4604921937

> <CNNaffinity>
7.3080635071

> <CNN_VS>
3.3653061390

> <CNNaffinity_variance>
0.8644387126

$$$$
[H]c1c([H])c(S(=O)(=O)N2C([H])([H])[C@@]3([H])[C@]([H])(c4c([H])n([H])c5c([H])c([H])c(C(=O)N([H])[H])c([H])c45)C([H])([H])[C@@]23[H])c([H])c([H])c1OC([H])([H])[H]


 32 36  0  0  0  0  0  0  0  0999 V2000
   10.4196   45.5317  132.8383 N   0  0  0  0  0  0  0  0  0  0  0  0
    9.2287   45.6127  131.9983 C   0  0  0  0  0  0  0  0  0  0  0  0
    9.6338   47.0233  131.6599 C   0  0  0  0  0  0  0  0  0  0  0  0
    9.3028   48.0411  132.6908 C   0  0  0  0  0  0  0  0  0  0  0  0
   10.7376   47.9895  133.1614 C   0  0  0  0  0  0  0  0  0  0  0  0
   10.9531   46.7377  132.3383 C   0  0  0  0  0  0  0  0  0  0  0  0
    8.8653   49.3205  132.1180 C   0  0  0  0  0  0  0  0  0  0  0  0
    9.2430   50.6001  132.4247 C   0  0  0  0  0  0  0  0  0  0  0  0
    8.5923   51.4844  131.6526 N   0  0  0  0  0  0  0  0  0  0  0  0
    7.7788   50.8104  130.8280 C   0  0  0  0  0  0  0  0  0  0  0  0
    6.8886   51.1936  129.8372 C   0  0  0  0  0  0  0  0  0  0  0  0
    6.1897   50.2257  129.1591 C   0  0  0  0  0  0  0  0  0  0  0  0
    6.3107   48.8834  129.3956 C   0  0  0  0  0  0  0  0  0  0  0  0
    7.2004   48.4955  130.3864 C   0  0  0  0  0  0  0  0  0  0  0  0
    7.9261   49.4584  131.0936 C   0  0  0  0  0  0  0  0  0  0  0  0
    8.6864   52.5093  131.6734 H   0  0  0  0  0  0  0  0  0  0  0  0
    5.5598   47.8727  128.6649 C   0  0  0  0  0  0  0  0  0  0  0  0
    4.9395   46.8018  129.3385 N   0  0  0  0  0  0  0  0  0  0  0  0
    5.4487   47.9337  127.4148 O   0  0  0  0  0  0  0  0  0  0  0  0
    3.9372   46.8467  129.5762 H   0  0  0  0  0  0  0  0  0  0  0  0
    5.4913   45.9694  129.5946 H   0  0  0  0  0  0  0  0  0  0  0  0
   11.2722   44.0917  132.6604 S   0  0  0  0  0  0  0  0  0  0  0  0
   12.0512   43.8329  133.9424 O   0  0  0  0  0  0  0  0  0  0  0  0
   10.2914   42.9449  132.5435 O   0  0  0  0  0  0  0  0  0  0  0  0
   14.1619   43.8766  129.1925 C   0  0  0  0  0  0  0  0  0  0  0  0
   12.8976   44.3600  129.0076 C   0  0  0  0  0  0  0  0  0  0  0  0
   11.9990   44.4330  130.0590 C   0  0  0  0  0  0  0  0  0  0  0  0
   12.3537   44.0196  131.3254 C   0  0  0  0  0  0  0  0  0  0  0  0
   13.6327   43.5352  131.4924 C   0  0  0  0  0  0  0  0  0  0  0  0
   14.5381   43.4588  130.4450 C   0  0  0  0  0  0  0  0  0  0  0  0
   15.8892   42.6535  127.9546 C   0  0  0  0  0  0  0  0  0  0  0  0
   15.0914   43.7936  128.1371 O   0  0  0  0  0  0  0  0  0  0  0  0
 31 32  1  0  0  0
 32 25  1  0  0  0
 25 26  2  0  0  0
 26 27  1  0  0  0
 27 28  2  0  0  0
 28 29  1  0  0  0
 29 30  2  0  0  0
 28 22  1  0  0  0
 22 23  2  0  0  0
 22 24  2  0  0  0
 22  1  1  0  0  0
  1  2  1  0  0  0
  2  3  1  0  0  0
  3  4  1  0  0  0
  4  5  1  0  0  0
  5  6  1  0  0  0
  4  7  1  0  0  0
  7  8  2  0  0  0
  8  9  1  0  0  0
  9 10  1  0  0  0
 10 11  2  0  0  0
 11 12  1  0  0  0
 12 13  2  0  0  0
 13 14  1  0  0  0
 14 15  2  0  0  0
 13 17  1  0  0  0
 17 18  1  0  0  0
 17 19  2  0  0  0
 30 25  1  0  0  0
  6  1  1  0  0  0
 15  7  1  0  0  0
  6  3  1  0  0  0
 15 10  1  0  0  0
  9 16  1  0  0  0
 18 20  1  0  0  0
 18 21  1  0  0  0
M  END
> <minimizedAffinity>
7.82947

> <CNNscore>
0.4437474906

> <CNNaffinity>
7.4400062561

> <CNN_VS>
3.3014841080

> <CNNaffinity_variance>
1.1375379562

$$$$
[H]c1c([H])c(S(=O)(=O)N2C([H])([H])[C@@]3([H])[C@]([H])(c4c([H])n([H])c5c([H])c([H])c(C(=O)N([H])[H])c([H])c45)C([H])([H])[C@@]23[H])c([H])c([H])c1OC([H])([H])[H]


 32 36  0  0  0  0  0  0  0  0999 V2000
    9.9851   47.6449  133.5558 N   0  0  0  0  0  0  0  0  0  0  0  0
   10.9282   47.2301  132.5218 C   0  0  0  0  0  0  0  0  0  0  0  0
   10.1550   45.9421  132.4144 C   0  0  0  0  0  0  0  0  0  0  0  0
   10.4528   44.9358  133.4666 C   0  0  0  0  0  0  0  0  0  0  0  0
    9.1948   45.3597  134.1880 C   0  0  0  0  0  0  0  0  0  0  0  0
    9.1025   46.5769  133.2929 C   0  0  0  0  0  0  0  0  0  0  0  0
   10.4633   43.5577  132.9594 C   0  0  0  0  0  0  0  0  0  0  0  0
   10.6072   42.3721  133.6285 C   0  0  0  0  0  0  0  0  0  0  0  0
   10.5574   41.3372  132.7753 N   0  0  0  0  0  0  0  0  0  0  0  0
   10.3811   41.8164  131.5363 C   0  0  0  0  0  0  0  0  0  0  0  0
   10.2600   41.2242  130.2890 C   0  0  0  0  0  0  0  0  0  0  0  0
   10.0834   42.0234  129.1866 C   0  0  0  0  0  0  0  0  0  0  0  0
   10.0172   43.3893  129.2311 C   0  0  0  0  0  0  0  0  0  0  0  0
   10.1380   43.9862  130.4771 C   0  0  0  0  0  0  0  0  0  0  0  0
   10.3185   43.1984  131.6176 C   0  0  0  0  0  0  0  0  0  0  0  0
   10.6385   40.3382  133.0105 H   0  0  0  0  0  0  0  0  0  0  0  0
    9.8294   44.2188  128.0496 C   0  0  0  0  0  0  0  0  0  0  0  0
   10.4753   45.4652  127.9282 N   0  0  0  0  0  0  0  0  0  0  0  0
    9.0853   43.8403  127.1105 O   0  0  0  0  0  0  0  0  0  0  0  0
   11.3536   45.5468  127.3943 H   0  0  0  0  0  0  0  0  0  0  0  0
   10.0669   46.2994  128.3758 H   0  0  0  0  0  0  0  0  0  0  0  0
    9.4611   49.2356  133.3898 S   0  0  0  0  0  0  0  0  0  0  0  0
    8.4235   49.5146  134.4683 O   0  0  0  0  0  0  0  0  0  0  0  0
   10.6135   50.1715  133.6841 O   0  0  0  0  0  0  0  0  0  0  0  0
    7.6674   50.3490  129.3941 C   0  0  0  0  0  0  0  0  0  0  0  0
    8.9428   49.8650  129.4666 C   0  0  0  0  0  0  0  0  0  0  0  0
    9.5084   49.5188  130.6825 C   0  0  0  0  0  0  0  0  0  0  0  0
    8.8004   49.6524  131.8579 C   0  0  0  0  0  0  0  0  0  0  0  0
    7.5159   50.1420  131.7648 C   0  0  0  0  0  0  0  0  0  0  0  0
    6.9426   50.4909  130.5515 C   0  0  0  0  0  0  0  0  0  0  0  0
    6.8953   52.0518  127.8078 C   0  0  0  0  0  0  0  0  0  0  0  0
    7.0730   50.7071  128.1680 O   0  0  0  0  0  0  0  0  0  0  0  0
 31 32  1  0  0  0
 32 25  1  0  0  0
 25 26  2  0  0  0
 26 27  1  0  0  0
 27 28  2  0  0  0
 28 29  1  0  0  0
 29 30  2  0  0  0
 28 22  1  0  0  0
 22 23  2  0  0  0
 22 24  2  0  0  0
 22  1  1  0  0  0
  1  2  1  0  0  0
  2  3  1  0  0  0
  3  4  1  0  0  0
  4  5  1  0  0  0
  5  6  1  0  0  0
  4  7  1  0  0  0
  7  8  2  0  0  0
  8  9  1  0  0  0
  9 10  1  0  0  0
 10 11  2  0  0  0
 11 12  1  0  0  0
 12 13  2  0  0  0
 13 14  1  0  0  0
 14 15  2  0  0  0
 13 17  1  0  0  0
 17 18  1  0  0  0
 17 19  2  0  0  0
 30 25  1  0  0  0
  6  1  1  0  0  0
 15  7  1  0  0  0
  6  3  1  0  0  0
 15 10  1  0  0  0
  9 16  1  0  0  0
 18 20  1  0  0  0
 18 21  1  0  0  0
M  END
> <minimizedAffinity>
6.59177

> <CNNscore>
0.4229477048

> <CNNaffinity>
7.4296545982

> <CNN_VS>
3.1423554420

> <CNNaffinity_variance>
1.9775943756

$$$$
[H]c1c([H])c(S(=O)(=O)N2C([H])([H])[C@@]3([H])[C@]([H])(c4c([H])n([H])c5c([H])c([H])c(C(=O)N([H])[H])c([H])c45)C([H])([H])[C@@]23[H])c([H])c([H])c1OC([H])([H])[H]


 32 36  0  0  0  0  0  0  0  0999 V2000
    8.1051   44.0060  129.6491 N   0  0  0  0  0  0  0  0  0  0  0  0
    8.6239   44.8016  128.5408 C   0  0  0  0  0  0  0  0  0  0  0  0
    8.2464   46.0320  129.3231 C   0  0  0  0  0  0  0  0  0  0  0  0
    6.8080   46.4012  129.2664 C   0  0  0  0  0  0  0  0  0  0  0  0
    6.6204   45.7645  130.6236 C   0  0  0  0  0  0  0  0  0  0  0  0
    7.9860   45.1231  130.5015 C   0  0  0  0  0  0  0  0  0  0  0  0
    6.5873   47.8518  129.2066 C   0  0  0  0  0  0  0  0  0  0  0  0
    5.7085   48.5804  128.4512 C   0  0  0  0  0  0  0  0  0  0  0  0
    5.8371   49.8917  128.7074 N   0  0  0  0  0  0  0  0  0  0  0  0
    6.7961   50.0522  129.6296 C   0  0  0  0  0  0  0  0  0  0  0  0
    7.3429   51.1591  130.2595 C   0  0  0  0  0  0  0  0  0  0  0  0
    8.3413   50.9739  131.1837 C   0  0  0  0  0  0  0  0  0  0  0  0
    8.8457   49.7514  131.5346 C   0  0  0  0  0  0  0  0  0  0  0  0
    8.3015   48.6409  130.9066 C   0  0  0  0  0  0  0  0  0  0  0  0
    7.2837   48.7982  129.9615 C   0  0  0  0  0  0  0  0  0  0  0  0
    5.3014   50.6600  128.2802 H   0  0  0  0  0  0  0  0  0  0  0  0
    9.9052   49.5767  132.5176 C   0  0  0  0  0  0  0  0  0  0  0  0
   10.6133   48.3622  132.6128 N   0  0  0  0  0  0  0  0  0  0  0  0
   10.2117   50.5073  133.3042 O   0  0  0  0  0  0  0  0  0  0  0  0
   11.5285   48.2552  132.1501 H   0  0  0  0  0  0  0  0  0  0  0  0
   10.2135   47.5769  133.1481 H   0  0  0  0  0  0  0  0  0  0  0  0
    9.1003   42.7180  130.0768 S   0  0  0  0  0  0  0  0  0  0  0  0
    8.2301   41.4861  130.2829 O   0  0  0  0  0  0  0  0  0  0  0  0
   10.0075   42.3832  128.9124 O   0  0  0  0  0  0  0  0  0  0  0  0
   11.6057   43.3312  133.7876 C   0  0  0  0  0  0  0  0  0  0  0  0
   12.1866   43.3566  132.5513 C   0  0  0  0  0  0  0  0  0  0  0  0
   11.4341   43.1706  131.4036 C   0  0  0  0  0  0  0  0  0  0  0  0
   10.0745   42.9539  131.4740 C   0  0  0  0  0  0  0  0  0  0  0  0
    9.5066   42.9317  132.7292 C   0  0  0  0  0  0  0  0  0  0  0  0
   10.2529   43.1170  133.8829 C   0  0  0  0  0  0  0  0  0  0  0  0
   11.7655   43.3714  136.2339 C   0  0  0  0  0  0  0  0  0  0  0  0
   12.3523   43.5180  134.9675 O   0  0  0  0  0  0  0  0  0  0  0  0
 31 32  1  0  0  0
 32 25  1  0  0  0
 25 26  2  0  0  0
 26 27  1  0  0  0
 27 28  2  0  0  0
 28 29  1  0  0  0
 29 30  2  0  0  0
 28 22  1  0  0  0
 22 23  2  0  0  0
 22 24  2  0  0  0
 22  1  1  0  0  0
  1  2  1  0  0  0
  2  3  1  0  0  0
  3  4  1  0  0  0
  4  5  1  0  0  0
  5  6  1  0  0  0
  4  7  1  0  0  0
  7  8  2  0  0  0
  8  9  1  0  0  0
  9 10  1  0  0  0
 10 11  2  0  0  0
 11 12  1  0  0  0
 12 13  2  0  0  0
 13 14  1  0  0  0
 14 15  2  0  0  0
 13 17  1  0  0  0
 17 18  1  0  0  0
 17 19  2  0  0  0
 30 25  1  0  0  0
  6  1  1  0  0  0
 15  7  1  0  0  0
  6  3  1  0  0  0
 15 10  1  0  0  0
  9 16  1  0  0  0
 18 20  1  0  0  0
 18 21  1  0  0  0
M  END
> <minimizedAffinity>
-1.58879

> <CNNscore>
0.4212586582

> <CNNaffinity>
7.6302871704

> <CNN_VS>
3.2143244743

> <CNNaffinity_variance>
1.3784923553

$$$$
[H]c1c([H])c(S(=O)(=O)N2C([H])([H])[C@@]3([H])[C@]([H])(c4c([H])n([H])c5c([H])c([H])c(C(=O)N([H])[H])c([H])c45)C([H])([H])[C@@]23[H])c([H])c([H])c1OC([H])([H])[H]


 32 36  0  0  0  0  0  0  0  0999 V2000
    8.6222   49.0166  131.3375 N   0  0  0  0  0  0  0  0  0  0  0  0
   10.0373   49.2988  131.1180 C   0  0  0  0  0  0  0  0  0  0  0  0
   10.0849   49.8521  132.5179 C   0  0  0  0  0  0  0  0  0  0  0  0
    9.5578   51.2332  132.6706 C   0  0  0  0  0  0  0  0  0  0  0  0
    8.2654   50.6515  133.1938 C   0  0  0  0  0  0  0  0  0  0  0  0
    8.7008   49.2813  132.7205 C   0  0  0  0  0  0  0  0  0  0  0  0
   10.3265   52.0410  133.6262 C   0  0  0  0  0  0  0  0  0  0  0  0
   11.6724   52.2806  133.6973 C   0  0  0  0  0  0  0  0  0  0  0  0
   11.9570   53.0819  134.7358 N   0  0  0  0  0  0  0  0  0  0  0  0
   10.8130   53.3840  135.3651 C   0  0  0  0  0  0  0  0  0  0  0  0
   10.5058   54.1552  136.4750 C   0  0  0  0  0  0  0  0  0  0  0  0
    9.1950   54.2621  136.8696 C   0  0  0  0  0  0  0  0  0  0  0  0
    8.1494   53.6500  136.2337 C   0  0  0  0  0  0  0  0  0  0  0  0
    8.4523   52.8773  135.1226 C   0  0  0  0  0  0  0  0  0  0  0  0
    9.7777   52.7499  134.6971 C   0  0  0  0  0  0  0  0  0  0  0  0
   12.8876   53.4191  135.0190 H   0  0  0  0  0  0  0  0  0  0  0  0
    6.7658   53.7764  136.6686 C   0  0  0  0  0  0  0  0  0  0  0  0
    6.4163   54.6236  137.7388 N   0  0  0  0  0  0  0  0  0  0  0  0
    5.8514   53.1309  136.0975 O   0  0  0  0  0  0  0  0  0  0  0  0
    6.0600   55.5737  137.5560 H   0  0  0  0  0  0  0  0  0  0  0  0
    6.5177   54.2910  138.7094 H   0  0  0  0  0  0  0  0  0  0  0  0
    8.1466   47.4968  130.7931 S   0  0  0  0  0  0  0  0  0  0  0  0
    6.6527   47.3430  131.0421 O   0  0  0  0  0  0  0  0  0  0  0  0
    8.3158   47.4321  129.2904 O   0  0  0  0  0  0  0  0  0  0  0  0
   10.2864   43.9957  132.6868 C   0  0  0  0  0  0  0  0  0  0  0  0
   10.3846   44.2187  131.3425 C   0  0  0  0  0  0  0  0  0  0  0  0
    9.7356   45.2866  130.7455 C   0  0  0  0  0  0  0  0  0  0  0  0
    8.9700   46.1579  131.4906 C   0  0  0  0  0  0  0  0  0  0  0  0
    8.8829   45.9169  132.8444 C   0  0  0  0  0  0  0  0  0  0  0  0
    9.5295   44.8501  133.4496 C   0  0  0  0  0  0  0  0  0  0  0  0
   12.0654   42.3092  132.7387 C   0  0  0  0  0  0  0  0  0  0  0  0
   10.9382   42.9157  133.3141 O   0  0  0  0  0  0  0  0  0  0  0  0
 31 32  1  0  0  0
 32 25  1  0  0  0
 25 26  2  0  0  0
 26 27  1  0  0  0
 27 28  2  0  0  0
 28 29  1  0  0  0
 29 30  2  0  0  0
 28 22  1  0  0  0
 22 23  2  0  0  0
 22 24  2  0  0  0
 22  1  1  0  0  0
  1  2  1  0  0  0
  2  3  1  0  0  0
  3  4  1  0  0  0
  4  5  1  0  0  0
  5  6  1  0  0  0
  4  7  1  0  0  0
  7  8  2  0  0  0
  8  9  1  0  0  0
  9 10  1  0  0  0
 10 11  2  0  0  0
 11 12  1  0  0  0
 12 13  2  0  0  0
 13 14  1  0  0  0
 14 15  2  0  0  0
 13 17  1  0  0  0
 17 18  1  0  0  0
 17 19  2  0  0  0
 30 25  1  0  0  0
  6  1  1  0  0  0
 15  7  1  0  0  0
  6  3  1  0  0  0
 15 10  1  0  0  0
  9 16  1  0  0  0
 18 20  1  0  0  0
 18 21  1  0  0  0
M  END
> <minimizedAffinity>
41.53955

> <CNNscore>
0.3949135244

> <CNNaffinity>
6.9006195068

> <CNN_VS>
2.7251479626

> <CNNaffinity_variance>
1.0280984640

$$$$
[H]c1c([H])c(S(=O)(=O)N2C([H])([H])[C@@]3([H])[C@]([H])(c4c([H])n([H])c5c([H])c([H])c(C(=O)N([H])[H])c([H])c45)C([H])([H])[C@@]23[H])c([H])c([H])c1OC([H])([H])[H]


 32 36  0  0  0  0  0  0  0  0999 V2000
    7.1159   47.7710  131.3147 N   0  0  0  0  0  0  0  0  0  0  0  0
    8.2913   48.5077  131.7687 C   0  0  0  0  0  0  0  0  0  0  0  0
    8.8045   47.2166  132.3502 C   0  0  0  0  0  0  0  0  0  0  0  0
    8.2104   46.8308  133.6565 C   0  0  0  0  0  0  0  0  0  0  0  0
    7.3008   45.8701  132.9267 C   0  0  0  0  0  0  0  0  0  0  0  0
    7.6866   46.5165  131.6136 C   0  0  0  0  0  0  0  0  0  0  0  0
    9.1810   46.2185  134.5727 C   0  0  0  0  0  0  0  0  0  0  0  0
    9.5429   46.5768  135.8434 C   0  0  0  0  0  0  0  0  0  0  0  0
   10.4739   45.7387  136.3252 N   0  0  0  0  0  0  0  0  0  0  0  0
   10.7424   44.8184  135.3888 C   0  0  0  0  0  0  0  0  0  0  0  0
   11.6001   43.7311  135.3333 C   0  0  0  0  0  0  0  0  0  0  0  0
   11.6351   42.9679  134.1923 C   0  0  0  0  0  0  0  0  0  0  0  0
   10.8692   43.2081  133.0842 C   0  0  0  0  0  0  0  0  0  0  0  0
   10.0094   44.2951  133.1354 C   0  0  0  0  0  0  0  0  0  0  0  0
    9.9519   45.0904  134.2836 C   0  0  0  0  0  0  0  0  0  0  0  0
   10.9195   45.7775  137.2525 H   0  0  0  0  0  0  0  0  0  0  0  0
   10.9214   42.3861  131.8838 C   0  0  0  0  0  0  0  0  0  0  0  0
   11.5750   41.1379  131.8872 N   0  0  0  0  0  0  0  0  0  0  0  0
   10.3834   42.7732  130.8162 O   0  0  0  0  0  0  0  0  0  0  0  0
   11.0362   40.2681  132.0148 H   0  0  0  0  0  0  0  0  0  0  0  0
   12.5975   41.0949  131.7613 H   0  0  0  0  0  0  0  0  0  0  0  0
    6.6593   48.1382  129.7371 S   0  0  0  0  0  0  0  0  0  0  0  0
    5.3308   47.4528  129.4494 O   0  0  0  0  0  0  0  0  0  0  0  0
    6.3806   49.6223  129.6332 O   0  0  0  0  0  0  0  0  0  0  0  0
    9.5849   47.0496  126.4693 C   0  0  0  0  0  0  0  0  0  0  0  0
    9.7584   46.5719  127.7374 C   0  0  0  0  0  0  0  0  0  0  0  0
    8.8717   46.8953  128.7510 C   0  0  0  0  0  0  0  0  0  0  0  0
    7.7859   47.7100  128.5105 C   0  0  0  0  0  0  0  0  0  0  0  0
    7.6275   48.1820  127.2258 C   0  0  0  0  0  0  0  0  0  0  0  0
    8.5107   47.8629  126.2056 C   0  0  0  0  0  0  0  0  0  0  0  0
   10.2042   45.6892  124.5257 C   0  0  0  0  0  0  0  0  0  0  0  0
   10.4747   46.7331  125.4238 O   0  0  0  0  0  0  0  0  0  0  0  0
 31 32  1  0  0  0
 32 25  1  0  0  0
 25 26  2  0  0  0
 26 27  1  0  0  0
 27 28  2  0  0  0
 28 29  1  0  0  0
 29 30  2  0  0  0
 28 22  1  0  0  0
 22 23  2  0  0  0
 22 24  2  0  0  0
 22  1  1  0  0  0
  1  2  1  0  0  0
  2  3  1  0  0  0
  3  4  1  0  0  0
  4  5  1  0  0  0
  5  6  1  0  0  0
  4  7  1  0  0  0
  7  8  2  0  0  0
  8  9  1  0  0  0
  9 10  1  0  0  0
 10 11  2  0  0  0
 11 12  1  0  0  0
 12 13  2  0  0  0
 13 14  1  0  0  0
 14 15  2  0  0  0
 13 17  1  0  0  0
 17 18  1  0  0  0
 17 19  2  0  0  0
 30 25  1  0  0  0
  6  1  1  0  0  0
 15  7  1  0  0  0
  6  3  1  0  0  0
 15 10  1  0  0  0
  9 16  1  0  0  0
 18 20  1  0  0  0
 18 21  1  0  0  0
M  END
> <minimizedAffinity>
19.91784

> <CNNscore>
0.3923975229

> <CNNaffinity>
7.3038620949

> <CNN_VS>
2.8660173416

> <CNNaffinity_variance>
2.0190944672

$$$$
[H]c1c([H])c(C(=O)N([H])[C@]2([H])C([H])([H])[C@@]3([H])C([H])([H])N(S(=O)(=O)c4c([H])c([H])c(OC([H])([H])[H])c([H])c4[H])[C@]([H])(C([H])([H])C3([H])[H])C2([H])[H])c([H])c([H])c1Cl


 31 34  0  0  0  0  0  0  0  0999 V2000
    8.2821   47.5115  130.6137 N   0  0  0  0  0  0  0  0  0  0  0  0
    7.1313   47.9755  131.3123 C   0  0  0  0  0  0  0  0  0  0  0  0
    7.1866   49.4482  131.6429 C   0  0  0  0  0  0  0  0  0  0  0  0
    8.4374   49.8327  132.3748 C   0  0  0  0  0  0  0  0  0  0  0  0
    9.6367   48.9784  132.0253 C   0  0  0  0  0  0  0  0  0  0  0  0
    9.4229   48.3557  130.6640 C   0  0  0  0  0  0  0  0  0  0  0  0
    9.3191   49.4913  129.6524 C   0  0  0  0  0  0  0  0  0  0  0  0
    7.8768   49.7234  129.2641 C   0  0  0  0  0  0  0  0  0  0  0  0
    7.0075   50.2271  130.3571 C   0  0  0  0  0  0  0  0  0  0  0  0
    7.8176   50.6035  128.1327 N   0  0  0  0  0  0  0  0  0  0  0  0
    7.3496   51.9379  128.2089 C   0  0  0  0  0  0  0  0  0  0  0  0
    6.9536   52.4063  129.3227 O   0  0  0  0  0  0  0  0  0  0  0  0
    8.1292   50.2853  127.1700 H   0  0  0  0  0  0  0  0  0  0  0  0
    7.2973   52.8283  127.0409 C   0  0  0  0  0  0  0  0  0  0  0  0
    6.8207   54.1008  127.0691 C   0  0  0  0  0  0  0  0  0  0  0  0
    6.8117   54.8674  125.9021 C   0  0  0  0  0  0  0  0  0  0  0  0
    7.2635   54.4039  124.7082 C   0  0  0  0  0  0  0  0  0  0  0  0
    7.2273   55.4114  123.2780 Cl  0  0  0  0  0  0  0  0  0  0  0  0
    7.7505   53.1052  124.6770 C   0  0  0  0  0  0  0  0  0  0  0  0
    7.7579   52.3544  125.8258 C   0  0  0  0  0  0  0  0  0  0  0  0
    8.5091   45.8680  130.8270 S   0  0  0  0  0  0  0  0  0  0  0  0
    8.1265   45.4464  132.2312 O   0  0  0  0  0  0  0  0  0  0  0  0
    7.5233   45.1244  129.9291 O   0  0  0  0  0  0  0  0  0  0  0  0
   12.6816   44.2371  130.0927 C   0  0  0  0  0  0  0  0  0  0  0  0
   11.7359   44.1501  129.0938 C   0  0  0  0  0  0  0  0  0  0  0  0
   10.4598   44.6421  129.3016 C   0  0  0  0  0  0  0  0  0  0  0  0
   10.0734   45.2306  130.4866 C   0  0  0  0  0  0  0  0  0  0  0  0
   11.0421   45.3067  131.4769 C   0  0  0  0  0  0  0  0  0  0  0  0
   12.3248   44.8162  131.2783 C   0  0  0  0  0  0  0  0  0  0  0  0
   14.9134   44.4370  129.1130 C   0  0  0  0  0  0  0  0  0  0  0  0
   13.9766   43.7537  129.9224 O   0  0  0  0  0  0  0  0  0  0  0  0
 30 31  1  0  0  0
 31 24  1  0  0  0
 24 25  2  0  0  0
 25 26  1  0  0  0
 26 27  2  0  0  0
 27 28  1  0  0  0
 28 29  2  0  0  0
 27 21  1  0  0  0
 21 22  2  0  0  0
 21 23  2  0  0  0
 21  1  1  0  0  0
  1  2  1  0  0  0
  2  3  1  0  0  0
  3  4  1  0  0  0
  4  5  1  0  0  0
  5  6  1  0  0  0
  6  7  1  0  0  0
  7  8  1  0  0  0
  8  9  1  0  0  0
  8 10  1  0  0  0
 10 11  1  0  0  0
 11 12  2  0  0  0
 11 14  1  0  0  0
 14 15  2  0  0  0
 15 16  1  0  0  0
 16 17  2  0  0  0
 17 18  1  0  0  0
 17 19  1  0  0  0
 19 20  2  0  0  0
 29 24  1  0  0  0
  6  1  1  0  0  0
 20 14  1  0  0  0
  9  3  1  0  0  0
 10 13  1  0  0  0
M  END
> <minimizedAffinity>
6.05159

> <CNNscore>
0.5306240916

> <CNNaffinity>
7.2095937729

> <CNN_VS>
3.8255841732

> <CNNaffinity_variance>
0.7402981520

$$$$
[H]c1c([H])c(C(=O)N([H])[C@]2([H])C([H])([H])[C@@]3([H])C([H])([H])N(S(=O)(=O)c4c([H])c([H])c(OC([H])([H])[H])c([H])c4[H])[C@]([H])(C([H])([H])C3([H])[H])C2([H])[H])c([H])c([H])c1Cl


 31 34  0  0  0  0  0  0  0  0999 V2000
    9.8622   47.4297  131.4028 N   0  0  0  0  0  0  0  0  0  0  0  0
    8.5087   47.1345  131.7327 C   0  0  0  0  0  0  0  0  0  0  0  0
    7.7225   48.3473  132.1708 C   0  0  0  0  0  0  0  0  0  0  0  0
    8.3850   49.0968  133.2876 C   0  0  0  0  0  0  0  0  0  0  0  0
    9.8954   49.0028  133.2747 C   0  0  0  0  0  0  0  0  0  0  0  0
   10.3603   48.6733  131.8740 C   0  0  0  0  0  0  0  0  0  0  0  0
    9.9335   49.8224  130.9678 C   0  0  0  0  0  0  0  0  0  0  0  0
    8.7157   49.4347  130.1605 C   0  0  0  0  0  0  0  0  0  0  0  0
    7.4809   49.2169  130.9554 C   0  0  0  0  0  0  0  0  0  0  0  0
    8.4847   50.4126  129.1364 N   0  0  0  0  0  0  0  0  0  0  0  0
    7.4956   51.4213  129.2331 C   0  0  0  0  0  0  0  0  0  0  0  0
    6.7587   51.4871  130.2671 O   0  0  0  0  0  0  0  0  0  0  0  0
    9.0580   50.4220  128.2440 H   0  0  0  0  0  0  0  0  0  0  0  0
    7.2726   52.4178  128.1761 C   0  0  0  0  0  0  0  0  0  0  0  0
    6.9905   53.7274  128.4058 C   0  0  0  0  0  0  0  0  0  0  0  0
    6.7929   54.5964  127.3309 C   0  0  0  0  0  0  0  0  0  0  0  0
    6.8683   54.1995  126.0343 C   0  0  0  0  0  0  0  0  0  0  0  0
    6.6111   55.3347  124.7277 Cl  0  0  0  0  0  0  0  0  0  0  0  0
    7.1563   52.8633  125.7974 C   0  0  0  0  0  0  0  0  0  0  0  0
    7.3498   52.0116  126.8561 C   0  0  0  0  0  0  0  0  0  0  0  0
   10.8401   46.0813  131.5560 S   0  0  0  0  0  0  0  0  0  0  0  0
   12.1583   46.2839  130.8368 O   0  0  0  0  0  0  0  0  0  0  0  0
   11.2313   45.9334  133.0243 O   0  0  0  0  0  0  0  0  0  0  0  0
    9.1722   42.0205  130.3996 C   0  0  0  0  0  0  0  0  0  0  0  0
    9.0899   43.0653  129.5044 C   0  0  0  0  0  0  0  0  0  0  0  0
    9.5932   44.3090  129.8414 C   0  0  0  0  0  0  0  0  0  0  0  0
   10.1885   44.5658  131.0578 C   0  0  0  0  0  0  0  0  0  0  0  0
   10.2597   43.4991  131.9420 C   0  0  0  0  0  0  0  0  0  0  0  0
    9.7579   42.2478  131.6136 C   0  0  0  0  0  0  0  0  0  0  0  0
    9.4473   39.8222  129.3639 C   0  0  0  0  0  0  0  0  0  0  0  0
    8.6775   40.7540  130.0979 O   0  0  0  0  0  0  0  0  0  0  0  0
 30 31  1  0  0  0
 31 24  1  0  0  0
 24 25  2  0  0  0
 25 26  1  0  0  0
 26 27  2  0  0  0
 27 28  1  0  0  0
 28 29  2  0  0  0
 27 21  1  0  0  0
 21 22  2  0  0  0
 21 23  2  0  0  0
 21  1  1  0  0  0
  1  2  1  0  0  0
  2  3  1  0  0  0
  3  4  1  0  0  0
  4  5  1  0  0  0
  5  6  1  0  0  0
  6  7  1  0  0  0
  7  8  1  0  0  0
  8  9  1  0  0  0
  8 10  1  0  0  0
 10 11  1  0  0  0
 11 12  2  0  0  0
 11 14  1  0  0  0
 14 15  2  0  0  0
 15 16  1  0  0  0
 16 17  2  0  0  0
 17 18  1  0  0  0
 17 19  1  0  0  0
 19 20  2  0  0  0
 29 24  1  0  0  0
  6  1  1  0  0  0
 20 14  1  0  0  0
  9  3  1  0  0  0
 10 13  1  0  0  0
M  END
> <minimizedAffinity>
14.49474

> <CNNscore>
0.4770776629

> <CNNaffinity>
7.2062401772

> <CNN_VS>
3.4379363060

> <CNNaffinity_variance>
1.1979213953

$$$$
[H]c1c([H])c(C(=O)N([H])[C@]2([H])C([H])([H])[C@@]3([H])C([H])([H])N(S(=O)(=O)c4c([H])c([H])c(OC([H])([H])[H])c([H])c4[H])[C@]([H])(C([H])([H])C3([H])[H])C2([H])[H])c([H])c([H])c1Cl


 31 34  0  0  0  0  0  0  0  0999 V2000
    7.7370   49.5495  130.0981 N   0  0  0  0  0  0  0  0  0  0  0  0
    8.9982   50.0306  129.6445 C   0  0  0  0  0  0  0  0  0  0  0  0
   10.1468   49.6329  130.5409 C   0  0  0  0  0  0  0  0  0  0  0  0
    9.9233   50.0120  131.9742 C   0  0  0  0  0  0  0  0  0  0  0  0
    8.4667   50.0172  132.3847 C   0  0  0  0  0  0  0  0  0  0  0  0
    7.6846   49.1210  131.4510 C   0  0  0  0  0  0  0  0  0  0  0  0
    8.2325   47.7071  131.6078 C   0  0  0  0  0  0  0  0  0  0  0  0
    9.1344   47.3577  130.4462 C   0  0  0  0  0  0  0  0  0  0  0  0
   10.3884   48.1485  130.3673 C   0  0  0  0  0  0  0  0  0  0  0  0
    9.4297   45.9539  130.4702 N   0  0  0  0  0  0  0  0  0  0  0  0
   10.0997   45.3182  131.5437 C   0  0  0  0  0  0  0  0  0  0  0  0
   10.4721   46.0011  132.5495 O   0  0  0  0  0  0  0  0  0  0  0  0
    9.1520   45.3185  129.6675 H   0  0  0  0  0  0  0  0  0  0  0  0
   10.3929   43.8782  131.5546 C   0  0  0  0  0  0  0  0  0  0  0  0
    9.6808   42.9467  130.8673 C   0  0  0  0  0  0  0  0  0  0  0  0
   10.0388   41.5993  130.9446 C   0  0  0  0  0  0  0  0  0  0  0  0
   11.0853   41.1527  131.6861 C   0  0  0  0  0  0  0  0  0  0  0  0
   11.4871   39.4505  131.7447 Cl  0  0  0  0  0  0  0  0  0  0  0  0
   11.8138   42.1016  132.3885 C   0  0  0  0  0  0  0  0  0  0  0  0
   11.4591   43.4252  132.3104 C   0  0  0  0  0  0  0  0  0  0  0  0
    6.4779   50.4867  129.5200 S   0  0  0  0  0  0  0  0  0  0  0  0
    5.4661   49.6366  128.7786 O   0  0  0  0  0  0  0  0  0  0  0  0
    5.7021   51.0408  130.7125 O   0  0  0  0  0  0  0  0  0  0  0  0
    7.5740   53.9126  126.7504 C   0  0  0  0  0  0  0  0  0  0  0  0
    7.1939   54.1859  128.0467 C   0  0  0  0  0  0  0  0  0  0  0  0
    6.8566   53.1534  128.9033 C   0  0  0  0  0  0  0  0  0  0  0  0
    6.8811   51.8301  128.5188 C   0  0  0  0  0  0  0  0  0  0  0  0
    7.2666   51.5797  127.2098 C   0  0  0  0  0  0  0  0  0  0  0  0
    7.6068   52.6083  126.3428 C   0  0  0  0  0  0  0  0  0  0  0  0
    7.8961   54.7084  124.4604 C   0  0  0  0  0  0  0  0  0  0  0  0
    7.9209   54.9238  125.8578 O   0  0  0  0  0  0  0  0  0  0  0  0
 30 31  1  0  0  0
 31 24  1  0  0  0
 24 25  2  0  0  0
 25 26  1  0  0  0
 26 27  2  0  0  0
 27 28  1  0  0  0
 28 29  2  0  0  0
 27 21  1  0  0  0
 21 22  2  0  0  0
 21 23  2  0  0  0
 21  1  1  0  0  0
  1  2  1  0  0  0
  2  3  1  0  0  0
  3  4  1  0  0  0
  4  5  1  0  0  0
  5  6  1  0  0  0
  6  7  1  0  0  0
  7  8  1  0  0  0
  8  9  1  0  0  0
  8 10  1  0  0  0
 10 11  1  0  0  0
 11 12  2  0  0  0
 11 14  1  0  0  0
 14 15  2  0  0  0
 15 16  1  0  0  0
 16 17  2  0  0  0
 17 18  1  0  0  0
 17 19  1  0  0  0
 19 20  2  0  0  0
 29 24  1  0  0  0
  6  1  1  0  0  0
 20 14  1  0  0  0
  9  3  1  0  0  0
 10 13  1  0  0  0
M  END
> <minimizedAffinity>
12.67855

> <CNNscore>
0.4531278908

> <CNNaffinity>
6.9861145020

> <CNN_VS>
3.1656033993

> <CNNaffinity_variance>
1.6145446301

$$$$
[H]c1c([H])c(C(=O)N([H])[C@]2([H])C([H])([H])[C@@]3([H])C([H])([H])N(S(=O)(=O)c4c([H])c([H])c(OC([H])([H])[H])c([H])c4[H])[C@]([H])(C([H])([H])C3([H])[H])C2([H])[H])c([H])c([H])c1Cl


 31 34  0  0  0  0  0  0  0  0999 V2000
    7.8329   46.9399  130.7094 N   0  0  0  0  0  0  0  0  0  0  0  0
    8.2949   47.8360  131.7150 C   0  0  0  0  0  0  0  0  0  0  0  0
    8.9674   47.1385  132.8736 C   0  0  0  0  0  0  0  0  0  0  0  0
    8.1152   46.0631  133.4780 C   0  0  0  0  0  0  0  0  0  0  0  0
    7.1808   45.3973  132.4913 C   0  0  0  0  0  0  0  0  0  0  0  0
    7.7263   45.5765  131.0924 C   0  0  0  0  0  0  0  0  0  0  0  0
    9.0788   44.8758  131.0353 C   0  0  0  0  0  0  0  0  0  0  0  0
   10.2012   45.8859  131.1074 C   0  0  0  0  0  0  0  0  0  0  0  0
   10.3053   46.6150  132.3965 C   0  0  0  0  0  0  0  0  0  0  0  0
   11.4463   45.2466  130.7929 N   0  0  0  0  0  0  0  0  0  0  0  0
   11.8647   44.9673  129.4691 C   0  0  0  0  0  0  0  0  0  0  0  0
   11.1190   45.2860  128.4899 O   0  0  0  0  0  0  0  0  0  0  0  0
   12.1216   44.9498  131.5553 H   0  0  0  0  0  0  0  0  0  0  0  0
   13.1449   44.3136  129.1629 C   0  0  0  0  0  0  0  0  0  0  0  0
   14.0511   43.9282  130.0996 C   0  0  0  0  0  0  0  0  0  0  0  0
   15.2422   43.3150  129.7060 C   0  0  0  0  0  0  0  0  0  0  0  0
   15.5569   43.0743  128.4069 C   0  0  0  0  0  0  0  0  0  0  0  0
   17.0659   42.3017  127.9734 Cl  0  0  0  0  0  0  0  0  0  0  0  0
   14.6334   43.4667  127.4490 C   0  0  0  0  0  0  0  0  0  0  0  0
   13.4637   44.0693  127.8392 C   0  0  0  0  0  0  0  0  0  0  0  0
    6.5842   47.6071  129.8186 S   0  0  0  0  0  0  0  0  0  0  0  0
    6.4234   46.8926  128.4921 O   0  0  0  0  0  0  0  0  0  0  0  0
    5.2720   47.3393  130.5517 O   0  0  0  0  0  0  0  0  0  0  0  0
    6.8279   52.0347  128.8461 C   0  0  0  0  0  0  0  0  0  0  0  0
    6.2476   51.6332  130.0301 C   0  0  0  0  0  0  0  0  0  0  0  0
    6.1653   50.2878  130.3413 C   0  0  0  0  0  0  0  0  0  0  0  0
    6.6458   49.3009  129.5077 C   0  0  0  0  0  0  0  0  0  0  0  0
    7.2252   49.7291  128.3221 C   0  0  0  0  0  0  0  0  0  0  0  0
    7.3126   51.0761  128.0007 C   0  0  0  0  0  0  0  0  0  0  0  0
    7.3315   53.7705  127.1986 C   0  0  0  0  0  0  0  0  0  0  0  0
    6.9297   53.3790  128.4967 O   0  0  0  0  0  0  0  0  0  0  0  0
 30 31  1  0  0  0
 31 24  1  0  0  0
 24 25  2  0  0  0
 25 26  1  0  0  0
 26 27  2  0  0  0
 27 28  1  0  0  0
 28 29  2  0  0  0
 27 21  1  0  0  0
 21 22  2  0  0  0
 21 23  2  0  0  0
 21  1  1  0  0  0
  1  2  1  0  0  0
  2  3  1  0  0  0
  3  4  1  0  0  0
  4  5  1  0  0  0
  5  6  1  0  0  0
  6  7  1  0  0  0
  7  8  1  0  0  0
  8  9  1  0  0  0
  8 10  1  0  0  0
 10 11  1  0  0  0
 11 12  2  0  0  0
 11 14  1  0  0  0
 14 15  2  0  0  0
 15 16  1  0  0  0
 16 17  2  0  0  0
 17 18  1  0  0  0
 17 19  1  0  0  0
 19 20  2  0  0  0
 29 24  1  0  0  0
  6  1  1  0  0  0
 20 14  1  0  0  0
  9  3  1  0  0  0
 10 13  1  0  0  0
M  END
> <minimizedAffinity>
17.04800

> <CNNscore>
0.4307224452

> <CNNaffinity>
7.1665740013

> <CNN_VS>
3.0868043900

> <CNNaffinity_variance>
2.0280220509

$$$$
[H]c1c([H])c(C(=O)N([H])[C@]2([H])C([H])([H])[C@@]3([H])C([H])([H])N(S(=O)(=O)c4c([H])c([H])c(OC([H])([H])[H])c([H])c4[H])[C@]([H])(C([H])([H])C3([H])[H])C2([H])[H])c([H])c([H])c1Cl


 31 34  0  0  0  0  0  0  0  0999 V2000
   10.6192   43.8591  130.7037 N   0  0  0  0  0  0  0  0  0  0  0  0
   11.6354   43.8265  129.7067 C   0  0  0  0  0  0  0  0  0  0  0  0
   11.0996   43.9754  128.3025 C   0  0  0  0  0  0  0  0  0  0  0  0
   10.0189   42.9857  127.9852 C   0  0  0  0  0  0  0  0  0  0  0  0
    9.1959   42.5738  129.1865 C   0  0  0  0  0  0  0  0  0  0  0  0
    9.2915   43.6486  130.2459 C   0  0  0  0  0  0  0  0  0  0  0  0
    8.6972   44.9238  129.6592 C   0  0  0  0  0  0  0  0  0  0  0  0
    9.7949   45.8775  129.2461 C   0  0  0  0  0  0  0  0  0  0  0  0
   10.6424   45.4072  128.1216 C   0  0  0  0  0  0  0  0  0  0  0  0
    9.2300   47.1610  128.9434 N   0  0  0  0  0  0  0  0  0  0  0  0
    8.6712   48.0159  129.9243 C   0  0  0  0  0  0  0  0  0  0  0  0
    8.6536   47.6533  131.1428 O   0  0  0  0  0  0  0  0  0  0  0  0
    9.2069   47.5325  127.9501 H   0  0  0  0  0  0  0  0  0  0  0  0
    8.0983   49.3295  129.5986 C   0  0  0  0  0  0  0  0  0  0  0  0
    7.9565   50.3453  130.4903 C   0  0  0  0  0  0  0  0  0  0  0  0
    7.3971   51.5577  130.0821 C   0  0  0  0  0  0  0  0  0  0  0  0
    6.9750   51.7881  128.8120 C   0  0  0  0  0  0  0  0  0  0  0  0
    6.2813   53.3292  128.3582 Cl  0  0  0  0  0  0  0  0  0  0  0  0
    7.1189   50.7527  127.8999 C   0  0  0  0  0  0  0  0  0  0  0  0
    7.6690   49.5622  128.3044 C   0  0  0  0  0  0  0  0  0  0  0  0
   11.1035   43.0762  132.1004 S   0  0  0  0  0  0  0  0  0  0  0  0
   10.5076   41.6851  132.1758 O   0  0  0  0  0  0  0  0  0  0  0  0
   12.6093   42.8367  132.0216 O   0  0  0  0  0  0  0  0  0  0  0  0
   10.2063   45.2777  135.9678 C   0  0  0  0  0  0  0  0  0  0  0  0
   11.0325   44.1747  135.9934 C   0  0  0  0  0  0  0  0  0  0  0  0
   11.3157   43.4927  134.8237 C   0  0  0  0  0  0  0  0  0  0  0  0
   10.8016   43.8676  133.6011 C   0  0  0  0  0  0  0  0  0  0  0  0
    9.9729   44.9802  133.6003 C   0  0  0  0  0  0  0  0  0  0  0  0
    9.6826   45.6712  134.7681 C   0  0  0  0  0  0  0  0  0  0  0  0
    9.4476   47.3301  137.0600 C   0  0  0  0  0  0  0  0  0  0  0  0
    9.8971   45.9909  137.1234 O   0  0  0  0  0  0  0  0  0  0  0  0
 30 31  1  0  0  0
 31 24  1  0  0  0
 24 25  2  0  0  0
 25 26  1  0  0  0
 26 27  2  0  0  0
 27 28  1  0  0  0
 28 29  2  0  0  0
 27 21  1  0  0  0
 21 22  2  0  0  0
 21 23  2  0  0  0
 21  1  1  0  0  0
  1  2  1  0  0  0
  2  3  1  0  0  0
  3  4  1  0  0  0
  4  5  1  0  0  0
  5  6  1  0  0  0
  6  7  1  0  0  0
  7  8  1  0  0  0
  8  9  1  0  0  0
  8 10  1  0  0  0
 10 11  1  0  0  0
 11 12  2  0  0  0
 11 14  1  0  0  0
 14 15  2  0  0  0
 15 16  1  0  0  0
 16 17  2  0  0  0
 17 18  1  0  0  0
 17 19  1  0  0  0
 19 20  2  0  0  0
 29 24  1  0  0  0
  6  1  1  0  0  0
 20 14  1  0  0  0
  9  3  1  0  0  0
 10 13  1  0  0  0
M  END
> <minimizedAffinity>
5.72814

> <CNNscore>
0.4166250229

> <CNNaffinity>
7.8018617630

> <CNN_VS>
3.2504508495

> <CNNaffinity_variance>
2.0173363686

$$$$
[H]c1c([H])c(C(=O)N([H])[C@]2([H])C([H])([H])[C@@]3([H])C([H])([H])N(S(=O)(=O)c4c([H])c([H])c(OC([H])([H])[H])c([H])c4[H])[C@]([H])(C([H])([H])C3([H])[H])C2([H])[H])c([H])c([H])c1Cl


 31 34  0  0  0  0  0  0  0  0999 V2000
    7.0735   49.0371  129.9818 N   0  0  0  0  0  0  0  0  0  0  0  0
    6.6881   47.9201  129.1870 C   0  0  0  0  0  0  0  0  0  0  0  0
    7.8155   46.9464  128.9384 C   0  0  0  0  0  0  0  0  0  0  0  0
    9.0354   47.6040  128.3661 C   0  0  0  0  0  0  0  0  0  0  0  0
    9.2142   49.0427  128.7999 C   0  0  0  0  0  0  0  0  0  0  0  0
    8.4702   49.2662  130.0973 C   0  0  0  0  0  0  0  0  0  0  0  0
    9.0978   48.3565  131.1473 C   0  0  0  0  0  0  0  0  0  0  0  0
    8.2245   47.1465  131.3886 C   0  0  0  0  0  0  0  0  0  0  0  0
    8.1056   46.2200  130.2346 C   0  0  0  0  0  0  0  0  0  0  0  0
    8.6869   46.4418  132.5495 N   0  0  0  0  0  0  0  0  0  0  0  0
    9.9505   45.8065  132.6219 C   0  0  0  0  0  0  0  0  0  0  0  0
   10.7351   45.8444  131.6222 O   0  0  0  0  0  0  0  0  0  0  0  0
    8.0890   46.3655  133.4224 H   0  0  0  0  0  0  0  0  0  0  0  0
   10.4110   45.0903  133.8197 C   0  0  0  0  0  0  0  0  0  0  0  0
    9.8851   45.2582  135.0616 C   0  0  0  0  0  0  0  0  0  0  0  0
   10.3950   44.5301  136.1384 C   0  0  0  0  0  0  0  0  0  0  0  0
   11.4130   43.6398  136.0145 C   0  0  0  0  0  0  0  0  0  0  0  0
   12.0108   42.7555  137.4011 Cl  0  0  0  0  0  0  0  0  0  0  0  0
   11.9515   43.4667  134.7477 C   0  0  0  0  0  0  0  0  0  0  0  0
   11.4480   44.1840  133.6914 C   0  0  0  0  0  0  0  0  0  0  0  0
    6.0794   50.3551  129.7124 S   0  0  0  0  0  0  0  0  0  0  0  0
    4.7196   49.9139  129.2100 O   0  0  0  0  0  0  0  0  0  0  0  0
    5.7868   51.0209  131.0548 O   0  0  0  0  0  0  0  0  0  0  0  0
    7.5871   53.7231  127.0682 C   0  0  0  0  0  0  0  0  0  0  0  0
    7.5493   52.4381  126.5711 C   0  0  0  0  0  0  0  0  0  0  0  0
    7.0928   51.4005  127.3640 C   0  0  0  0  0  0  0  0  0  0  0  0
    6.6622   51.5886  128.6597 C   0  0  0  0  0  0  0  0  0  0  0  0
    6.7095   52.8901  129.1379 C   0  0  0  0  0  0  0  0  0  0  0  0
    7.1657   53.9377  128.3506 C   0  0  0  0  0  0  0  0  0  0  0  0
    8.4528   54.6136  124.9614 C   0  0  0  0  0  0  0  0  0  0  0  0
    8.0398   54.7942  126.3017 O   0  0  0  0  0  0  0  0  0  0  0  0
 30 31  1  0  0  0
 31 24  1  0  0  0
 24 25  2  0  0  0
 25 26  1  0  0  0
 26 27  2  0  0  0
 27 28  1  0  0  0
 28 29  2  0  0  0
 27 21  1  0  0  0
 21 22  2  0  0  0
 21 23  2  0  0  0
 21  1  1  0  0  0
  1  2  1  0  0  0
  2  3  1  0  0  0
  3  4  1  0  0  0
  4  5  1  0  0  0
  5  6  1  0  0  0
  6  7  1  0  0  0
  7  8  1  0  0  0
  8  9  1  0  0  0
  8 10  1  0  0  0
 10 11  1  0  0  0
 11 12  2  0  0  0
 11 14  1  0  0  0
 14 15  2  0  0  0
 15 16  1  0  0  0
 16 17  2  0  0  0
 17 18  1  0  0  0
 17 19  1  0  0  0
 19 20  2  0  0  0
 29 24  1  0  0  0
  6  1  1  0  0  0
 20 14  1  0  0  0
  9  3  1  0  0  0
 10 13  1  0  0  0
M  END
> <minimizedAffinity>
13.17184

> <CNNscore>
0.3960497081

> <CNNaffinity>
6.8337717056

> <CNN_VS>
2.7065134048

> <CNNaffinity_variance>
1.0210375786

$$$$
[H]c1c([H])c(C(=O)N([H])[C@]2([H])C([H])([H])[C@@]3([H])C([H])([H])N(S(=O)(=O)c4c([H])c([H])c(OC([H])([H])[H])c([H])c4[H])[C@]([H])(C([H])([H])C3([H])[H])C2([H])[H])c([H])c([H])c1Cl


 31 34  0  0  0  0  0  0  0  0999 V2000
    7.6931   48.8924  130.3446 N   0  0  0  0  0  0  0  0  0  0  0  0
    8.5178   48.2714  129.3637 C   0  0  0  0  0  0  0  0  0  0  0  0
    9.9902   48.3358  129.6937 C   0  0  0  0  0  0  0  0  0  0  0  0
   10.4627   49.7314  129.9717 C   0  0  0  0  0  0  0  0  0  0  0  0
    9.4011   50.6274  130.5721 C   0  0  0  0  0  0  0  0  0  0  0  0
    8.3514   49.7717  131.2446 C   0  0  0  0  0  0  0  0  0  0  0  0
    9.0378   49.0046  132.3690 C   0  0  0  0  0  0  0  0  0  0  0  0
    9.2834   47.5708  131.9577 C   0  0  0  0  0  0  0  0  0  0  0  0
   10.2559   47.3952  130.8497 C   0  0  0  0  0  0  0  0  0  0  0  0
    9.6848   46.8031  133.1012 N   0  0  0  0  0  0  0  0  0  0  0  0
   10.4657   45.6251  133.0122 C   0  0  0  0  0  0  0  0  0  0  0  0
   10.8430   45.2014  131.8743 O   0  0  0  0  0  0  0  0  0  0  0  0
    9.4081   47.0919  134.0837 H   0  0  0  0  0  0  0  0  0  0  0  0
   10.8711   44.8507  134.1936 C   0  0  0  0  0  0  0  0  0  0  0  0
   10.1541   44.7807  135.3461 C   0  0  0  0  0  0  0  0  0  0  0  0
   10.6266   44.0172  136.4153 C   0  0  0  0  0  0  0  0  0  0  0  0
   11.7921   43.3213  136.3703 C   0  0  0  0  0  0  0  0  0  0  0  0
   12.3340   42.3809  137.7429 Cl  0  0  0  0  0  0  0  0  0  0  0  0
   12.5257   43.3912  135.1949 C   0  0  0  0  0  0  0  0  0  0  0  0
   12.0584   44.1426  134.1458 C   0  0  0  0  0  0  0  0  0  0  0  0
    6.2295   49.3794  129.6976 S   0  0  0  0  0  0  0  0  0  0  0  0
    5.7530   50.6649  130.3431 O   0  0  0  0  0  0  0  0  0  0  0  0
    6.4495   49.7526  128.2336 O   0  0  0  0  0  0  0  0  0  0  0  0
    2.9206   46.2728  129.7949 C   0  0  0  0  0  0  0  0  0  0  0  0
    2.5916   47.6112  129.7786 C   0  0  0  0  0  0  0  0  0  0  0  0
    3.5879   48.5704  129.7492 C   0  0  0  0  0  0  0  0  0  0  0  0
    4.9284   48.2501  129.7348 C   0  0  0  0  0  0  0  0  0  0  0  0
    5.2350   46.8972  129.7518 C   0  0  0  0  0  0  0  0  0  0  0  0
    4.2430   45.9273  129.7814 C   0  0  0  0  0  0  0  0  0  0  0  0
    0.5873   45.5742  129.5746 C   0  0  0  0  0  0  0  0  0  0  0  0
    1.9471   45.2773  129.8246 O   0  0  0  0  0  0  0  0  0  0  0  0
 30 31  1  0  0  0
 31 24  1  0  0  0
 24 25  2  0  0  0
 25 26  1  0  0  0
 26 27  2  0  0  0
 27 28  1  0  0  0
 28 29  2  0  0  0
 27 21  1  0  0  0
 21 22  2  0  0  0
 21 23  2  0  0  0
 21  1  1  0  0  0
  1  2  1  0  0  0
  2  3  1  0  0  0
  3  4  1  0  0  0
  4  5  1  0  0  0
  5  6  1  0  0  0
  6  7  1  0  0  0
  7  8  1  0  0  0
  8  9  1  0  0  0
  8 10  1  0  0  0
 10 11  1  0  0  0
 11 12  2  0  0  0
 11 14  1  0  0  0
 14 15  2  0  0  0
 15 16  1  0  0  0
 16 17  2  0  0  0
 17 18  1  0  0  0
 17 19  1  0  0  0
 19 20  2  0  0  0
 29 24  1  0  0  0
  6  1  1  0  0  0
 20 14  1  0  0  0
  9  3  1  0  0  0
 10 13  1  0  0  0
M  END
> <minimizedAffinity>
20.79597

> <CNNscore>
0.3901622593

> <CNNaffinity>
7.0269317627

> <CNN_VS>
2.7416436672

> <CNNaffinity_variance>
1.6112220287

$$$$
[H]c1c([H])c(C(=O)N([H])[C@]2([H])C([H])([H])[C@@]3([H])C([H])([H])N(S(=O)(=O)c4c([H])c([H])c(OC([H])([H])[H])c([H])c4[H])[C@]([H])(C([H])([H])C3([H])[H])C2([H])[H])c([H])c([H])c1Cl


 31 34  0  0  0  0  0  0  0  0999 V2000
    9.8664   45.4256  133.4118 N   0  0  0  0  0  0  0  0  0  0  0  0
    8.8097   45.4687  134.3654 C   0  0  0  0  0  0  0  0  0  0  0  0
    8.7509   46.7677  135.1336 C   0  0  0  0  0  0  0  0  0  0  0  0
   10.0573   47.1203  135.7793 C   0  0  0  0  0  0  0  0  0  0  0  0
   11.2678   46.6152  135.0245 C   0  0  0  0  0  0  0  0  0  0  0  0
   10.8928   46.3931  133.5765 C   0  0  0  0  0  0  0  0  0  0  0  0
   10.4828   47.7424  132.9977 C   0  0  0  0  0  0  0  0  0  0  0  0
    8.9777   47.8382  132.8946 C   0  0  0  0  0  0  0  0  0  0  0  0
    8.2606   47.8491  134.1945 C   0  0  0  0  0  0  0  0  0  0  0  0
    8.6199   48.9894  132.1169 N   0  0  0  0  0  0  0  0  0  0  0  0
    8.0185   48.9074  130.8374 C   0  0  0  0  0  0  0  0  0  0  0  0
    7.7733   47.7695  130.3259 O   0  0  0  0  0  0  0  0  0  0  0  0
    8.7939   49.9725  132.4752 H   0  0  0  0  0  0  0  0  0  0  0  0
    7.6555   50.0964  130.0536 C   0  0  0  0  0  0  0  0  0  0  0  0
    7.3380   51.3022  130.5945 C   0  0  0  0  0  0  0  0  0  0  0  0
    7.0042   52.3728  129.7626 C   0  0  0  0  0  0  0  0  0  0  0  0
    6.9775   52.2776  128.4081 C   0  0  0  0  0  0  0  0  0  0  0  0
    6.5513   53.6546  127.4160 Cl  0  0  0  0  0  0  0  0  0  0  0  0
    7.3014   51.0478  127.8537 C   0  0  0  0  0  0  0  0  0  0  0  0
    7.6289   49.9975  128.6742 C   0  0  0  0  0  0  0  0  0  0  0  0
   10.3162   43.8525  133.0639 S   0  0  0  0  0  0  0  0  0  0  0  0
   11.7388   43.5845  133.5117 O   0  0  0  0  0  0  0  0  0  0  0  0
    9.4698   42.9093  133.9153 O   0  0  0  0  0  0  0  0  0  0  0  0
   10.0208   42.5920  128.7128 C   0  0  0  0  0  0  0  0  0  0  0  0
    9.3208   41.8891  129.6696 C   0  0  0  0  0  0  0  0  0  0  0  0
    9.4002   42.2601  130.9998 C   0  0  0  0  0  0  0  0  0  0  0  0
   10.1629   43.3242  131.4309 C   0  0  0  0  0  0  0  0  0  0  0  0
   10.8583   44.0163  130.4500 C   0  0  0  0  0  0  0  0  0  0  0  0
   10.7853   43.6521  129.1131 C   0  0  0  0  0  0  0  0  0  0  0  0
    9.2323   43.0277  126.4391 C   0  0  0  0  0  0  0  0  0  0  0  0
    9.9670   42.2499  127.3638 O   0  0  0  0  0  0  0  0  0  0  0  0
 30 31  1  0  0  0
 31 24  1  0  0  0
 24 25  2  0  0  0
 25 26  1  0  0  0
 26 27  2  0  0  0
 27 28  1  0  0  0
 28 29  2  0  0  0
 27 21  1  0  0  0
 21 22  2  0  0  0
 21 23  2  0  0  0
 21  1  1  0  0  0
  1  2  1  0  0  0
  2  3  1  0  0  0
  3  4  1  0  0  0
  4  5  1  0  0  0
  5  6  1  0  0  0
  6  7  1  0  0  0
  7  8  1  0  0  0
  8  9  1  0  0  0
  8 10  1  0  0  0
 10 11  1  0  0  0
 11 12  2  0  0  0
 11 14  1  0  0  0
 14 15  2  0  0  0
 15 16  1  0  0  0
 16 17  2  0  0  0
 17 18  1  0  0  0
 17 19  1  0  0  0
 19 20  2  0  0  0
 29 24  1  0  0  0
  6  1  1  0  0  0
 20 14  1  0  0  0
  9  3  1  0  0  0
 10 13  1  0  0  0
M  END
> <minimizedAffinity>
7.90533

> <CNNscore>
0.3871274889

> <CNNaffinity>
7.4544968605

> <CNN_VS>
2.8858406544

> <CNNaffinity_variance>
1.3356106281

$$$$
[H]c1c([H])c(C(=O)N([H])[C@]2([H])C([H])([H])[C@@]3([H])C([H])([H])N(S(=O)(=O)c4c([H])c([H])c(OC([H])([H])[H])c([H])c4[H])[C@]([H])(C([H])([H])C3([H])[H])C2([H])[H])c([H])c([H])c1Cl


 31 34  0  0  0  0  0  0  0  0999 V2000
   10.8058   44.1789  130.8138 N   0  0  0  0  0  0  0  0  0  0  0  0
   11.9103   44.2272  129.9163 C   0  0  0  0  0  0  0  0  0  0  0  0
   11.5009   44.4162  128.4749 C   0  0  0  0  0  0  0  0  0  0  0  0
   10.4958   43.4014  128.0186 C   0  0  0  0  0  0  0  0  0  0  0  0
    9.5829   42.9079  129.1201 C   0  0  0  0  0  0  0  0  0  0  0  0
    9.5359   43.9389  130.2252 C   0  0  0  0  0  0  0  0  0  0  0  0
    8.9464   45.2152  129.6358 C   0  0  0  0  0  0  0  0  0  0  0  0
   10.0375   46.2259  129.3657 C   0  0  0  0  0  0  0  0  0  0  0  0
   11.0040   45.8364  128.3082 C   0  0  0  0  0  0  0  0  0  0  0  0
    9.4507   47.4993  129.0618 N   0  0  0  0  0  0  0  0  0  0  0  0
    8.6465   48.2231  129.9754 C   0  0  0  0  0  0  0  0  0  0  0  0
    8.4139   47.7441  131.1300 O   0  0  0  0  0  0  0  0  0  0  0  0
    9.5980   47.9632  128.1193 H   0  0  0  0  0  0  0  0  0  0  0  0
    8.0541   49.5281  129.6500 C   0  0  0  0  0  0  0  0  0  0  0  0
    7.8093   50.5064  130.5613 C   0  0  0  0  0  0  0  0  0  0  0  0
    7.2403   51.7138  130.1514 C   0  0  0  0  0  0  0  0  0  0  0  0
    6.9083   51.9755  128.8608 C   0  0  0  0  0  0  0  0  0  0  0  0
    6.1973   53.5083  128.4060 Cl  0  0  0  0  0  0  0  0  0  0  0  0
    7.1574   50.9785  127.9288 C   0  0  0  0  0  0  0  0  0  0  0  0
    7.7166   49.7928  128.3350 C   0  0  0  0  0  0  0  0  0  0  0  0
   11.1907   43.3553  132.2179 S   0  0  0  0  0  0  0  0  0  0  0  0
   12.2948   42.3477  131.9693 O   0  0  0  0  0  0  0  0  0  0  0  0
   11.8009   44.3460  133.2064 O   0  0  0  0  0  0  0  0  0  0  0  0
    7.7026   41.3145  134.2861 C   0  0  0  0  0  0  0  0  0  0  0  0
    8.9860   41.0723  134.7268 C   0  0  0  0  0  0  0  0  0  0  0  0
   10.0598   41.6860  134.1073 C   0  0  0  0  0  0  0  0  0  0  0  0
    9.9105   42.5503  133.0440 C   0  0  0  0  0  0  0  0  0  0  0  0
    8.6099   42.7784  132.6182 C   0  0  0  0  0  0  0  0  0  0  0  0
    7.5261   42.1677  133.2329 C   0  0  0  0  0  0  0  0  0  0  0  0
    5.2794   41.0653  134.5023 C   0  0  0  0  0  0  0  0  0  0  0  0
    6.5957   40.7161  134.8831 O   0  0  0  0  0  0  0  0  0  0  0  0
 30 31  1  0  0  0
 31 24  1  0  0  0
 24 25  2  0  0  0
 25 26  1  0  0  0
 26 27  2  0  0  0
 27 28  1  0  0  0
 28 29  2  0  0  0
 27 21  1  0  0  0
 21 22  2  0  0  0
 21 23  2  0  0  0
 21  1  1  0  0  0
  1  2  1  0  0  0
  2  3  1  0  0  0
  3  4  1  0  0  0
  4  5  1  0  0  0
  5  6  1  0  0  0
  6  7  1  0  0  0
  7  8  1  0  0  0
  8  9  1  0  0  0
  8 10  1  0  0  0
 10 11  1  0  0  0
 11 12  2  0  0  0
 11 14  1  0  0  0
 14 15  2  0  0  0
 15 16  1  0  0  0
 16 17  2  0  0  0
 17 18  1  0  0  0
 17 19  1  0  0  0
 19 20  2  0  0  0
 29 24  1  0  0  0
  6  1  1  0  0  0
 20 14  1  0  0  0
  9  3  1  0  0  0
 10 13  1  0  0  0
M  END
> <minimizedAffinity>
12.54159

> <CNNscore>
0.3849034011

> <CNNaffinity>
7.2204041481

> <CNN_VS>
2.7791581154

> <CNNaffinity_variance>
0.8508622050

$$$$
[H]c1c([H])c(C(=O)N([H])[C@]2([H])C([H])([H])[C@@]3([H])C([H])([H])N(S(=O)(=O)c4c([H])c([H])c(OC([H])([H])[H])c([H])c4[H])[C@]([H])(C([H])([H])C3([H])[H])C2([H])[H])c([H])c([H])c1F


 31 34  0  0  0  0  0  0  0  0999 V2000
    8.3393   47.2972  130.9747 N   0  0  0  0  0  0  0  0  0  0  0  0
    7.4137   48.0025  131.7913 C   0  0  0  0  0  0  0  0  0  0  0  0
    7.7716   49.4472  132.0403 C   0  0  0  0  0  0  0  0  0  0  0  0
    9.1732   49.6283  132.5244 C   0  0  0  0  0  0  0  0  0  0  0  0
   10.1529   48.6354  131.9395 C   0  0  0  0  0  0  0  0  0  0  0  0
    9.5816   47.9783  130.7191 C   0  0  0  0  0  0  0  0  0  0  0  0
    9.4376   49.0216  129.6257 C   0  0  0  0  0  0  0  0  0  0  0  0
    8.0195   49.5415  129.5526 C   0  0  0  0  0  0  0  0  0  0  0  0
    7.5810   50.2613  130.7782 C   0  0  0  0  0  0  0  0  0  0  0  0
    7.9086   50.4169  128.4104 N   0  0  0  0  0  0  0  0  0  0  0  0
    7.3236   51.6941  128.3924 C   0  0  0  0  0  0  0  0  0  0  0  0
    6.8316   52.1688  129.4394 O   0  0  0  0  0  0  0  0  0  0  0  0
    8.3127   50.0513  127.4889 H   0  0  0  0  0  0  0  0  0  0  0  0
    7.2658   52.4976  127.1897 C   0  0  0  0  0  0  0  0  0  0  0  0
    6.7286   53.7606  127.1041 C   0  0  0  0  0  0  0  0  0  0  0  0
    6.7092   54.4740  125.9093 C   0  0  0  0  0  0  0  0  0  0  0  0
    7.2297   53.9347  124.7702 C   0  0  0  0  0  0  0  0  0  0  0  0
    7.1961   54.6591  123.6130 F   0  0  0  0  0  0  0  0  0  0  0  0
    7.7742   52.6816  124.8086 C   0  0  0  0  0  0  0  0  0  0  0  0
    7.7851   51.9964  125.9878 C   0  0  0  0  0  0  0  0  0  0  0  0
    8.6588   45.7445  131.5930 S   0  0  0  0  0  0  0  0  0  0  0  0
    7.6637   44.7619  131.0059 O   0  0  0  0  0  0  0  0  0  0  0  0
    8.5623   45.7106  133.1060 O   0  0  0  0  0  0  0  0  0  0  0  0
   12.7575   44.1768  130.4149 C   0  0  0  0  0  0  0  0  0  0  0  0
   12.5741   44.7636  131.6568 C   0  0  0  0  0  0  0  0  0  0  0  0
   11.3313   45.2436  132.0244 C   0  0  0  0  0  0  0  0  0  0  0  0
   10.2456   45.1577  131.1830 C   0  0  0  0  0  0  0  0  0  0  0  0
   10.4460   44.5719  129.9535 C   0  0  0  0  0  0  0  0  0  0  0  0
   11.6798   44.0837  129.5618 C   0  0  0  0  0  0  0  0  0  0  0  0
   14.8027   44.4676  129.1703 C   0  0  0  0  0  0  0  0  0  0  0  0
   13.9876   43.6867  130.0165 O   0  0  0  0  0  0  0  0  0  0  0  0
 30 31  1  0  0  0
 31 24  1  0  0  0
 24 25  2  0  0  0
 25 26  1  0  0  0
 26 27  2  0  0  0
 27 28  1  0  0  0
 28 29  2  0  0  0
 27 21  1  0  0  0
 21 22  2  0  0  0
 21 23  2  0  0  0
 21  1  1  0  0  0
  1  2  1  0  0  0
  2  3  1  0  0  0
  3  4  1  0  0  0
  4  5  1  0  0  0
  5  6  1  0  0  0
  6  7  1  0  0  0
  7  8  1  0  0  0
  8  9  1  0  0  0
  8 10  1  0  0  0
 10 11  1  0  0  0
 11 12  2  0  0  0
 11 14  1  0  0  0
 14 15  2  0  0  0
 15 16  1  0  0  0
 16 17  2  0  0  0
 17 18  1  0  0  0
 17 19  1  0  0  0
 19 20  2  0  0  0
 29 24  1  0  0  0
  6  1  1  0  0  0
 20 14  1  0  0  0
  9  3  1  0  0  0
 10 13  1  0  0  0
M  END
> <minimizedAffinity>
8.13601

> <CNNscore>
0.4817817509

> <CNNaffinity>
7.0339980125

> <CNN_VS>
3.3888518810

> <CNNaffinity_variance>
0.6731981039

$$$$
[H]c1c([H])c(C(=O)N([H])[C@]2([H])C([H])([H])[C@@]3([H])C([H])([H])N(S(=O)(=O)c4c([H])c([H])c(OC([H])([H])[H])c([H])c4[H])[C@]([H])(C([H])([H])C3([H])[H])C2([H])[H])c([H])c([H])c1F


 31 34  0  0  0  0  0  0  0  0999 V2000
   10.8933   44.2103  130.6603 N   0  0  0  0  0  0  0  0  0  0  0  0
   11.6987   44.1494  129.4904 C   0  0  0  0  0  0  0  0  0  0  0  0
   10.9265   44.1960  128.1948 C   0  0  0  0  0  0  0  0  0  0  0  0
    9.8120   43.2025  128.1412 C   0  0  0  0  0  0  0  0  0  0  0  0
    9.1468   42.9604  129.4778 C   0  0  0  0  0  0  0  0  0  0  0  0
    9.4782   44.0571  130.4448 C   0  0  0  0  0  0  0  0  0  0  0  0
    8.8395   45.3456  129.9584 C   0  0  0  0  0  0  0  0  0  0  0  0
    9.8407   46.2040  129.2186 C   0  0  0  0  0  0  0  0  0  0  0  0
   10.3581   45.5812  127.9708 C   0  0  0  0  0  0  0  0  0  0  0  0
    9.2207   47.4697  128.9076 N   0  0  0  0  0  0  0  0  0  0  0  0
    8.5498   48.3134  129.8086 C   0  0  0  0  0  0  0  0  0  0  0  0
    8.4460   47.9846  131.0107 O   0  0  0  0  0  0  0  0  0  0  0  0
    9.2802   47.7916  127.8884 H   0  0  0  0  0  0  0  0  0  0  0  0
    7.9629   49.5704  129.3952 C   0  0  0  0  0  0  0  0  0  0  0  0
    7.6612   49.9172  128.0992 C   0  0  0  0  0  0  0  0  0  0  0  0
    7.0962   51.1478  127.7778 C   0  0  0  0  0  0  0  0  0  0  0  0
    6.8205   52.0608  128.7524 C   0  0  0  0  0  0  0  0  0  0  0  0
    6.2660   53.2598  128.4059 F   0  0  0  0  0  0  0  0  0  0  0  0
    7.1039   51.7587  130.0549 C   0  0  0  0  0  0  0  0  0  0  0  0
    7.6574   50.5482  130.3523 C   0  0  0  0  0  0  0  0  0  0  0  0
   11.4140   43.0938  131.8341 S   0  0  0  0  0  0  0  0  0  0  0  0
   12.9142   42.9075  131.7112 O   0  0  0  0  0  0  0  0  0  0  0  0
   10.7283   41.7506  131.6762 O   0  0  0  0  0  0  0  0  0  0  0  0
   10.5236   44.5451  136.0468 C   0  0  0  0  0  0  0  0  0  0  0  0
   11.4973   43.5808  135.8405 C   0  0  0  0  0  0  0  0  0  0  0  0
   11.7754   43.1329  134.5630 C   0  0  0  0  0  0  0  0  0  0  0  0
   11.1054   43.6207  133.4643 C   0  0  0  0  0  0  0  0  0  0  0  0
   10.1416   44.5780  133.6877 C   0  0  0  0  0  0  0  0  0  0  0  0
    9.8446   45.0429  134.9564 C   0  0  0  0  0  0  0  0  0  0  0  0
    9.6732   46.3063  137.4579 C   0  0  0  0  0  0  0  0  0  0  0  0
   10.2213   45.0146  137.3117 O   0  0  0  0  0  0  0  0  0  0  0  0
 30 31  1  0  0  0
 31 24  1  0  0  0
 24 25  2  0  0  0
 25 26  1  0  0  0
 26 27  2  0  0  0
 27 28  1  0  0  0
 28 29  2  0  0  0
 27 21  1  0  0  0
 21 22  2  0  0  0
 21 23  2  0  0  0
 21  1  1  0  0  0
  1  2  1  0  0  0
  2  3  1  0  0  0
  3  4  1  0  0  0
  4  5  1  0  0  0
  5  6  1  0  0  0
  6  7  1  0  0  0
  7  8  1  0  0  0
  8  9  1  0  0  0
  8 10  1  0  0  0
 10 11  1  0  0  0
 11 12  2  0  0  0
 11 14  1  0  0  0
 14 15  2  0  0  0
 15 16  1  0  0  0
 16 17  2  0  0  0
 17 18  1  0  0  0
 17 19  1  0  0  0
 19 20  2  0  0  0
 29 24  1  0  0  0
  6  1  1  0  0  0
 20 14  1  0  0  0
  9  3  1  0  0  0
 10 13  1  0  0  0
M  END
> <minimizedAffinity>
7.51984

> <CNNscore>
0.4642120302

> <CNNaffinity>
7.6666769981

> <CNN_VS>
3.5589637756

> <CNNaffinity_variance>
1.7481714487

$$$$
[H]c1c([H])c(C(=O)N([H])[C@]2([H])C([H])([H])[C@@]3([H])C([H])([H])N(S(=O)(=O)c4c([H])c([H])c(OC([H])([H])[H])c([H])c4[H])[C@]([H])(C([H])([H])C3([H])[H])C2([H])[H])c([H])c([H])c1F


 31 34  0  0  0  0  0  0  0  0999 V2000
    8.8147   45.6941  131.2167 N   0  0  0  0  0  0  0  0  0  0  0  0
    8.4394   44.5436  131.9627 C   0  0  0  0  0  0  0  0  0  0  0  0
    9.5497   43.5438  132.1738 C   0  0  0  0  0  0  0  0  0  0  0  0
   10.2481   43.1680  130.9078 C   0  0  0  0  0  0  0  0  0  0  0  0
   10.3494   44.2993  129.9090 C   0  0  0  0  0  0  0  0  0  0  0  0
   10.1000   45.6203  130.5725 C   0  0  0  0  0  0  0  0  0  0  0  0
   11.2336   45.9004  131.5428 C   0  0  0  0  0  0  0  0  0  0  0  0
   10.8412   45.5381  132.9574 C   0  0  0  0  0  0  0  0  0  0  0  0
   10.5692   44.0886  133.1515 C   0  0  0  0  0  0  0  0  0  0  0  0
   11.8960   45.9570  133.8491 N   0  0  0  0  0  0  0  0  0  0  0  0
   12.0285   47.2206  134.4487 C   0  0  0  0  0  0  0  0  0  0  0  0
   11.1798   48.1103  134.2209 O   0  0  0  0  0  0  0  0  0  0  0  0
   12.6494   45.2294  134.0709 H   0  0  0  0  0  0  0  0  0  0  0  0
   13.1268   47.5408  135.3355 C   0  0  0  0  0  0  0  0  0  0  0  0
   14.2914   46.8184  135.4493 C   0  0  0  0  0  0  0  0  0  0  0  0
   15.3062   47.1893  136.3266 C   0  0  0  0  0  0  0  0  0  0  0  0
   15.1749   48.2964  137.1118 C   0  0  0  0  0  0  0  0  0  0  0  0
   16.1879   48.6349  137.9628 F   0  0  0  0  0  0  0  0  0  0  0  0
   14.0339   49.0447  137.0318 C   0  0  0  0  0  0  0  0  0  0  0  0
   13.0494   48.6670  136.1668 C   0  0  0  0  0  0  0  0  0  0  0  0
    7.6272   46.1084  130.0707 S   0  0  0  0  0  0  0  0  0  0  0  0
    6.2848   45.5727  130.5308 O   0  0  0  0  0  0  0  0  0  0  0  0
    7.9475   45.5451  128.6998 O   0  0  0  0  0  0  0  0  0  0  0  0
    7.0263   50.5763  129.5030 C   0  0  0  0  0  0  0  0  0  0  0  0
    8.2202   50.1011  130.0218 C   0  0  0  0  0  0  0  0  0  0  0  0
    8.4125   48.7440  130.1982 C   0  0  0  0  0  0  0  0  0  0  0  0
    7.4397   47.8275  129.8701 C   0  0  0  0  0  0  0  0  0  0  0  0
    6.2602   48.3172  129.3562 C   0  0  0  0  0  0  0  0  0  0  0  0
    6.0431   49.6707  129.1698 C   0  0  0  0  0  0  0  0  0  0  0  0
    7.0662   52.5034  128.0536 C   0  0  0  0  0  0  0  0  0  0  0  0
    6.8020   51.9276  129.3140 O   0  0  0  0  0  0  0  0  0  0  0  0
 30 31  1  0  0  0
 31 24  1  0  0  0
 24 25  2  0  0  0
 25 26  1  0  0  0
 26 27  2  0  0  0
 27 28  1  0  0  0
 28 29  2  0  0  0
 27 21  1  0  0  0
 21 22  2  0  0  0
 21 23  2  0  0  0
 21  1  1  0  0  0
  1  2  1  0  0  0
  2  3  1  0  0  0
  3  4  1  0  0  0
  4  5  1  0  0  0
  5  6  1  0  0  0
  6  7  1  0  0  0
  7  8  1  0  0  0
  8  9  1  0  0  0
  8 10  1  0  0  0
 10 11  1  0  0  0
 11 12  2  0  0  0
 11 14  1  0  0  0
 14 15  2  0  0  0
 15 16  1  0  0  0
 16 17  2  0  0  0
 17 18  1  0  0  0
 17 19  1  0  0  0
 19 20  2  0  0  0
 29 24  1  0  0  0
  6  1  1  0  0  0
 20 14  1  0  0  0
  9  3  1  0  0  0
 10 13  1  0  0  0
M  END
> <minimizedAffinity>
10.03617

> <CNNscore>
0.4579912722

> <CNNaffinity>
7.5004014969

> <CNN_VS>
3.4351184368

> <CNNaffinity_variance>
1.3397432566

$$$$
[H]c1c([H])c(C(=O)N([H])[C@]2([H])C([H])([H])[C@@]3([H])C([H])([H])N(S(=O)(=O)c4c([H])c([H])c(OC([H])([H])[H])c([H])c4[H])[C@]([H])(C([H])([H])C3([H])[H])C2([H])[H])c([H])c([H])c1F


 31 34  0  0  0  0  0  0  0  0999 V2000
   10.8787   44.4039  131.1107 N   0  0  0  0  0  0  0  0  0  0  0  0
   12.0610   44.6455  130.3591 C   0  0  0  0  0  0  0  0  0  0  0  0
   11.8304   44.8823  128.8868 C   0  0  0  0  0  0  0  0  0  0  0  0
   10.9857   43.8278  128.2492 C   0  0  0  0  0  0  0  0  0  0  0  0
    9.9167   43.2691  129.1618 C   0  0  0  0  0  0  0  0  0  0  0  0
    9.6885   44.1762  130.3335 C   0  0  0  0  0  0  0  0  0  0  0  0
    9.0848   45.4763  129.8334 C   0  0  0  0  0  0  0  0  0  0  0  0
   10.1426   46.5468  129.6868 C   0  0  0  0  0  0  0  0  0  0  0  0
   11.1782   46.2307  128.6668 C   0  0  0  0  0  0  0  0  0  0  0  0
    9.4942   47.7915  129.3497 N   0  0  0  0  0  0  0  0  0  0  0  0
    8.5323   48.4660  130.1201 C   0  0  0  0  0  0  0  0  0  0  0  0
    8.1610   47.9857  131.2132 O   0  0  0  0  0  0  0  0  0  0  0  0
    9.7772   48.2394  128.4195 H   0  0  0  0  0  0  0  0  0  0  0  0
    7.9427   49.7171  129.6926 C   0  0  0  0  0  0  0  0  0  0  0  0
    7.5020   50.7141  130.5309 C   0  0  0  0  0  0  0  0  0  0  0  0
    6.9447   51.8931  130.0449 C   0  0  0  0  0  0  0  0  0  0  0  0
    6.8165   52.0988  128.7030 C   0  0  0  0  0  0  0  0  0  0  0  0
    6.2657   53.2660  128.2564 F   0  0  0  0  0  0  0  0  0  0  0  0
    7.2413   51.1346  127.8324 C   0  0  0  0  0  0  0  0  0  0  0  0
    7.7851   49.9852  128.3256 C   0  0  0  0  0  0  0  0  0  0  0  0
   11.0914   43.1252  132.2130 S   0  0  0  0  0  0  0  0  0  0  0  0
   11.8397   43.6371  133.4289 O   0  0  0  0  0  0  0  0  0  0  0  0
   11.8641   41.9746  131.5977 O   0  0  0  0  0  0  0  0  0  0  0  0
    7.1178   41.4242  133.6140 C   0  0  0  0  0  0  0  0  0  0  0  0
    8.2178   41.3913  134.4562 C   0  0  0  0  0  0  0  0  0  0  0  0
    9.4307   41.9061  134.0392 C   0  0  0  0  0  0  0  0  0  0  0  0
    9.5888   42.4623  132.7904 C   0  0  0  0  0  0  0  0  0  0  0  0
    8.4857   42.4866  131.9671 C   0  0  0  0  0  0  0  0  0  0  0  0
    7.2608   41.9781  132.3607 C   0  0  0  0  0  0  0  0  0  0  0  0
    5.7464   40.3593  135.2878 C   0  0  0  0  0  0  0  0  0  0  0  0
    5.8905   40.9179  134.0004 O   0  0  0  0  0  0  0  0  0  0  0  0
 30 31  1  0  0  0
 31 24  1  0  0  0
 24 25  2  0  0  0
 25 26  1  0  0  0
 26 27  2  0  0  0
 27 28  1  0  0  0
 28 29  2  0  0  0
 27 21  1  0  0  0
 21 22  2  0  0  0
 21 23  2  0  0  0
 21  1  1  0  0  0
  1  2  1  0  0  0
  2  3  1  0  0  0
  3  4  1  0  0  0
  4  5  1  0  0  0
  5  6  1  0  0  0
  6  7  1  0  0  0
  7  8  1  0  0  0
  8  9  1  0  0  0
  8 10  1  0  0  0
 10 11  1  0  0  0
 11 12  2  0  0  0
 11 14  1  0  0  0
 14 15  2  0  0  0
 15 16  1  0  0  0
 16 17  2  0  0  0
 17 18  1  0  0  0
 17 19  1  0  0  0
 19 20  2  0  0  0
 29 24  1  0  0  0
  6  1  1  0  0  0
 20 14  1  0  0  0
  9  3  1  0  0  0
 10 13  1  0  0  0
M  END
> <minimizedAffinity>
10.51329

> <CNNscore>
0.4463439286

> <CNNaffinity>
7.2034554482

> <CNN_VS>
3.2152185440

> <CNNaffinity_variance>
0.7918636203

$$$$
[H]c1c([H])c(C(=O)N([H])[C@]2([H])C([H])([H])[C@@]3([H])C([H])([H])N(S(=O)(=O)c4c([H])c([H])c(OC([H])([H])[H])c([H])c4[H])[C@]([H])(C([H])([H])C3([H])[H])C2([H])[H])c([H])c([H])c1F


 31 34  0  0  0  0  0  0  0  0999 V2000
    9.7989   45.0340  131.0040 N   0  0  0  0  0  0  0  0  0  0  0  0
    9.1747   44.1538  131.9296 C   0  0  0  0  0  0  0  0  0  0  0  0
   10.1153   43.1891  132.6091 C   0  0  0  0  0  0  0  0  0  0  0  0
   10.9837   42.4434  131.6491 C   0  0  0  0  0  0  0  0  0  0  0  0
   11.3830   43.2515  130.4344 C   0  0  0  0  0  0  0  0  0  0  0  0
   11.1630   44.7153  130.6720 C   0  0  0  0  0  0  0  0  0  0  0  0
   12.1287   45.1858  131.7449 C   0  0  0  0  0  0  0  0  0  0  0  0
   11.4535   45.2460  133.0965 C   0  0  0  0  0  0  0  0  0  0  0  0
   10.9966   43.9222  133.5980 C   0  0  0  0  0  0  0  0  0  0  0  0
   12.3711   45.8327  134.0436 N   0  0  0  0  0  0  0  0  0  0  0  0
   12.2969   47.1272  134.5845 C   0  0  0  0  0  0  0  0  0  0  0  0
   11.3671   47.8916  134.2457 O   0  0  0  0  0  0  0  0  0  0  0  0
   13.1872   45.2166  134.3605 H   0  0  0  0  0  0  0  0  0  0  0  0
   13.2701   47.6214  135.5352 C   0  0  0  0  0  0  0  0  0  0  0  0
   13.1011   48.7192  136.3460 C   0  0  0  0  0  0  0  0  0  0  0  0
   14.0848   49.1350  137.2384 C   0  0  0  0  0  0  0  0  0  0  0  0
   15.2636   48.4569  137.3376 C   0  0  0  0  0  0  0  0  0  0  0  0
   16.2097   48.8892  138.2226 F   0  0  0  0  0  0  0  0  0  0  0  0
   15.4751   47.3594  136.5508 C   0  0  0  0  0  0  0  0  0  0  0  0
   14.5006   46.9656  135.6817 C   0  0  0  0  0  0  0  0  0  0  0  0
    8.8866   45.1855  129.5757 S   0  0  0  0  0  0  0  0  0  0  0  0
    7.8601   44.0701  129.5216 O   0  0  0  0  0  0  0  0  0  0  0  0
    9.7621   45.1201  128.3393 O   0  0  0  0  0  0  0  0  0  0  0  0
    6.6895   49.1566  129.3549 C   0  0  0  0  0  0  0  0  0  0  0  0
    5.9966   47.9727  129.1581 C   0  0  0  0  0  0  0  0  0  0  0  0
    6.6559   46.7599  129.2232 C   0  0  0  0  0  0  0  0  0  0  0  0
    8.0054   46.6839  129.4821 C   0  0  0  0  0  0  0  0  0  0  0  0
    8.6778   47.8695  129.6750 C   0  0  0  0  0  0  0  0  0  0  0  0
    8.0411   49.0962  129.6151 C   0  0  0  0  0  0  0  0  0  0  0  0
    6.7974   51.5235  128.9051 C   0  0  0  0  0  0  0  0  0  0  0  0
    6.0600   50.3863  129.2965 O   0  0  0  0  0  0  0  0  0  0  0  0
 30 31  1  0  0  0
 31 24  1  0  0  0
 24 25  2  0  0  0
 25 26  1  0  0  0
 26 27  2  0  0  0
 27 28  1  0  0  0
 28 29  2  0  0  0
 27 21  1  0  0  0
 21 22  2  0  0  0
 21 23  2  0  0  0
 21  1  1  0  0  0
  1  2  1  0  0  0
  2  3  1  0  0  0
  3  4  1  0  0  0
  4  5  1  0  0  0
  5  6  1  0  0  0
  6  7  1  0  0  0
  7  8  1  0  0  0
  8  9  1  0  0  0
  8 10  1  0  0  0
 10 11  1  0  0  0
 11 12  2  0  0  0
 11 14  1  0  0  0
 14 15  2  0  0  0
 15 16  1  0  0  0
 16 17  2  0  0  0
 17 18  1  0  0  0
 17 19  1  0  0  0
 19 20  2  0  0  0
 29 24  1  0  0  0
  6  1  1  0  0  0
 20 14  1  0  0  0
  9  3  1  0  0  0
 10 13  1  0  0  0
M  END
> <minimizedAffinity>
8.82937

> <CNNscore>
0.3968550563

> <CNNaffinity>
7.5002393723

> <CNN_VS>
2.9765079021

> <CNNaffinity_variance>
0.9382451773

$$$$
[H]c1c([H])c(C(=O)N([H])[C@]2([H])C([H])([H])[C@@]3([H])C([H])([H])N(S(=O)(=O)c4c([H])c([H])c(OC([H])([H])[H])c([H])c4[H])[C@]([H])(C([H])([H])C3([H])[H])C2([H])[H])c([H])c([H])c1F


 31 34  0  0  0  0  0  0  0  0999 V2000
   10.1286   46.8452  132.5705 N   0  0  0  0  0  0  0  0  0  0  0  0
   11.4484   46.6584  133.0645 C   0  0  0  0  0  0  0  0  0  0  0  0
   11.7134   45.2900  133.6427 C   0  0  0  0  0  0  0  0  0  0  0  0
   10.6911   44.8710  134.6483 C   0  0  0  0  0  0  0  0  0  0  0  0
    9.2963   45.3706  134.3436 C   0  0  0  0  0  0  0  0  0  0  0  0
    9.1880   45.8111  132.9147 C   0  0  0  0  0  0  0  0  0  0  0  0
    9.3339   44.5953  132.0172 C   0  0  0  0  0  0  0  0  0  0  0  0
   10.7439   44.4784  131.4838 C   0  0  0  0  0  0  0  0  0  0  0  0
   11.7676   44.2545  132.5396 C   0  0  0  0  0  0  0  0  0  0  0  0
   10.7869   43.3962  130.5297 N   0  0  0  0  0  0  0  0  0  0  0  0
    9.7731   43.0426  129.6237 C   0  0  0  0  0  0  0  0  0  0  0  0
    8.7050   43.6924  129.5992 O   0  0  0  0  0  0  0  0  0  0  0  0
   11.6812   42.8080  130.5165 H   0  0  0  0  0  0  0  0  0  0  0  0
    9.9167   41.9368  128.7007 C   0  0  0  0  0  0  0  0  0  0  0  0
   10.1233   42.0552  127.3464 C   0  0  0  0  0  0  0  0  0  0  0  0
   10.2525   40.9426  126.5203 C   0  0  0  0  0  0  0  0  0  0  0  0
   10.1770   39.6825  127.0360 C   0  0  0  0  0  0  0  0  0  0  0  0
   10.3075   38.6105  126.2001 F   0  0  0  0  0  0  0  0  0  0  0  0
    9.9724   39.5172  128.3773 C   0  0  0  0  0  0  0  0  0  0  0  0
    9.8480   40.6183  129.1724 C   0  0  0  0  0  0  0  0  0  0  0  0
    9.5008   48.3595  133.0267 S   0  0  0  0  0  0  0  0  0  0  0  0
   10.6481   49.2860  133.3817 O   0  0  0  0  0  0  0  0  0  0  0  0
    8.5639   48.2458  134.2136 O   0  0  0  0  0  0  0  0  0  0  0  0
    7.2060   50.4979  129.7394 C   0  0  0  0  0  0  0  0  0  0  0  0
    7.0148   49.1407  129.9437 C   0  0  0  0  0  0  0  0  0  0  0  0
    7.7081   48.4813  130.9410 C   0  0  0  0  0  0  0  0  0  0  0  0
    8.6011   49.1385  131.7562 C   0  0  0  0  0  0  0  0  0  0  0  0
    8.7786   50.4863  131.5392 C   0  0  0  0  0  0  0  0  0  0  0  0
    8.0969   51.1693  130.5479 C   0  0  0  0  0  0  0  0  0  0  0  0
    7.0593   52.4007  128.2650 C   0  0  0  0  0  0  0  0  0  0  0  0
    6.5284   51.1873  128.7507 O   0  0  0  0  0  0  0  0  0  0  0  0
 30 31  1  0  0  0
 31 24  1  0  0  0
 24 25  2  0  0  0
 25 26  1  0  0  0
 26 27  2  0  0  0
 27 28  1  0  0  0
 28 29  2  0  0  0
 27 21  1  0  0  0
 21 22  2  0  0  0
 21 23  2  0  0  0
 21  1  1  0  0  0
  1  2  1  0  0  0
  2  3  1  0  0  0
  3  4  1  0  0  0
  4  5  1  0  0  0
  5  6  1  0  0  0
  6  7  1  0  0  0
  7  8  1  0  0  0
  8  9  1  0  0  0
  8 10  1  0  0  0
 10 11  1  0  0  0
 11 12  2  0  0  0
 11 14  1  0  0  0
 14 15  2  0  0  0
 15 16  1  0  0  0
 16 17  2  0  0  0
 17 18  1  0  0  0
 17 19  1  0  0  0
 19 20  2  0  0  0
 29 24  1  0  0  0
  6  1  1  0  0  0
 20 14  1  0  0  0
  9  3  1  0  0  0
 10 13  1  0  0  0
M  END
> <minimizedAffinity>
15.48626

> <CNNscore>
0.3815771043

> <CNNaffinity>
7.4800462723

> <CNN_VS>
2.8542144299

> <CNNaffinity_variance>
1.7765724659

$$$$
[H]c1c([H])c(C(=O)N([H])[C@]2([H])C([H])([H])[C@@]3([H])C([H])([H])N(S(=O)(=O)c4c([H])c([H])c(OC([H])([H])[H])c([H])c4[H])[C@]([H])(C([H])([H])C3([H])[H])C2([H])[H])c([H])c([H])c1F


 31 34  0  0  0  0  0  0  0  0999 V2000
    9.3017   45.8563  131.7426 N   0  0  0  0  0  0  0  0  0  0  0  0
    8.3205   45.9840  132.7634 C   0  0  0  0  0  0  0  0  0  0  0  0
    8.4388   47.2389  133.5930 C   0  0  0  0  0  0  0  0  0  0  0  0
    9.8155   47.4581  134.1304 C   0  0  0  0  0  0  0  0  0  0  0  0
   10.9137   46.9883  133.2025 C   0  0  0  0  0  0  0  0  0  0  0  0
   10.3900   46.7962  131.8109 C   0  0  0  0  0  0  0  0  0  0  0  0
   10.0016   48.1502  131.2447 C   0  0  0  0  0  0  0  0  0  0  0  0
    8.5134   48.3865  131.3712 C   0  0  0  0  0  0  0  0  0  0  0  0
    8.0336   48.4485  132.7778 C   0  0  0  0  0  0  0  0  0  0  0  0
    8.1833   49.6164  130.6918 N   0  0  0  0  0  0  0  0  0  0  0  0
    7.6975   49.7396  129.3793 C   0  0  0  0  0  0  0  0  0  0  0  0
    7.5170   48.7166  128.6832 O   0  0  0  0  0  0  0  0  0  0  0  0
    8.3258   50.5204  131.2472 H   0  0  0  0  0  0  0  0  0  0  0  0
    7.3919   51.0255  128.7890 C   0  0  0  0  0  0  0  0  0  0  0  0
    6.8939   52.1124  129.4684 C   0  0  0  0  0  0  0  0  0  0  0  0
    6.6242   53.3199  128.8310 C   0  0  0  0  0  0  0  0  0  0  0  0
    6.8487   53.4644  127.4938 C   0  0  0  0  0  0  0  0  0  0  0  0
    6.5742   54.6615  126.8966 F   0  0  0  0  0  0  0  0  0  0  0  0
    7.3432   52.4100  126.7783 C   0  0  0  0  0  0  0  0  0  0  0  0
    7.6020   51.2339  127.4186 C   0  0  0  0  0  0  0  0  0  0  0  0
    9.9213   44.2733  131.6684 S   0  0  0  0  0  0  0  0  0  0  0  0
    8.9812   43.4101  130.8489 O   0  0  0  0  0  0  0  0  0  0  0  0
   10.0822   43.6667  133.0488 O   0  0  0  0  0  0  0  0  0  0  0  0
   13.9430   44.0784  129.5627 C   0  0  0  0  0  0  0  0  0  0  0  0
   13.8476   43.7334  130.9014 C   0  0  0  0  0  0  0  0  0  0  0  0
   12.6289   43.7895  131.5508 C   0  0  0  0  0  0  0  0  0  0  0  0
   11.4816   44.1843  130.9014 C   0  0  0  0  0  0  0  0  0  0  0  0
   11.5947   44.5233  129.5720 C   0  0  0  0  0  0  0  0  0  0  0  0
   12.8027   44.4755  128.8993 C   0  0  0  0  0  0  0  0  0  0  0  0
   15.4207   42.9422  128.0325 C   0  0  0  0  0  0  0  0  0  0  0  0
   15.1467   44.0332  128.8837 O   0  0  0  0  0  0  0  0  0  0  0  0
 30 31  1  0  0  0
 31 24  1  0  0  0
 24 25  2  0  0  0
 25 26  1  0  0  0
 26 27  2  0  0  0
 27 28  1  0  0  0
 28 29  2  0  0  0
 27 21  1  0  0  0
 21 22  2  0  0  0
 21 23  2  0  0  0
 21  1  1  0  0  0
  1  2  1  0  0  0
  2  3  1  0  0  0
  3  4  1  0  0  0
  4  5  1  0  0  0
  5  6  1  0  0  0
  6  7  1  0  0  0
  7  8  1  0  0  0
  8  9  1  0  0  0
  8 10  1  0  0  0
 10 11  1  0  0  0
 11 12  2  0  0  0
 11 14  1  0  0  0
 14 15  2  0  0  0
 15 16  1  0  0  0
 16 17  2  0  0  0
 17 18  1  0  0  0
 17 19  1  0  0  0
 19 20  2  0  0  0
 29 24  1  0  0  0
  6  1  1  0  0  0
 20 14  1  0  0  0
  9  3  1  0  0  0
 10 13  1  0  0  0
M  END
> <minimizedAffinity>
10.92722

> <CNNscore>
0.3633775115

> <CNNaffinity>
7.1175813675

> <CNN_VS>
2.5863690376

> <CNNaffinity_variance>
0.7730019689

$$$$
[H]c1c([H])c(C(=O)N([H])[C@]2([H])C([H])([H])[C@@]3([H])C([H])([H])N(S(=O)(=O)c4c([H])c([H])c(OC([H])([H])[H])c([H])c4[H])[C@]([H])(C([H])([H])C3([H])[H])C2([H])[H])c([H])c([H])c1F


 31 34  0  0  0  0  0  0  0  0999 V2000
   10.9154   44.3277  130.5831 N   0  0  0  0  0  0  0  0  0  0  0  0
   11.7071   44.6607  129.4503 C   0  0  0  0  0  0  0  0  0  0  0  0
   10.9991   44.5136  128.1258 C   0  0  0  0  0  0  0  0  0  0  0  0
   10.3409   43.1830  127.9581 C   0  0  0  0  0  0  0  0  0  0  0  0
    9.7898   42.6094  129.2445 C   0  0  0  0  0  0  0  0  0  0  0  0
    9.6660   43.6739  130.2930 C   0  0  0  0  0  0  0  0  0  0  0  0
    8.5995   44.6635  129.8596 C   0  0  0  0  0  0  0  0  0  0  0  0
    9.2188   45.8871  129.2227 C   0  0  0  0  0  0  0  0  0  0  0  0
    9.9564   45.5991  127.9634 C   0  0  0  0  0  0  0  0  0  0  0  0
    8.1747   46.8494  128.9636 N   0  0  0  0  0  0  0  0  0  0  0  0
    7.6699   47.7966  129.8702 C   0  0  0  0  0  0  0  0  0  0  0  0
    8.1309   47.8551  131.0311 O   0  0  0  0  0  0  0  0  0  0  0  0
    7.7458   46.8346  127.9828 H   0  0  0  0  0  0  0  0  0  0  0  0
    6.6190   48.7242  129.5090 C   0  0  0  0  0  0  0  0  0  0  0  0
    6.7487   50.0926  129.4657 C   0  0  0  0  0  0  0  0  0  0  0  0
    5.6902   50.9224  129.1078 C   0  0  0  0  0  0  0  0  0  0  0  0
    4.4744   50.3964  128.7845 C   0  0  0  0  0  0  0  0  0  0  0  0
    3.4550   51.2363  128.4375 F   0  0  0  0  0  0  0  0  0  0  0  0
    4.2998   49.0411  128.8141 C   0  0  0  0  0  0  0  0  0  0  0  0
    5.3476   48.2425  129.1670 C   0  0  0  0  0  0  0  0  0  0  0  0
   11.7946   43.4008  131.7071 S   0  0  0  0  0  0  0  0  0  0  0  0
   13.2763   43.6624  131.5154 O   0  0  0  0  0  0  0  0  0  0  0  0
   11.5236   41.9174  131.5476 O   0  0  0  0  0  0  0  0  0  0  0  0
   10.7491   44.5227  135.9842 C   0  0  0  0  0  0  0  0  0  0  0  0
   11.6891   43.5341  135.7403 C   0  0  0  0  0  0  0  0  0  0  0  0
   12.0138   43.1857  134.4429 C   0  0  0  0  0  0  0  0  0  0  0  0
   11.4244   43.7987  133.3609 C   0  0  0  0  0  0  0  0  0  0  0  0
   10.4931   44.7784  133.6217 C   0  0  0  0  0  0  0  0  0  0  0  0
   10.1506   45.1454  134.9109 C   0  0  0  0  0  0  0  0  0  0  0  0
    9.6644   46.0805  137.4718 C   0  0  0  0  0  0  0  0  0  0  0  0
   10.4017   44.8948  137.2698 O   0  0  0  0  0  0  0  0  0  0  0  0
 30 31  1  0  0  0
 31 24  1  0  0  0
 24 25  2  0  0  0
 25 26  1  0  0  0
 26 27  2  0  0  0
 27 28  1  0  0  0
 28 29  2  0  0  0
 27 21  1  0  0  0
 21 22  2  0  0  0
 21 23  2  0  0  0
 21  1  1  0  0  0
  1  2  1  0  0  0
  2  3  1  0  0  0
  3  4  1  0  0  0
  4  5  1  0  0  0
  5  6  1  0  0  0
  6  7  1  0  0  0
  7  8  1  0  0  0
  8  9  1  0  0  0
  8 10  1  0  0  0
 10 11  1  0  0  0
 11 12  2  0  0  0
 11 14  1  0  0  0
 14 15  2  0  0  0
 15 16  1  0  0  0
 16 17  2  0  0  0
 17 18  1  0  0  0
 17 19  1  0  0  0
 19 20  2  0  0  0
 29 24  1  0  0  0
  6  1  1  0  0  0
 20 14  1  0  0  0
  9  3  1  0  0  0
 10 13  1  0  0  0
M  END
> <minimizedAffinity>
8.89111

> <CNNscore>
0.3604008853

> <CNNaffinity>
7.4308218956

> <CNN_VS>
2.6780748367

> <CNNaffinity_variance>
1.2545042038

$$$$
[H]c1c([H])c(C(=O)N([H])[C@]2([H])C([H])([H])[C@@]3([H])C([H])([H])N(S(=O)(=O)c4c([H])c([H])c(OC([H])([H])[H])c([H])c4[H])[C@]([H])(C([H])([H])C3([H])[H])C2([H])[H])c([H])c([H])c1F


 31 34  0  0  0  0  0  0  0  0999 V2000
   10.2385   43.9118  131.6197 N   0  0  0  0  0  0  0  0  0  0  0  0
   10.3687   43.2871  130.3493 C   0  0  0  0  0  0  0  0  0  0  0  0
    9.0817   43.1800  129.5687 C   0  0  0  0  0  0  0  0  0  0  0  0
    7.9654   42.5793  130.3592 C   0  0  0  0  0  0  0  0  0  0  0  0
    7.9996   42.9347  131.8290 C   0  0  0  0  0  0  0  0  0  0  0  0
    8.8871   44.1186  132.0708 C   0  0  0  0  0  0  0  0  0  0  0  0
    8.2579   45.3398  131.4245 C   0  0  0  0  0  0  0  0  0  0  0  0
    8.8782   45.6217  130.0746 C   0  0  0  0  0  0  0  0  0  0  0  0
    8.6516   44.5446  129.0740 C   0  0  0  0  0  0  0  0  0  0  0  0
    8.3467   46.8672  129.5750 N   0  0  0  0  0  0  0  0  0  0  0  0
    8.4278   48.1206  130.2043 C   0  0  0  0  0  0  0  0  0  0  0  0
    9.0029   48.2268  131.3096 O   0  0  0  0  0  0  0  0  0  0  0  0
    7.8411   46.8253  128.6323 H   0  0  0  0  0  0  0  0  0  0  0  0
    7.8625   49.3159  129.6152 C   0  0  0  0  0  0  0  0  0  0  0  0
    7.5096   49.4589  128.2938 C   0  0  0  0  0  0  0  0  0  0  0  0
    6.9698   50.6422  127.7988 C   0  0  0  0  0  0  0  0  0  0  0  0
    6.7714   51.7120  128.6208 C   0  0  0  0  0  0  0  0  0  0  0  0
    6.2399   52.8597  128.1058 F   0  0  0  0  0  0  0  0  0  0  0  0
    7.1078   51.6150  129.9420 C   0  0  0  0  0  0  0  0  0  0  0  0
    7.6357   50.4479  130.4106 C   0  0  0  0  0  0  0  0  0  0  0  0
   11.1163   43.0795  132.8163 S   0  0  0  0  0  0  0  0  0  0  0  0
   11.9599   42.0055  132.1565 O   0  0  0  0  0  0  0  0  0  0  0  0
   10.2014   42.4378  133.8413 O   0  0  0  0  0  0  0  0  0  0  0  0
   13.9161   45.8537  135.0770 C   0  0  0  0  0  0  0  0  0  0  0  0
   14.0622   44.4807  135.1942 C   0  0  0  0  0  0  0  0  0  0  0  0
   13.2156   43.6286  134.5107 C   0  0  0  0  0  0  0  0  0  0  0  0
   12.2107   44.1051  133.7001 C   0  0  0  0  0  0  0  0  0  0  0  0
   12.0801   45.4715  133.5953 C   0  0  0  0  0  0  0  0  0  0  0  0
   12.9145   46.3456  134.2690 C   0  0  0  0  0  0  0  0  0  0  0  0
   14.2785   48.0284  136.0546 C   0  0  0  0  0  0  0  0  0  0  0  0
   14.7462   46.7334  135.7471 O   0  0  0  0  0  0  0  0  0  0  0  0
 30 31  1  0  0  0
 31 24  1  0  0  0
 24 25  2  0  0  0
 25 26  1  0  0  0
 26 27  2  0  0  0
 27 28  1  0  0  0
 28 29  2  0  0  0
 27 21  1  0  0  0
 21 22  2  0  0  0
 21 23  2  0  0  0
 21  1  1  0  0  0
  1  2  1  0  0  0
  2  3  1  0  0  0
  3  4  1  0  0  0
  4  5  1  0  0  0
  5  6  1  0  0  0
  6  7  1  0  0  0
  7  8  1  0  0  0
  8  9  1  0  0  0
  8 10  1  0  0  0
 10 11  1  0  0  0
 11 12  2  0  0  0
 11 14  1  0  0  0
 14 15  2  0  0  0
 15 16  1  0  0  0
 16 17  2  0  0  0
 17 18  1  0  0  0
 17 19  1  0  0  0
 19 20  2  0  0  0
 29 24  1  0  0  0
  6  1  1  0  0  0
 20 14  1  0  0  0
  9  3  1  0  0  0
 10 13  1  0  0  0
M  END
> <minimizedAffinity>
10.90791

> <CNNscore>
0.3504675925

> <CNNaffinity>
7.4969530106

> <CNN_VS>
2.6274390221

> <CNNaffinity_variance>
1.6801621914

$$$$
[H]c1c([H])c([H])c(-c2c([H])c([H])c3c(c2[H])c([C@]2([H])C([H])([H])[C@@]4([H])N(S(=O)(=O)c5c([H])c([H])c(OC([H])([H])[H])c([H])c5[H])C([H])([H])[C@@]24[H])c([H])n3[H])c([H])c1[H]


 33 38  0  0  0  0  0  0  0  0999 V2000
    9.0957   44.9103  128.5401 N   0  0  0  0  0  0  0  0  0  0  0  0
   10.0870   45.8715  128.2011 C   0  0  0  0  0  0  0  0  0  0  0  0
    9.5491   46.7663  129.2505 C   0  0  0  0  0  0  0  0  0  0  0  0
    8.4504   47.7212  128.9781 C   0  0  0  0  0  0  0  0  0  0  0  0
    7.4259   46.7177  128.9588 C   0  0  0  0  0  0  0  0  0  0  0  0
    8.4421   45.7031  129.4819 C   0  0  0  0  0  0  0  0  0  0  0  0
    8.5016   49.0005  129.6417 C   0  0  0  0  0  0  0  0  0  0  0  0
    7.7934   50.1172  129.1254 C   0  0  0  0  0  0  0  0  0  0  0  0
    7.8100   51.0908  130.0132 N   0  0  0  0  0  0  0  0  0  0  0  0
    8.4966   50.6888  131.0910 C   0  0  0  0  0  0  0  0  0  0  0  0
    8.8601   51.3913  132.2372 C   0  0  0  0  0  0  0  0  0  0  0  0
    9.6741   50.7743  133.1475 C   0  0  0  0  0  0  0  0  0  0  0  0
   10.1235   49.4641  132.9213 C   0  0  0  0  0  0  0  0  0  0  0  0
    9.7399   48.7991  131.7845 C   0  0  0  0  0  0  0  0  0  0  0  0
    8.9202   49.4145  130.8677 C   0  0  0  0  0  0  0  0  0  0  0  0
    7.3502   52.0410  129.8902 H   0  0  0  0  0  0  0  0  0  0  0  0
   11.0921   48.8531  133.8078 C   0  0  0  0  0  0  0  0  0  0  0  0
   11.3614   47.4862  133.6498 C   0  0  0  0  0  0  0  0  0  0  0  0
   12.1999   46.8211  134.5102 C   0  0  0  0  0  0  0  0  0  0  0  0
   12.8070   47.4926  135.5666 C   0  0  0  0  0  0  0  0  0  0  0  0
   12.5503   48.8268  135.7216 C   0  0  0  0  0  0  0  0  0  0  0  0
   11.6942   49.4810  134.8355 C   0  0  0  0  0  0  0  0  0  0  0  0
    9.4032   43.2900  128.8213 S   0  0  0  0  0  0  0  0  0  0  0  0
    8.8346   42.4652  127.6873 O   0  0  0  0  0  0  0  0  0  0  0  0
   10.9228   43.0877  128.7093 O   0  0  0  0  0  0  0  0  0  0  0  0
    7.9703   41.8336  132.8816 C   0  0  0  0  0  0  0  0  0  0  0  0
    9.1041   42.6744  132.7353 C   0  0  0  0  0  0  0  0  0  0  0  0
    9.5077   43.0669  131.4861 C   0  0  0  0  0  0  0  0  0  0  0  0
    8.8244   42.6560  130.3189 C   0  0  0  0  0  0  0  0  0  0  0  0
    7.7612   41.8669  130.4612 C   0  0  0  0  0  0  0  0  0  0  0  0
    7.3324   41.4573  131.7227 C   0  0  0  0  0  0  0  0  0  0  0  0
    6.4171   40.9361  134.5537 C   0  0  0  0  0  0  0  0  0  0  0  0
    7.6072   41.4659  134.1415 O   0  0  0  0  0  0  0  0  0  0  0  0
 32 33  1  0  0  0
 33 26  1  0  0  0
 26 27  2  0  0  0
 27 28  1  0  0  0
 28 29  2  0  0  0
 29 30  1  0  0  0
 30 31  2  0  0  0
 29 23  1  0  0  0
 23 24  2  0  0  0
 23 25  2  0  0  0
 23  1  1  0  0  0
  1  2  1  0  0  0
  2  3  1  0  0  0
  3  4  1  0  0  0
  4  5  1  0  0  0
  5  6  1  0  0  0
  4  7  1  0  0  0
  7  8  2  0  0  0
  8  9  1  0  0  0
  9 10  1  0  0  0
 10 11  2  0  0  0
 11 12  1  0  0  0
 12 13  2  0  0  0
 13 14  1  0  0  0
 14 15  2  0  0  0
 13 17  1  0  0  0
 17 18  2  0  0  0
 18 19  1  0  0  0
 19 20  2  0  0  0
 20 21  1  0  0  0
 21 22  2  0  0  0
 31 26  1  0  0  0
  6  1  1  0  0  0
 15  7  1  0  0  0
 22 17  1  0  0  0
  6  3  1  0  0  0
 15 10  1  0  0  0
  9 16  1  0  0  0
M  END
> <minimizedAffinity>
18.28689

> <CNNscore>
0.5893672705

> <CNNaffinity>
8.0494136810

> <CNN_VS>
4.7440609932

> <CNNaffinity_variance>
2.6569917202

$$$$
[H]c1c([H])c([H])c(-c2c([H])c([H])c3c(c2[H])c([C@]2([H])C([H])([H])[C@@]4([H])N(S(=O)(=O)c5c([H])c([H])c(OC([H])([H])[H])c([H])c5[H])C([H])([H])[C@@]24[H])c([H])n3[H])c([H])c1[H]


 33 38  0  0  0  0  0  0  0  0999 V2000
    8.3724   43.8179  129.2003 N   0  0  0  0  0  0  0  0  0  0  0  0
    9.0417   44.6124  128.2296 C   0  0  0  0  0  0  0  0  0  0  0  0
    8.7096   45.8200  129.0188 C   0  0  0  0  0  0  0  0  0  0  0  0
    7.4392   46.5564  128.8268 C   0  0  0  0  0  0  0  0  0  0  0  0
    6.6366   45.5844  129.5111 C   0  0  0  0  0  0  0  0  0  0  0  0
    7.9158   44.8858  129.9708 C   0  0  0  0  0  0  0  0  0  0  0  0
    7.4794   47.9932  128.9433 C   0  0  0  0  0  0  0  0  0  0  0  0
    6.7712   48.8175  128.0301 C   0  0  0  0  0  0  0  0  0  0  0  0
    6.7762   50.0592  128.4713 N   0  0  0  0  0  0  0  0  0  0  0  0
    7.4549   50.1110  129.6252 C   0  0  0  0  0  0  0  0  0  0  0  0
    7.8055   51.2052  130.4120 C   0  0  0  0  0  0  0  0  0  0  0  0
    8.6140   50.9949  131.4956 C   0  0  0  0  0  0  0  0  0  0  0  0
    9.0706   49.7026  131.7976 C   0  0  0  0  0  0  0  0  0  0  0  0
    8.6997   48.6464  131.0047 C   0  0  0  0  0  0  0  0  0  0  0  0
    7.8856   48.8527  129.9158 C   0  0  0  0  0  0  0  0  0  0  0  0
    6.3135   50.8842  127.9869 H   0  0  0  0  0  0  0  0  0  0  0  0
   10.0339   49.4896  132.8578 C   0  0  0  0  0  0  0  0  0  0  0  0
   10.3774   48.1695  133.1823 C   0  0  0  0  0  0  0  0  0  0  0  0
   11.2146   47.8890  134.2340 C   0  0  0  0  0  0  0  0  0  0  0  0
   11.7462   48.9155  135.0082 C   0  0  0  0  0  0  0  0  0  0  0  0
   11.4170   50.2047  134.6924 C   0  0  0  0  0  0  0  0  0  0  0  0
   10.5638   50.4650  133.6199 C   0  0  0  0  0  0  0  0  0  0  0  0
    9.0123   42.4411  129.9032 S   0  0  0  0  0  0  0  0  0  0  0  0
    7.8879   41.5140  130.3097 O   0  0  0  0  0  0  0  0  0  0  0  0
    9.7569   41.6701  128.8015 O   0  0  0  0  0  0  0  0  0  0  0  0
   11.8608   43.2893  133.3423 C   0  0  0  0  0  0  0  0  0  0  0  0
   12.2314   43.4832  131.9863 C   0  0  0  0  0  0  0  0  0  0  0  0
   11.3422   43.1907  130.9858 C   0  0  0  0  0  0  0  0  0  0  0  0
   10.0481   42.6931  131.2610 C   0  0  0  0  0  0  0  0  0  0  0  0
    9.7048   42.5126  132.5349 C   0  0  0  0  0  0  0  0  0  0  0  0
   10.5933   42.8055  133.5683 C   0  0  0  0  0  0  0  0  0  0  0  0
   13.2900   44.8157  134.6236 C   0  0  0  0  0  0  0  0  0  0  0  0
   12.7774   43.5902  134.3034 O   0  0  0  0  0  0  0  0  0  0  0  0
 32 33  1  0  0  0
 33 26  1  0  0  0
 26 27  2  0  0  0
 27 28  1  0  0  0
 28 29  2  0  0  0
 29 30  1  0  0  0
 30 31  2  0  0  0
 29 23  1  0  0  0
 23 24  2  0  0  0
 23 25  2  0  0  0
 23  1  1  0  0  0
  1  2  1  0  0  0
  2  3  1  0  0  0
  3  4  1  0  0  0
  4  5  1  0  0  0
  5  6  1  0  0  0
  4  7  1  0  0  0
  7  8  2  0  0  0
  8  9  1  0  0  0
  9 10  1  0  0  0
 10 11  2  0  0  0
 11 12  1  0  0  0
 12 13  2  0  0  0
 13 14  1  0  0  0
 14 15  2  0  0  0
 13 17  1  0  0  0
 17 18  2  0  0  0
 18 19  1  0  0  0
 19 20  2  0  0  0
 20 21  1  0  0  0
 21 22  2  0  0  0
 31 26  1  0  0  0
  6  1  1  0  0  0
 15  7  1  0  0  0
 22 17  1  0  0  0
  6  3  1  0  0  0
 15 10  1  0  0  0
  9 16  1  0  0  0
M  END
> <minimizedAffinity>
10.23065

> <CNNscore>
0.5501760244

> <CNNaffinity>
7.9289574623

> <CNN_VS>
4.3623223305

> <CNNaffinity_variance>
1.2156851292

$$$$
[H]c1c([H])c([H])c(-c2c([H])c([H])c3c(c2[H])c([C@]2([H])C([H])([H])[C@@]4([H])N(S(=O)(=O)c5c([H])c([H])c(OC([H])([H])[H])c([H])c5[H])C([H])([H])[C@@]24[H])c([H])n3[H])c([H])c1[H]


 33 38  0  0  0  0  0  0  0  0999 V2000
   11.4778   43.4242  133.2447 N   0  0  0  0  0  0  0  0  0  0  0  0
   12.5710   43.9951  132.5373 C   0  0  0  0  0  0  0  0  0  0  0  0
   11.6355   44.4107  131.4679 C   0  0  0  0  0  0  0  0  0  0  0  0
   11.2953   43.5198  130.3349 C   0  0  0  0  0  0  0  0  0  0  0  0
   10.4305   42.6750  131.1065 C   0  0  0  0  0  0  0  0  0  0  0  0
   10.5231   43.6730  132.2602 C   0  0  0  0  0  0  0  0  0  0  0  0
   11.1053   44.1308  129.0425 C   0  0  0  0  0  0  0  0  0  0  0  0
   11.5163   43.4680  127.8565 C   0  0  0  0  0  0  0  0  0  0  0  0
   11.0383   44.1117  126.8108 N   0  0  0  0  0  0  0  0  0  0  0  0
   10.3368   45.1722  127.2326 C   0  0  0  0  0  0  0  0  0  0  0  0
    9.7275   46.1921  126.5060 C   0  0  0  0  0  0  0  0  0  0  0  0
    9.1680   47.2351  127.1925 C   0  0  0  0  0  0  0  0  0  0  0  0
    9.2118   47.2638  128.5950 C   0  0  0  0  0  0  0  0  0  0  0  0
    9.8141   46.2386  129.2789 C   0  0  0  0  0  0  0  0  0  0  0  0
   10.3759   45.1872  128.5933 C   0  0  0  0  0  0  0  0  0  0  0  0
   11.1869   43.8305  125.7968 H   0  0  0  0  0  0  0  0  0  0  0  0
    8.7456   48.4252  129.3239 C   0  0  0  0  0  0  0  0  0  0  0  0
    9.4968   48.8584  130.4257 C   0  0  0  0  0  0  0  0  0  0  0  0
    9.0685   49.8961  131.2164 C   0  0  0  0  0  0  0  0  0  0  0  0
    7.8704   50.5475  130.9410 C   0  0  0  0  0  0  0  0  0  0  0  0
    7.1368   50.1308  129.8648 C   0  0  0  0  0  0  0  0  0  0  0  0
    7.5918   49.0737  129.0765 C   0  0  0  0  0  0  0  0  0  0  0  0
   11.1549   43.6890  134.8648 S   0  0  0  0  0  0  0  0  0  0  0  0
   10.3816   42.5143  135.4228 O   0  0  0  0  0  0  0  0  0  0  0  0
   12.4980   43.6447  135.6110 O   0  0  0  0  0  0  0  0  0  0  0  0
    8.7729   47.4787  135.6554 C   0  0  0  0  0  0  0  0  0  0  0  0
    8.9306   46.9412  134.3516 C   0  0  0  0  0  0  0  0  0  0  0  0
    9.6779   45.8081  134.1648 C   0  0  0  0  0  0  0  0  0  0  0  0
   10.3090   45.1457  135.2422 C   0  0  0  0  0  0  0  0  0  0  0  0
   10.1585   45.6538  136.4639 C   0  0  0  0  0  0  0  0  0  0  0  0
    9.4010   46.8044  136.6765 C   0  0  0  0  0  0  0  0  0  0  0  0
    6.8876   48.7789  136.5322 C   0  0  0  0  0  0  0  0  0  0  0  0
    8.0244   48.6078  135.7937 O   0  0  0  0  0  0  0  0  0  0  0  0
 32 33  1  0  0  0
 33 26  1  0  0  0
 26 27  2  0  0  0
 27 28  1  0  0  0
 28 29  2  0  0  0
 29 30  1  0  0  0
 30 31  2  0  0  0
 29 23  1  0  0  0
 23 24  2  0  0  0
 23 25  2  0  0  0
 23  1  1  0  0  0
  1  2  1  0  0  0
  2  3  1  0  0  0
  3  4  1  0  0  0
  4  5  1  0  0  0
  5  6  1  0  0  0
  4  7  1  0  0  0
  7  8  2  0  0  0
  8  9  1  0  0  0
  9 10  1  0  0  0
 10 11  2  0  0  0
 11 12  1  0  0  0
 12 13  2  0  0  0
 13 14  1  0  0  0
 14 15  2  0  0  0
 13 17  1  0  0  0
 17 18  2  0  0  0
 18 19  1  0  0  0
 19 20  2  0  0  0
 20 21  1  0  0  0
 21 22  2  0  0  0
 31 26  1  0  0  0
  6  1  1  0  0  0
 15  7  1  0  0  0
 22 17  1  0  0  0
  6  3  1  0  0  0
 15 10  1  0  0  0
  9 16  1  0  0  0
M  END
> <minimizedAffinity>
14.29912

> <CNNscore>
0.5490826964

> <CNNaffinity>
7.9239869118

> <CNN_VS>
4.3509240150

> <CNNaffinity_variance>
1.2040421963

$$$$
[H]c1c([H])c([H])c(-c2c([H])c([H])c3c(c2[H])c([C@]2([H])C([H])([H])[C@@]4([H])N(S(=O)(=O)c5c([H])c([H])c(OC([H])([H])[H])c([H])c5[H])C([H])([H])[C@@]24[H])c([H])n3[H])c([H])c1[H]


 33 38  0  0  0  0  0  0  0  0999 V2000
    9.0185   44.0491  128.4124 N   0  0  0  0  0  0  0  0  0  0  0  0
    9.7665   45.0586  127.7469 C   0  0  0  0  0  0  0  0  0  0  0  0
    9.2193   46.0583  128.6916 C   0  0  0  0  0  0  0  0  0  0  0  0
    7.9401   46.7595  128.4361 C   0  0  0  0  0  0  0  0  0  0  0  0
    7.1201   45.6304  128.7673 C   0  0  0  0  0  0  0  0  0  0  0  0
    8.3628   44.9106  129.2902 C   0  0  0  0  0  0  0  0  0  0  0  0
    7.8468   48.1406  128.8403 C   0  0  0  0  0  0  0  0  0  0  0  0
    7.2953   49.1178  127.9709 C   0  0  0  0  0  0  0  0  0  0  0  0
    7.1114   50.2392  128.6380 N   0  0  0  0  0  0  0  0  0  0  0  0
    7.5165   50.0672  129.9034 C   0  0  0  0  0  0  0  0  0  0  0  0
    7.6047   50.9818  130.9498 C   0  0  0  0  0  0  0  0  0  0  0  0
    8.1709   50.5719  132.1260 C   0  0  0  0  0  0  0  0  0  0  0  0
    8.6457   49.2583  132.2628 C   0  0  0  0  0  0  0  0  0  0  0  0
    8.5363   48.3817  131.2135 C   0  0  0  0  0  0  0  0  0  0  0  0
    7.9661   48.7885  130.0301 C   0  0  0  0  0  0  0  0  0  0  0  0
    6.7053   51.1341  128.2335 H   0  0  0  0  0  0  0  0  0  0  0  0
    9.3679   48.8551  133.4516 C   0  0  0  0  0  0  0  0  0  0  0  0
   10.7274   49.1857  133.5421 C   0  0  0  0  0  0  0  0  0  0  0  0
   11.4957   48.7592  134.5973 C   0  0  0  0  0  0  0  0  0  0  0  0
   10.9394   47.9834  135.6094 C   0  0  0  0  0  0  0  0  0  0  0  0
    9.6127   47.6623  135.5270 C   0  0  0  0  0  0  0  0  0  0  0  0
    8.8525   48.1063  134.4450 C   0  0  0  0  0  0  0  0  0  0  0  0
    9.6477   42.5868  128.9267 S   0  0  0  0  0  0  0  0  0  0  0  0
    8.5196   41.6033  129.1490 O   0  0  0  0  0  0  0  0  0  0  0  0
   10.4401   41.9922  127.7514 O   0  0  0  0  0  0  0  0  0  0  0  0
   12.2582   42.9830  132.6266 C   0  0  0  0  0  0  0  0  0  0  0  0
   12.3747   43.8630  131.5196 C   0  0  0  0  0  0  0  0  0  0  0  0
   11.5786   43.6861  130.4186 C   0  0  0  0  0  0  0  0  0  0  0  0
   10.6309   42.6398  130.3446 C   0  0  0  0  0  0  0  0  0  0  0  0
   10.5253   41.8164  131.3858 C   0  0  0  0  0  0  0  0  0  0  0  0
   11.3240   41.9795  132.5165 C   0  0  0  0  0  0  0  0  0  0  0  0
   12.8779   44.0495  134.7462 C   0  0  0  0  0  0  0  0  0  0  0  0
   13.0716   43.1945  133.6981 O   0  0  0  0  0  0  0  0  0  0  0  0
 32 33  1  0  0  0
 33 26  1  0  0  0
 26 27  2  0  0  0
 27 28  1  0  0  0
 28 29  2  0  0  0
 29 30  1  0  0  0
 30 31  2  0  0  0
 29 23  1  0  0  0
 23 24  2  0  0  0
 23 25  2  0  0  0
 23  1  1  0  0  0
  1  2  1  0  0  0
  2  3  1  0  0  0
  3  4  1  0  0  0
  4  5  1  0  0  0
  5  6  1  0  0  0
  4  7  1  0  0  0
  7  8  2  0  0  0
  8  9  1  0  0  0
  9 10  1  0  0  0
 10 11  2  0  0  0
 11 12  1  0  0  0
 12 13  2  0  0  0
 13 14  1  0  0  0
 14 15  2  0  0  0
 13 17  1  0  0  0
 17 18  2  0  0  0
 18 19  1  0  0  0
 19 20  2  0  0  0
 20 21  1  0  0  0
 21 22  2  0  0  0
 31 26  1  0  0  0
  6  1  1  0  0  0
 15  7  1  0  0  0
 22 17  1  0  0  0
  6  3  1  0  0  0
 15 10  1  0  0  0
  9 16  1  0  0  0
M  END
> <minimizedAffinity>
11.56465

> <CNNscore>
0.5482354760

> <CNNaffinity>
7.8844823837

> <CNN_VS>
4.3225531578

> <CNNaffinity_variance>
1.5802102089

$$$$
[H]c1c([H])c([H])c(-c2c([H])c([H])c3c(c2[H])c([C@]2([H])C([H])([H])[C@@]4([H])N(S(=O)(=O)c5c([H])c([H])c(OC([H])([H])[H])c([H])c5[H])C([H])([H])[C@@]24[H])c([H])n3[H])c([H])c1[H]


 33 38  0  0  0  0  0  0  0  0999 V2000
    9.6948   43.2341  132.0032 N   0  0  0  0  0  0  0  0  0  0  0  0
    8.5888   43.8674  132.6335 C   0  0  0  0  0  0  0  0  0  0  0  0
    9.3382   45.1440  132.6199 C   0  0  0  0  0  0  0  0  0  0  0  0
   10.2546   45.5261  133.7186 C   0  0  0  0  0  0  0  0  0  0  0  0
   11.2957   44.6231  133.3214 C   0  0  0  0  0  0  0  0  0  0  0  0
   10.5317   44.3484  132.0266 C   0  0  0  0  0  0  0  0  0  0  0  0
   10.3076   46.9196  134.0859 C   0  0  0  0  0  0  0  0  0  0  0  0
   10.9792   47.3366  135.2649 C   0  0  0  0  0  0  0  0  0  0  0  0
   11.0845   48.6502  135.2637 N   0  0  0  0  0  0  0  0  0  0  0  0
   10.5137   49.1341  134.1525 C   0  0  0  0  0  0  0  0  0  0  0  0
   10.2971   50.4512  133.7552 C   0  0  0  0  0  0  0  0  0  0  0  0
    9.5761   50.6762  132.6144 C   0  0  0  0  0  0  0  0  0  0  0  0
    9.0740   49.5974  131.8702 C   0  0  0  0  0  0  0  0  0  0  0  0
    9.3125   48.3125  132.2872 C   0  0  0  0  0  0  0  0  0  0  0  0
   10.0384   48.0814  133.4320 C   0  0  0  0  0  0  0  0  0  0  0  0
   11.5496   49.2289  136.0240 H   0  0  0  0  0  0  0  0  0  0  0  0
    8.1968   49.8252  130.7406 C   0  0  0  0  0  0  0  0  0  0  0  0
    8.0767   48.8086  129.7825 C   0  0  0  0  0  0  0  0  0  0  0  0
    7.3342   48.9889  128.6415 C   0  0  0  0  0  0  0  0  0  0  0  0
    6.6782   50.1933  128.4074 C   0  0  0  0  0  0  0  0  0  0  0  0
    6.7894   51.1859  129.3414 C   0  0  0  0  0  0  0  0  0  0  0  0
    7.5501   50.9798  130.4925 C   0  0  0  0  0  0  0  0  0  0  0  0
    9.5818   42.2517  130.6537 S   0  0  0  0  0  0  0  0  0  0  0  0
   10.6031   41.1398  130.7532 O   0  0  0  0  0  0  0  0  0  0  0  0
    8.2279   41.5278  130.7281 O   0  0  0  0  0  0  0  0  0  0  0  0
   10.2855   44.3798  126.6993 C   0  0  0  0  0  0  0  0  0  0  0  0
   10.9491   44.7621  127.8939 C   0  0  0  0  0  0  0  0  0  0  0  0
   10.6842   44.1017  129.0648 C   0  0  0  0  0  0  0  0  0  0  0  0
    9.7568   43.0367  129.1262 C   0  0  0  0  0  0  0  0  0  0  0  0
    9.1363   42.6816  128.0028 C   0  0  0  0  0  0  0  0  0  0  0  0
    9.3924   43.3386  126.8004 C   0  0  0  0  0  0  0  0  0  0  0  0
   10.1652   46.3186  125.2025 C   0  0  0  0  0  0  0  0  0  0  0  0
   10.5774   45.0658  125.5598 O   0  0  0  0  0  0  0  0  0  0  0  0
 32 33  1  0  0  0
 33 26  1  0  0  0
 26 27  2  0  0  0
 27 28  1  0  0  0
 28 29  2  0  0  0
 29 30  1  0  0  0
 30 31  2  0  0  0
 29 23  1  0  0  0
 23 24  2  0  0  0
 23 25  2  0  0  0
 23  1  1  0  0  0
  1  2  1  0  0  0
  2  3  1  0  0  0
  3  4  1  0  0  0
  4  5  1  0  0  0
  5  6  1  0  0  0
  4  7  1  0  0  0
  7  8  2  0  0  0
  8  9  1  0  0  0
  9 10  1  0  0  0
 10 11  2  0  0  0
 11 12  1  0  0  0
 12 13  2  0  0  0
 13 14  1  0  0  0
 14 15  2  0  0  0
 13 17  1  0  0  0
 17 18  2  0  0  0
 18 19  1  0  0  0
 19 20  2  0  0  0
 20 21  1  0  0  0
 21 22  2  0  0  0
 31 26  1  0  0  0
  6  1  1  0  0  0
 15  7  1  0  0  0
 22 17  1  0  0  0
  6  3  1  0  0  0
 15 10  1  0  0  0
  9 16  1  0  0  0
M  END
> <minimizedAffinity>
13.10973

> <CNNscore>
0.5474314094

> <CNNaffinity>
7.9347710609

> <CNN_VS>
4.3437428474

> <CNNaffinity_variance>
1.3792923689

$$$$
[H]c1c([H])c([H])c(-c2c([H])c([H])c3c(c2[H])c([C@]2([H])C([H])([H])[C@@]4([H])N(S(=O)(=O)c5c([H])c([H])c(OC([H])([H])[H])c([H])c5[H])C([H])([H])[C@@]24[H])c([H])n3[H])c([H])c1[H]


 33 38  0  0  0  0  0  0  0  0999 V2000
    8.6753   47.6750  128.4621 N   0  0  0  0  0  0  0  0  0  0  0  0
    8.4931   46.2718  128.3236 C   0  0  0  0  0  0  0  0  0  0  0  0
    9.5244   46.0558  129.3633 C   0  0  0  0  0  0  0  0  0  0  0  0
   10.9641   45.9581  129.0303 C   0  0  0  0  0  0  0  0  0  0  0  0
   11.1278   47.3653  128.8071 C   0  0  0  0  0  0  0  0  0  0  0  0
    9.7269   47.5947  129.3732 C   0  0  0  0  0  0  0  0  0  0  0  0
   11.7607   45.0274  129.7912 C   0  0  0  0  0  0  0  0  0  0  0  0
   12.7348   44.2138  129.1556 C   0  0  0  0  0  0  0  0  0  0  0  0
   13.4756   43.6255  130.0730 N   0  0  0  0  0  0  0  0  0  0  0  0
   13.0453   43.9955  131.2865 C   0  0  0  0  0  0  0  0  0  0  0  0
   13.4478   43.5700  132.5499 C   0  0  0  0  0  0  0  0  0  0  0  0
   12.7561   44.0232  133.6399 C   0  0  0  0  0  0  0  0  0  0  0  0
   11.6703   44.8972  133.4758 C   0  0  0  0  0  0  0  0  0  0  0  0
   11.3056   45.3015  132.2168 C   0  0  0  0  0  0  0  0  0  0  0  0
   11.9991   44.8502  131.1184 C   0  0  0  0  0  0  0  0  0  0  0  0
   14.2846   42.9648  129.8772 H   0  0  0  0  0  0  0  0  0  0  0  0
   10.8487   45.2736  134.6074 C   0  0  0  0  0  0  0  0  0  0  0  0
   10.8779   44.4554  135.7456 C   0  0  0  0  0  0  0  0  0  0  0  0
   10.0591   44.7003  136.8204 C   0  0  0  0  0  0  0  0  0  0  0  0
    9.1747   45.7742  136.8058 C   0  0  0  0  0  0  0  0  0  0  0  0
    9.1462   46.5772  135.6992 C   0  0  0  0  0  0  0  0  0  0  0  0
    9.9868   46.3080  134.6190 C   0  0  0  0  0  0  0  0  0  0  0  0
    7.4320   48.7780  128.6543 S   0  0  0  0  0  0  0  0  0  0  0  0
    7.8596   49.8542  129.6281 O   0  0  0  0  0  0  0  0  0  0  0  0
    7.2704   49.5209  127.3185 O   0  0  0  0  0  0  0  0  0  0  0  0
    3.3222   47.2721  129.8800 C   0  0  0  0  0  0  0  0  0  0  0  0
    3.5936   48.6495  129.6730 C   0  0  0  0  0  0  0  0  0  0  0  0
    4.8561   49.0531  129.3260 C   0  0  0  0  0  0  0  0  0  0  0  0
    5.9156   48.1311  129.1660 C   0  0  0  0  0  0  0  0  0  0  0  0
    5.6562   46.8397  129.3615 C   0  0  0  0  0  0  0  0  0  0  0  0
    4.3786   46.4073  129.7131 C   0  0  0  0  0  0  0  0  0  0  0  0
    1.4929   45.6713  130.2039 C   0  0  0  0  0  0  0  0  0  0  0  0
    2.0541   46.9169  130.2266 O   0  0  0  0  0  0  0  0  0  0  0  0
 32 33  1  0  0  0
 33 26  1  0  0  0
 26 27  2  0  0  0
 27 28  1  0  0  0
 28 29  2  0  0  0
 29 30  1  0  0  0
 30 31  2  0  0  0
 29 23  1  0  0  0
 23 24  2  0  0  0
 23 25  2  0  0  0
 23  1  1  0  0  0
  1  2  1  0  0  0
  2  3  1  0  0  0
  3  4  1  0  0  0
  4  5  1  0  0  0
  5  6  1  0  0  0
  4  7  1  0  0  0
  7  8  2  0  0  0
  8  9  1  0  0  0
  9 10  1  0  0  0
 10 11  2  0  0  0
 11 12  1  0  0  0
 12 13  2  0  0  0
 13 14  1  0  0  0
 14 15  2  0  0  0
 13 17  1  0  0  0
 17 18  2  0  0  0
 18 19  1  0  0  0
 19 20  2  0  0  0
 20 21  1  0  0  0
 21 22  2  0  0  0
 31 26  1  0  0  0
  6  1  1  0  0  0
 15  7  1  0  0  0
 22 17  1  0  0  0
  6  3  1  0  0  0
 15 10  1  0  0  0
  9 16  1  0  0  0
M  END
> <minimizedAffinity>
17.22413

> <CNNscore>
0.5417220592

> <CNNaffinity>
7.8678407669

> <CNN_VS>
4.2621827126

> <CNNaffinity_variance>
4.0508561134

$$$$
[H]c1c([H])c([H])c(-c2c([H])c([H])c3c(c2[H])c([C@]2([H])C([H])([H])[C@@]4([H])N(S(=O)(=O)c5c([H])c([H])c(OC([H])([H])[H])c([H])c5[H])C([H])([H])[C@@]24[H])c([H])n3[H])c([H])c1[H]


 33 38  0  0  0  0  0  0  0  0999 V2000
    8.9118   48.6862  129.1967 N   0  0  0  0  0  0  0  0  0  0  0  0
    9.0984   47.6872  128.2023 C   0  0  0  0  0  0  0  0  0  0  0  0
    9.6692   46.7941  129.2358 C   0  0  0  0  0  0  0  0  0  0  0  0
   11.1112   46.8072  129.5728 C   0  0  0  0  0  0  0  0  0  0  0  0
   11.0467   48.0339  130.3132 C   0  0  0  0  0  0  0  0  0  0  0  0
    9.5218   47.9770  130.2299 C   0  0  0  0  0  0  0  0  0  0  0  0
   11.7300   45.5452  129.8954 C   0  0  0  0  0  0  0  0  0  0  0  0
   13.0121   45.2118  129.3855 C   0  0  0  0  0  0  0  0  0  0  0  0
   13.4535   44.1290  129.9931 N   0  0  0  0  0  0  0  0  0  0  0  0
   12.5338   43.7166  130.8756 C   0  0  0  0  0  0  0  0  0  0  0  0
   12.5066   42.5788  131.6782 C   0  0  0  0  0  0  0  0  0  0  0  0
   11.3804   42.3284  132.4137 C   0  0  0  0  0  0  0  0  0  0  0  0
   10.2865   43.2056  132.3538 C   0  0  0  0  0  0  0  0  0  0  0  0
   10.3505   44.3209  131.5578 C   0  0  0  0  0  0  0  0  0  0  0  0
   11.4811   44.5778  130.8184 C   0  0  0  0  0  0  0  0  0  0  0  0
   14.3903   43.6617  129.8102 H   0  0  0  0  0  0  0  0  0  0  0  0
    9.0423   42.8796  133.0193 C   0  0  0  0  0  0  0  0  0  0  0  0
    8.3144   43.9242  133.6067 C   0  0  0  0  0  0  0  0  0  0  0  0
    7.1735   43.6787  134.3303 C   0  0  0  0  0  0  0  0  0  0  0  0
    6.7089   42.3782  134.4990 C   0  0  0  0  0  0  0  0  0  0  0  0
    7.4136   41.3569  133.9242 C   0  0  0  0  0  0  0  0  0  0  0  0
    8.5704   41.6307  133.1943 C   0  0  0  0  0  0  0  0  0  0  0  0
    7.4879   49.5314  129.4358 S   0  0  0  0  0  0  0  0  0  0  0  0
    7.6266   50.4173  130.6545 O   0  0  0  0  0  0  0  0  0  0  0  0
    7.3414   50.5187  128.2668 O   0  0  0  0  0  0  0  0  0  0  0  0
    3.5981   47.1958  129.7098 C   0  0  0  0  0  0  0  0  0  0  0  0
    3.6255   48.6046  129.5414 C   0  0  0  0  0  0  0  0  0  0  0  0
    4.8256   49.2636  129.4872 C   0  0  0  0  0  0  0  0  0  0  0  0
    6.0573   48.5788  129.5966 C   0  0  0  0  0  0  0  0  0  0  0  0
    6.0266   47.2569  129.7548 C   0  0  0  0  0  0  0  0  0  0  0  0
    4.8169   46.5666  129.8105 C   0  0  0  0  0  0  0  0  0  0  0  0
    1.9589   45.6273  130.6407 C   0  0  0  0  0  0  0  0  0  0  0  0
    2.3830   46.5831  129.7613 O   0  0  0  0  0  0  0  0  0  0  0  0
 32 33  1  0  0  0
 33 26  1  0  0  0
 26 27  2  0  0  0
 27 28  1  0  0  0
 28 29  2  0  0  0
 29 30  1  0  0  0
 30 31  2  0  0  0
 29 23  1  0  0  0
 23 24  2  0  0  0
 23 25  2  0  0  0
 23  1  1  0  0  0
  1  2  1  0  0  0
  2  3  1  0  0  0
  3  4  1  0  0  0
  4  5  1  0  0  0
  5  6  1  0  0  0
  4  7  1  0  0  0
  7  8  2  0  0  0
  8  9  1  0  0  0
  9 10  1  0  0  0
 10 11  2  0  0  0
 11 12  1  0  0  0
 12 13  2  0  0  0
 13 14  1  0  0  0
 14 15  2  0  0  0
 13 17  1  0  0  0
 17 18  2  0  0  0
 18 19  1  0  0  0
 19 20  2  0  0  0
 20 21  1  0  0  0
 21 22  2  0  0  0
 31 26  1  0  0  0
  6  1  1  0  0  0
 15  7  1  0  0  0
 22 17  1  0  0  0
  6  3  1  0  0  0
 15 10  1  0  0  0
  9 16  1  0  0  0
M  END
> <minimizedAffinity>
20.65390

> <CNNscore>
0.5348527431

> <CNNaffinity>
7.8306436539

> <CNN_VS>
4.1882410049

> <CNNaffinity_variance>
3.7507297993

$$$$
[H]c1c([H])c([H])c(-c2c([H])c([H])c3c(c2[H])c([C@]2([H])C([H])([H])[C@@]4([H])N(S(=O)(=O)c5c([H])c([H])c(OC([H])([H])[H])c([H])c5[H])C([H])([H])[C@@]24[H])c([H])n3[H])c([H])c1[H]


 33 38  0  0  0  0  0  0  0  0999 V2000
   10.7330   42.9465  133.0224 N   0  0  0  0  0  0  0  0  0  0  0  0
    9.3414   43.0374  133.2995 C   0  0  0  0  0  0  0  0  0  0  0  0
    9.4948   44.4978  133.4865 C   0  0  0  0  0  0  0  0  0  0  0  0
    9.8512   45.0865  134.7979 C   0  0  0  0  0  0  0  0  0  0  0  0
   11.2304   44.6990  134.7286 C   0  0  0  0  0  0  0  0  0  0  0  0
   11.0177   44.2878  133.2722 C   0  0  0  0  0  0  0  0  0  0  0  0
    9.2448   46.3473  135.1475 C   0  0  0  0  0  0  0  0  0  0  0  0
    9.0992   46.7332  136.5057 C   0  0  0  0  0  0  0  0  0  0  0  0
    8.7347   47.9983  136.5616 N   0  0  0  0  0  0  0  0  0  0  0  0
    8.6216   48.4767  135.3153 C   0  0  0  0  0  0  0  0  0  0  0  0
    8.1783   49.7185  134.8674 C   0  0  0  0  0  0  0  0  0  0  0  0
    8.0453   49.9144  133.5198 C   0  0  0  0  0  0  0  0  0  0  0  0
    8.3535   48.8816  132.6208 C   0  0  0  0  0  0  0  0  0  0  0  0
    8.7944   47.6731  133.0968 C   0  0  0  0  0  0  0  0  0  0  0  0
    8.9315   47.4723  134.4503 C   0  0  0  0  0  0  0  0  0  0  0  0
    8.5606   48.5476  137.4545 H   0  0  0  0  0  0  0  0  0  0  0  0
    8.0870   49.0319  131.2052 C   0  0  0  0  0  0  0  0  0  0  0  0
    7.5200   50.2360  130.7644 C   0  0  0  0  0  0  0  0  0  0  0  0
    7.1582   50.4148  129.4519 C   0  0  0  0  0  0  0  0  0  0  0  0
    7.3472   49.3981  128.5212 C   0  0  0  0  0  0  0  0  0  0  0  0
    7.9038   48.2235  128.9463 C   0  0  0  0  0  0  0  0  0  0  0  0
    8.2626   48.0648  130.2849 C   0  0  0  0  0  0  0  0  0  0  0  0
   11.3876   42.1416  131.7099 S   0  0  0  0  0  0  0  0  0  0  0  0
   12.8499   41.8553  131.9728 O   0  0  0  0  0  0  0  0  0  0  0  0
   10.7351   40.7510  131.6554 O   0  0  0  0  0  0  0  0  0  0  0  0
   10.7371   44.1953  127.7074 C   0  0  0  0  0  0  0  0  0  0  0  0
    9.8516   43.2031  128.2025 C   0  0  0  0  0  0  0  0  0  0  0  0
   10.1058   42.5985  129.4055 C   0  0  0  0  0  0  0  0  0  0  0  0
   11.2383   42.9324  130.1827 C   0  0  0  0  0  0  0  0  0  0  0  0
   12.0665   43.8639  129.7140 C   0  0  0  0  0  0  0  0  0  0  0  0
   11.8257   44.4929  128.4936 C   0  0  0  0  0  0  0  0  0  0  0  0
   10.1618   46.0778  126.2448 C   0  0  0  0  0  0  0  0  0  0  0  0
   10.4468   44.7673  126.5062 O   0  0  0  0  0  0  0  0  0  0  0  0
 32 33  1  0  0  0
 33 26  1  0  0  0
 26 27  2  0  0  0
 27 28  1  0  0  0
 28 29  2  0  0  0
 29 30  1  0  0  0
 30 31  2  0  0  0
 29 23  1  0  0  0
 23 24  2  0  0  0
 23 25  2  0  0  0
 23  1  1  0  0  0
  1  2  1  0  0  0
  2  3  1  0  0  0
  3  4  1  0  0  0
  4  5  1  0  0  0
  5  6  1  0  0  0
  4  7  1  0  0  0
  7  8  2  0  0  0
  8  9  1  0  0  0
  9 10  1  0  0  0
 10 11  2  0  0  0
 11 12  1  0  0  0
 12 13  2  0  0  0
 13 14  1  0  0  0
 14 15  2  0  0  0
 13 17  1  0  0  0
 17 18  2  0  0  0
 18 19  1  0  0  0
 19 20  2  0  0  0
 20 21  1  0  0  0
 21 22  2  0  0  0
 31 26  1  0  0  0
  6  1  1  0  0  0
 15  7  1  0  0  0
 22 17  1  0  0  0
  6  3  1  0  0  0
 15 10  1  0  0  0
  9 16  1  0  0  0
M  END
> <minimizedAffinity>
13.55707

> <CNNscore>
0.5337489247

> <CNNaffinity>
8.0284290314

> <CNN_VS>
4.2851653099

> <CNNaffinity_variance>
1.1210619211

$$$$
[H]c1c([H])c([H])c(-c2c([H])c([H])c3c(c2[H])c([C@]2([H])C([H])([H])[C@@]4([H])N(S(=O)(=O)c5c([H])c([H])c(OC([H])([H])[H])c([H])c5[H])C([H])([H])[C@@]24[H])c([H])n3[H])c([H])c1[H]


 33 38  0  0  0  0  0  0  0  0999 V2000
    8.0974   43.6904  130.1831 N   0  0  0  0  0  0  0  0  0  0  0  0
    8.1032   44.1436  128.8355 C   0  0  0  0  0  0  0  0  0  0  0  0
    7.9431   45.5321  129.3232 C   0  0  0  0  0  0  0  0  0  0  0  0
    6.6096   46.1249  129.5755 C   0  0  0  0  0  0  0  0  0  0  0  0
    6.3919   45.4061  130.7974 C   0  0  0  0  0  0  0  0  0  0  0  0
    7.8457   44.9369  130.7535 C   0  0  0  0  0  0  0  0  0  0  0  0
    6.4326   47.5211  129.2612 C   0  0  0  0  0  0  0  0  0  0  0  0
    5.5190   47.9305  128.2549 C   0  0  0  0  0  0  0  0  0  0  0  0
    5.3691   49.2385  128.3097 N   0  0  0  0  0  0  0  0  0  0  0  0
    6.1379   49.7264  129.2925 C   0  0  0  0  0  0  0  0  0  0  0  0
    6.3841   51.0442  129.6693 C   0  0  0  0  0  0  0  0  0  0  0  0
    7.3152   51.2789  130.6440 C   0  0  0  0  0  0  0  0  0  0  0  0
    7.9975   50.2088  131.2432 C   0  0  0  0  0  0  0  0  0  0  0  0
    7.7248   48.9226  130.8523 C   0  0  0  0  0  0  0  0  0  0  0  0
    6.7883   48.6817  129.8746 C   0  0  0  0  0  0  0  0  0  0  0  0
    4.7376   49.8108  127.6749 H   0  0  0  0  0  0  0  0  0  0  0  0
    9.0790   50.4528  132.1751 C   0  0  0  0  0  0  0  0  0  0  0  0
    9.8623   49.3618  132.5775 C   0  0  0  0  0  0  0  0  0  0  0  0
   10.8462   49.5020  133.5251 C   0  0  0  0  0  0  0  0  0  0  0  0
   11.0913   50.7391  134.1127 C   0  0  0  0  0  0  0  0  0  0  0  0
   10.3323   51.8066  133.7198 C   0  0  0  0  0  0  0  0  0  0  0  0
    9.3378   51.6396  132.7560 C   0  0  0  0  0  0  0  0  0  0  0  0
    9.2251   42.6404  130.8350 S   0  0  0  0  0  0  0  0  0  0  0  0
    8.9432   42.4504  132.3094 O   0  0  0  0  0  0  0  0  0  0  0  0
    8.9677   41.2552  130.2205 O   0  0  0  0  0  0  0  0  0  0  0  0
   13.5070   44.0057  130.1557 C   0  0  0  0  0  0  0  0  0  0  0  0
   12.4872   44.2009  129.1885 C   0  0  0  0  0  0  0  0  0  0  0  0
   11.2169   43.7499  129.4336 C   0  0  0  0  0  0  0  0  0  0  0  0
   10.8811   43.0849  130.6348 C   0  0  0  0  0  0  0  0  0  0  0  0
   11.8413   42.9038  131.5395 C   0  0  0  0  0  0  0  0  0  0  0  0
   13.1398   43.3563  131.3112 C   0  0  0  0  0  0  0  0  0  0  0  0
   15.6022   44.0468  128.8820 C   0  0  0  0  0  0  0  0  0  0  0  0
   14.7555   44.4674  129.8685 O   0  0  0  0  0  0  0  0  0  0  0  0
 32 33  1  0  0  0
 33 26  1  0  0  0
 26 27  2  0  0  0
 27 28  1  0  0  0
 28 29  2  0  0  0
 29 30  1  0  0  0
 30 31  2  0  0  0
 29 23  1  0  0  0
 23 24  2  0  0  0
 23 25  2  0  0  0
 23  1  1  0  0  0
  1  2  1  0  0  0
  2  3  1  0  0  0
  3  4  1  0  0  0
  4  5  1  0  0  0
  5  6  1  0  0  0
  4  7  1  0  0  0
  7  8  2  0  0  0
  8  9  1  0  0  0
  9 10  1  0  0  0
 10 11  2  0  0  0
 11 12  1  0  0  0
 12 13  2  0  0  0
 13 14  1  0  0  0
 14 15  2  0  0  0
 13 17  1  0  0  0
 17 18  2  0  0  0
 18 19  1  0  0  0
 19 20  2  0  0  0
 20 21  1  0  0  0
 21 22  2  0  0  0
 31 26  1  0  0  0
  6  1  1  0  0  0
 15  7  1  0  0  0
 22 17  1  0  0  0
  6  3  1  0  0  0
 15 10  1  0  0  0
  9 16  1  0  0  0
M  END
> <minimizedAffinity>
15.57328

> <CNNscore>
0.5322801471

> <CNNaffinity>
7.6060523987

> <CNN_VS>
4.0485506058

> <CNNaffinity_variance>
1.9025290012

$$$$
[H]c1c([H])c([H])c(-c2c([H])c([H])c(C(=O)N([H])[C@]3([H])C([H])([H])[C@]4([H])C([H])([H])N(S(=O)(=O)c5c([H])c([H])c(OC([H])([H])[H])c([H])c5[H])C([H])([H])[C@]43[H])c([H])c2[H])c([H])c1[H]


 34 38  0  0  0  0  0  0  0  0999 V2000
    9.6806   47.9798  132.0757 N   0  0  0  0  0  0  0  0  0  0  0  0
    8.6674   47.9317  131.0056 C   0  0  0  0  0  0  0  0  0  0  0  0
    8.7409   49.3246  130.5890 C   0  0  0  0  0  0  0  0  0  0  0  0
    7.6930   50.2191  130.1865 C   0  0  0  0  0  0  0  0  0  0  0  0
    8.2752   51.1227  131.3100 C   0  0  0  0  0  0  0  0  0  0  0  0
    8.4010   49.8685  132.0193 C   0  0  0  0  0  0  0  0  0  0  0  0
    9.5695   49.3171  132.6762 C   0  0  0  0  0  0  0  0  0  0  0  0
    7.8642   50.8998  128.9174 N   0  0  0  0  0  0  0  0  0  0  0  0
    7.2602   52.1414  128.6298 C   0  0  0  0  0  0  0  0  0  0  0  0
    6.5442   52.6843  129.5034 O   0  0  0  0  0  0  0  0  0  0  0  0
    8.4594   50.4400  128.2020 H   0  0  0  0  0  0  0  0  0  0  0  0
    7.4406   52.8075  127.3595 C   0  0  0  0  0  0  0  0  0  0  0  0
    7.6957   52.0604  126.2044 C   0  0  0  0  0  0  0  0  0  0  0  0
    7.8723   52.6656  124.9798 C   0  0  0  0  0  0  0  0  0  0  0  0
    7.8052   54.0303  124.8417 C   0  0  0  0  0  0  0  0  0  0  0  0
    7.5557   54.7900  125.9609 C   0  0  0  0  0  0  0  0  0  0  0  0
    7.3816   54.1660  127.1780 C   0  0  0  0  0  0  0  0  0  0  0  0
    7.9939   54.6799  123.5359 C   0  0  0  0  0  0  0  0  0  0  0  0
    9.1563   55.3585  123.2315 C   0  0  0  0  0  0  0  0  0  0  0  0
    9.3463   55.9739  122.0073 C   0  0  0  0  0  0  0  0  0  0  0  0
    8.3638   55.9264  121.0405 C   0  0  0  0  0  0  0  0  0  0  0  0
    7.2055   55.2493  121.3458 C   0  0  0  0  0  0  0  0  0  0  0  0
    7.0108   54.6330  122.5667 C   0  0  0  0  0  0  0  0  0  0  0  0
    9.6448   46.7162  133.1444 S   0  0  0  0  0  0  0  0  0  0  0  0
    8.2619   46.6485  133.7621 O   0  0  0  0  0  0  0  0  0  0  0  0
   10.5801   47.0294  134.2991 O   0  0  0  0  0  0  0  0  0  0  0  0
   10.6393   42.6057  131.5677 C   0  0  0  0  0  0  0  0  0  0  0  0
   11.1137   43.7247  130.9121 C   0  0  0  0  0  0  0  0  0  0  0  0
   10.7970   44.9710  131.4107 C   0  0  0  0  0  0  0  0  0  0  0  0
   10.0257   45.1528  132.5378 C   0  0  0  0  0  0  0  0  0  0  0  0
    9.5660   44.0205  133.1717 C   0  0  0  0  0  0  0  0  0  0  0  0
    9.8714   42.7441  132.6886 C   0  0  0  0  0  0  0  0  0  0  0  0
   11.3369   40.3225  131.9698 C   0  0  0  0  0  0  0  0  0  0  0  0
   10.9532   41.3462  131.0728 O   0  0  0  0  0  0  0  0  0  0  0  0
 33 34  1  0  0  0
 34 27  1  0  0  0
 27 28  2  0  0  0
 28 29  1  0  0  0
 29 30  2  0  0  0
 30 31  1  0  0  0
 31 32  2  0  0  0
 30 24  1  0  0  0
 24 25  2  0  0  0
 24 26  2  0  0  0
 24  1  1  0  0  0
  1  2  1  0  0  0
  2  3  1  0  0  0
  3  4  1  0  0  0
  4  5  1  0  0  0
  5  6  1  0  0  0
  6  7  1  0  0  0
  4  8  1  0  0  0
  8  9  1  0  0  0
  9 10  2  0  0  0
  9 12  1  0  0  0
 12 13  2  0  0  0
 13 14  1  0  0  0
 14 15  2  0  0  0
 15 16  1  0  0  0
 16 17  2  0  0  0
 15 18  1  0  0  0
 18 19  2  0  0  0
 19 20  1  0  0  0
 20 21  2  0  0  0
 21 22  1  0  0  0
 22 23  2  0  0  0
 32 27  1  0  0  0
  7  1  1  0  0  0
 17 12  1  0  0  0
 23 18  1  0  0  0
  6  3  1  0  0  0
  8 11  1  0  0  0
M  END
> <minimizedAffinity>
5.86245

> <CNNscore>
0.6292195916

> <CNNaffinity>
7.1790533066

> <CNN_VS>
4.5172009468

> <CNNaffinity_variance>
1.2384216785

$$$$
[H]c1c([H])c([H])c(-c2c([H])c([H])c(C(=O)N([H])[C@]3([H])C([H])([H])[C@]4([H])C([H])([H])N(S(=O)(=O)c5c([H])c([H])c(OC([H])([H])[H])c([H])c5[H])C([H])([H])[C@]43[H])c([H])c2[H])c([H])c1[H]


 34 38  0  0  0  0  0  0  0  0999 V2000
    8.4688   46.8333  131.1868 N   0  0  0  0  0  0  0  0  0  0  0  0
    7.3636   47.4061  130.3966 C   0  0  0  0  0  0  0  0  0  0  0  0
    8.0017   48.6617  130.0290 C   0  0  0  0  0  0  0  0  0  0  0  0
    7.4443   49.9807  129.9306 C   0  0  0  0  0  0  0  0  0  0  0  0
    8.5939   50.3472  130.9113 C   0  0  0  0  0  0  0  0  0  0  0  0
    8.2504   49.0804  131.5190 C   0  0  0  0  0  0  0  0  0  0  0  0
    9.1240   47.9715  131.8475 C   0  0  0  0  0  0  0  0  0  0  0  0
    7.6610   50.6922  128.6855 N   0  0  0  0  0  0  0  0  0  0  0  0
    7.2123   52.0123  128.4729 C   0  0  0  0  0  0  0  0  0  0  0  0
    6.5998   52.6005  129.3946 O   0  0  0  0  0  0  0  0  0  0  0  0
    8.1693   50.1944  127.9298 H   0  0  0  0  0  0  0  0  0  0  0  0
    7.4362   52.7082  127.2258 C   0  0  0  0  0  0  0  0  0  0  0  0
    7.6505   51.9860  126.0468 C   0  0  0  0  0  0  0  0  0  0  0  0
    7.8668   52.6200  124.8433 C   0  0  0  0  0  0  0  0  0  0  0  0
    7.8811   53.9901  124.7506 C   0  0  0  0  0  0  0  0  0  0  0  0
    7.6731   54.7257  125.8942 C   0  0  0  0  0  0  0  0  0  0  0  0
    7.4583   54.0731  127.0895 C   0  0  0  0  0  0  0  0  0  0  0  0
    8.1124   54.6703  123.4674 C   0  0  0  0  0  0  0  0  0  0  0  0
    7.1578   54.6699  122.4709 C   0  0  0  0  0  0  0  0  0  0  0  0
    7.3628   55.3056  121.2597 C   0  0  0  0  0  0  0  0  0  0  0  0
    8.5460   55.9685  121.0090 C   0  0  0  0  0  0  0  0  0  0  0  0
    9.4966   55.9680  122.0037 C   0  0  0  0  0  0  0  0  0  0  0  0
    9.2968   55.3347  123.2152 C   0  0  0  0  0  0  0  0  0  0  0  0
    8.0534   45.5774  132.1819 S   0  0  0  0  0  0  0  0  0  0  0  0
    7.6396   44.3995  131.3217 O   0  0  0  0  0  0  0  0  0  0  0  0
    6.8040   45.9623  132.9548 O   0  0  0  0  0  0  0  0  0  0  0  0
   11.1648   44.1040  135.1007 C   0  0  0  0  0  0  0  0  0  0  0  0
   10.5512   45.3233  135.3102 C   0  0  0  0  0  0  0  0  0  0  0  0
    9.6039   45.7545  134.4053 C   0  0  0  0  0  0  0  0  0  0  0  0
    9.2393   45.0222  133.2966 C   0  0  0  0  0  0  0  0  0  0  0  0
    9.8665   43.8107  133.1121 C   0  0  0  0  0  0  0  0  0  0  0  0
   10.8308   43.3483  134.0133 C   0  0  0  0  0  0  0  0  0  0  0  0
   11.7583   42.7126  136.9910 C   0  0  0  0  0  0  0  0  0  0  0  0
   12.1202   43.6615  136.0069 O   0  0  0  0  0  0  0  0  0  0  0  0
 33 34  1  0  0  0
 34 27  1  0  0  0
 27 28  2  0  0  0
 28 29  1  0  0  0
 29 30  2  0  0  0
 30 31  1  0  0  0
 31 32  2  0  0  0
 30 24  1  0  0  0
 24 25  2  0  0  0
 24 26  2  0  0  0
 24  1  1  0  0  0
  1  2  1  0  0  0
  2  3  1  0  0  0
  3  4  1  0  0  0
  4  5  1  0  0  0
  5  6  1  0  0  0
  6  7  1  0  0  0
  4  8  1  0  0  0
  8  9  1  0  0  0
  9 10  2  0  0  0
  9 12  1  0  0  0
 12 13  2  0  0  0
 13 14  1  0  0  0
 14 15  2  0  0  0
 15 16  1  0  0  0
 16 17  2  0  0  0
 15 18  1  0  0  0
 18 19  2  0  0  0
 19 20  1  0  0  0
 20 21  2  0  0  0
 21 22  1  0  0  0
 22 23  2  0  0  0
 32 27  1  0  0  0
  7  1  1  0  0  0
 17 12  1  0  0  0
 23 18  1  0  0  0
  6  3  1  0  0  0
  8 11  1  0  0  0
M  END
> <minimizedAffinity>
7.09187

> <CNNscore>
0.6172037721

> <CNNaffinity>
7.0686769485

> <CNN_VS>
4.3628139496

> <CNNaffinity_variance>
0.8226183057

$$$$
[H]c1c([H])c([H])c(-c2c([H])c([H])c(C(=O)N([H])[C@]3([H])C([H])([H])[C@]4([H])C([H])([H])N(S(=O)(=O)c5c([H])c([H])c(OC([H])([H])[H])c([H])c5[H])C([H])([H])[C@]43[H])c([H])c2[H])c([H])c1[H]


 34 38  0  0  0  0  0  0  0  0999 V2000
    7.7320   53.5622  127.1996 N   0  0  0  0  0  0  0  0  0  0  0  0
    7.4872   53.5105  128.6527 C   0  0  0  0  0  0  0  0  0  0  0  0
    7.5449   52.0657  128.8204 C   0  0  0  0  0  0  0  0  0  0  0  0
    6.7538   51.2058  129.6539 C   0  0  0  0  0  0  0  0  0  0  0  0
    6.4741   50.4626  128.3172 C   0  0  0  0  0  0  0  0  0  0  0  0
    6.3986   51.8049  127.7837 C   0  0  0  0  0  0  0  0  0  0  0  0
    7.0944   52.3615  126.6404 C   0  0  0  0  0  0  0  0  0  0  0  0
    7.4723   50.3060  130.5357 N   0  0  0  0  0  0  0  0  0  0  0  0
    7.9182   49.0318  130.1274 C   0  0  0  0  0  0  0  0  0  0  0  0
    7.6867   48.6554  128.9546 O   0  0  0  0  0  0  0  0  0  0  0  0
    7.6579   50.6291  131.5045 H   0  0  0  0  0  0  0  0  0  0  0  0
    8.6334   48.1462  131.0184 C   0  0  0  0  0  0  0  0  0  0  0  0
    9.0504   46.8873  130.5725 C   0  0  0  0  0  0  0  0  0  0  0  0
    9.7334   46.0212  131.3973 C   0  0  0  0  0  0  0  0  0  0  0  0
   10.0339   46.3580  132.6944 C   0  0  0  0  0  0  0  0  0  0  0  0
    9.6360   47.5898  133.1597 C   0  0  0  0  0  0  0  0  0  0  0  0
    8.9533   48.4431  132.3190 C   0  0  0  0  0  0  0  0  0  0  0  0
   10.7624   45.4354  133.5780 C   0  0  0  0  0  0  0  0  0  0  0  0
   11.9954   44.9255  133.2260 C   0  0  0  0  0  0  0  0  0  0  0  0
   12.6908   44.0570  134.0478 C   0  0  0  0  0  0  0  0  0  0  0  0
   12.1635   43.6694  135.2618 C   0  0  0  0  0  0  0  0  0  0  0  0
   10.9340   44.1788  135.6112 C   0  0  0  0  0  0  0  0  0  0  0  0
   10.2354   45.0466  134.7942 C   0  0  0  0  0  0  0  0  0  0  0  0
    7.3297   54.9888  126.4624 S   0  0  0  0  0  0  0  0  0  0  0  0
    8.6078   55.7183  126.0980 O   0  0  0  0  0  0  0  0  0  0  0  0
    6.6385   55.8824  127.4773 O   0  0  0  0  0  0  0  0  0  0  0  0
    4.7509   54.7688  122.7648 C   0  0  0  0  0  0  0  0  0  0  0  0
    6.0766   54.3877  122.6997 C   0  0  0  0  0  0  0  0  0  0  0  0
    6.8466   54.4637  123.8413 C   0  0  0  0  0  0  0  0  0  0  0  0
    6.3527   54.9043  125.0498 C   0  0  0  0  0  0  0  0  0  0  0  0
    5.0282   55.2778  125.0865 C   0  0  0  0  0  0  0  0  0  0  0  0
    4.2237   55.2112  123.9445 C   0  0  0  0  0  0  0  0  0  0  0  0
    3.3441   53.4723  121.2810 C   0  0  0  0  0  0  0  0  0  0  0  0
    3.9676   54.6956  121.6199 O   0  0  0  0  0  0  0  0  0  0  0  0
 33 34  1  0  0  0
 34 27  1  0  0  0
 27 28  2  0  0  0
 28 29  1  0  0  0
 29 30  2  0  0  0
 30 31  1  0  0  0
 31 32  2  0  0  0
 30 24  1  0  0  0
 24 25  2  0  0  0
 24 26  2  0  0  0
 24  1  1  0  0  0
  1  2  1  0  0  0
  2  3  1  0  0  0
  3  4  1  0  0  0
  4  5  1  0  0  0
  5  6  1  0  0  0
  6  7  1  0  0  0
  4  8  1  0  0  0
  8  9  1  0  0  0
  9 10  2  0  0  0
  9 12  1  0  0  0
 12 13  2  0  0  0
 13 14  1  0  0  0
 14 15  2  0  0  0
 15 16  1  0  0  0
 16 17  2  0  0  0
 15 18  1  0  0  0
 18 19  2  0  0  0
 19 20  1  0  0  0
 20 21  2  0  0  0
 21 22  1  0  0  0
 22 23  2  0  0  0
 32 27  1  0  0  0
  7  1  1  0  0  0
 17 12  1  0  0  0
 23 18  1  0  0  0
  6  3  1  0  0  0
  8 11  1  0  0  0
M  END
> <minimizedAffinity>
7.87996

> <CNNscore>
0.4927886724

> <CNNaffinity>
6.5353155136

> <CNN_VS>
3.2205295563

> <CNNaffinity_variance>
0.6078346968

$$$$
[H]c1c([H])c([H])c(-c2c([H])c([H])c(C(=O)N([H])[C@]3([H])C([H])([H])[C@]4([H])C([H])([H])N(S(=O)(=O)c5c([H])c([H])c(OC([H])([H])[H])c([H])c5[H])C([H])([H])[C@]43[H])c([H])c2[H])c([H])c1[H]


 34 38  0  0  0  0  0  0  0  0999 V2000
   11.2093   45.9346  132.1266 N   0  0  0  0  0  0  0  0  0  0  0  0
    9.8814   46.2501  131.5688 C   0  0  0  0  0  0  0  0  0  0  0  0
    9.9852   47.7018  131.5972 C   0  0  0  0  0  0  0  0  0  0  0  0
    8.9926   48.6872  131.9193 C   0  0  0  0  0  0  0  0  0  0  0  0
   10.0566   49.1651  132.9475 C   0  0  0  0  0  0  0  0  0  0  0  0
   10.2609   47.7462  133.1396 C   0  0  0  0  0  0  0  0  0  0  0  0
   11.5027   46.9998  133.0964 C   0  0  0  0  0  0  0  0  0  0  0  0
    8.7835   49.7471  130.9516 N   0  0  0  0  0  0  0  0  0  0  0  0
    7.6510   49.8022  130.1129 C   0  0  0  0  0  0  0  0  0  0  0  0
    6.7855   48.9002  130.2027 O   0  0  0  0  0  0  0  0  0  0  0  0
    9.5074   50.4881  130.8867 H   0  0  0  0  0  0  0  0  0  0  0  0
    7.4569   50.8655  129.1531 C   0  0  0  0  0  0  0  0  0  0  0  0
    7.5739   50.6057  127.7833 C   0  0  0  0  0  0  0  0  0  0  0  0
    7.3950   51.5974  126.8444 C   0  0  0  0  0  0  0  0  0  0  0  0
    7.0937   52.8851  127.2147 C   0  0  0  0  0  0  0  0  0  0  0  0
    6.9726   53.1693  128.5551 C   0  0  0  0  0  0  0  0  0  0  0  0
    7.1552   52.1633  129.4799 C   0  0  0  0  0  0  0  0  0  0  0  0
    6.9027   53.9466  126.2150 C   0  0  0  0  0  0  0  0  0  0  0  0
    7.5987   53.9460  125.0234 C   0  0  0  0  0  0  0  0  0  0  0  0
    7.4284   54.9384  124.0749 C   0  0  0  0  0  0  0  0  0  0  0  0
    6.5442   55.9734  124.2964 C   0  0  0  0  0  0  0  0  0  0  0  0
    5.8510   55.9723  125.4850 C   0  0  0  0  0  0  0  0  0  0  0  0
    6.0173   54.9836  126.4355 C   0  0  0  0  0  0  0  0  0  0  0  0
   11.3929   44.3895  132.6915 S   0  0  0  0  0  0  0  0  0  0  0  0
   12.0560   44.4515  134.0535 O   0  0  0  0  0  0  0  0  0  0  0  0
   12.3839   43.6608  131.8008 O   0  0  0  0  0  0  0  0  0  0  0  0
    7.6822   41.8526  133.0983 C   0  0  0  0  0  0  0  0  0  0  0  0
    7.9731   42.4528  131.8891 C   0  0  0  0  0  0  0  0  0  0  0  0
    9.1117   43.2244  131.7873 C   0  0  0  0  0  0  0  0  0  0  0  0
    9.9767   43.4254  132.8408 C   0  0  0  0  0  0  0  0  0  0  0  0
    9.6628   42.8156  134.0343 C   0  0  0  0  0  0  0  0  0  0  0  0
    8.5149   42.0276  134.1665 C   0  0  0  0  0  0  0  0  0  0  0  0
    5.9596   40.8658  134.4842 C   0  0  0  0  0  0  0  0  0  0  0  0
    6.5375   41.0735  133.2103 O   0  0  0  0  0  0  0  0  0  0  0  0
 33 34  1  0  0  0
 34 27  1  0  0  0
 27 28  2  0  0  0
 28 29  1  0  0  0
 29 30  2  0  0  0
 30 31  1  0  0  0
 31 32  2  0  0  0
 30 24  1  0  0  0
 24 25  2  0  0  0
 24 26  2  0  0  0
 24  1  1  0  0  0
  1  2  1  0  0  0
  2  3  1  0  0  0
  3  4  1  0  0  0
  4  5  1  0  0  0
  5  6  1  0  0  0
  6  7  1  0  0  0
  4  8  1  0  0  0
  8  9  1  0  0  0
  9 10  2  0  0  0
  9 12  1  0  0  0
 12 13  2  0  0  0
 13 14  1  0  0  0
 14 15  2  0  0  0
 15 16  1  0  0  0
 16 17  2  0  0  0
 15 18  1  0  0  0
 18 19  2  0  0  0
 19 20  1  0  0  0
 20 21  2  0  0  0
 21 22  1  0  0  0
 22 23  2  0  0  0
 32 27  1  0  0  0
  7  1  1  0  0  0
 17 12  1  0  0  0
 23 18  1  0  0  0
  6  3  1  0  0  0
  8 11  1  0  0  0
M  END
> <minimizedAffinity>
10.54390

> <CNNscore>
0.4828051925

> <CNNaffinity>
6.8426589966

> <CNN_VS>
3.3036713600

> <CNNaffinity_variance>
1.1700018644

$$$$
[H]c1c([H])c([H])c(-c2c([H])c([H])c(C(=O)N([H])[C@]3([H])C([H])([H])[C@]4([H])C([H])([H])N(S(=O)(=O)c5c([H])c([H])c(OC([H])([H])[H])c([H])c5[H])C([H])([H])[C@]43[H])c([H])c2[H])c([H])c1[H]


 34 38  0  0  0  0  0  0  0  0999 V2000
    6.9877   52.9007  127.4570 N   0  0  0  0  0  0  0  0  0  0  0  0
    7.6145   52.7754  128.7857 C   0  0  0  0  0  0  0  0  0  0  0  0
    7.2082   51.4083  129.0775 C   0  0  0  0  0  0  0  0  0  0  0  0
    6.7790   50.8224  130.3154 C   0  0  0  0  0  0  0  0  0  0  0  0
    5.5351   50.4044  129.4813 C   0  0  0  0  0  0  0  0  0  0  0  0
    5.6821   51.7272  128.9150 C   0  0  0  0  0  0  0  0  0  0  0  0
    5.7514   52.1075  127.5180 C   0  0  0  0  0  0  0  0  0  0  0  0
    7.4671   49.6199  130.7444 N   0  0  0  0  0  0  0  0  0  0  0  0
    7.8491   48.5989  129.8496 C   0  0  0  0  0  0  0  0  0  0  0  0
    7.5856   48.7302  128.6314 O   0  0  0  0  0  0  0  0  0  0  0  0
    7.6796   49.5228  131.7557 H   0  0  0  0  0  0  0  0  0  0  0  0
    8.5346   47.4058  130.2928 C   0  0  0  0  0  0  0  0  0  0  0  0
    9.6697   47.5082  131.1043 C   0  0  0  0  0  0  0  0  0  0  0  0
   10.3447   46.3904  131.5426 C   0  0  0  0  0  0  0  0  0  0  0  0
    9.9305   45.1265  131.2005 C   0  0  0  0  0  0  0  0  0  0  0  0
    8.8171   44.9959  130.4033 C   0  0  0  0  0  0  0  0  0  0  0  0
    8.1548   46.1266  129.9746 C   0  0  0  0  0  0  0  0  0  0  0  0
   10.6491   43.9309  131.6661 C   0  0  0  0  0  0  0  0  0  0  0  0
   11.8264   44.0315  132.3790 C   0  0  0  0  0  0  0  0  0  0  0  0
   12.5120   42.9150  132.8225 C   0  0  0  0  0  0  0  0  0  0  0  0
   12.0313   41.6491  132.5607 C   0  0  0  0  0  0  0  0  0  0  0  0
   10.8573   41.5507  131.8498 C   0  0  0  0  0  0  0  0  0  0  0  0
   10.1686   42.6625  131.4047 C   0  0  0  0  0  0  0  0  0  0  0  0
    6.8114   54.4490  126.8985 S   0  0  0  0  0  0  0  0  0  0  0  0
    7.6203   55.3747  127.7859 O   0  0  0  0  0  0  0  0  0  0  0  0
    5.3668   54.8746  127.0937 O   0  0  0  0  0  0  0  0  0  0  0  0
    8.0027   55.2760  122.6244 C   0  0  0  0  0  0  0  0  0  0  0  0
    6.7462   54.7742  122.9011 C   0  0  0  0  0  0  0  0  0  0  0  0
    6.4034   54.5281  124.2141 C   0  0  0  0  0  0  0  0  0  0  0  0
    7.2601   54.7605  125.2679 C   0  0  0  0  0  0  0  0  0  0  0  0
    8.5060   55.2607  124.9638 C   0  0  0  0  0  0  0  0  0  0  0  0
    8.8808   55.5199  123.6416 C   0  0  0  0  0  0  0  0  0  0  0  0
    9.6661   55.9723  121.0089 C   0  0  0  0  0  0  0  0  0  0  0  0
    8.3568   55.5271  121.3049 O   0  0  0  0  0  0  0  0  0  0  0  0
 33 34  1  0  0  0
 34 27  1  0  0  0
 27 28  2  0  0  0
 28 29  1  0  0  0
 29 30  2  0  0  0
 30 31  1  0  0  0
 31 32  2  0  0  0
 30 24  1  0  0  0
 24 25  2  0  0  0
 24 26  2  0  0  0
 24  1  1  0  0  0
  1  2  1  0  0  0
  2  3  1  0  0  0
  3  4  1  0  0  0
  4  5  1  0  0  0
  5  6  1  0  0  0
  6  7  1  0  0  0
  4  8  1  0  0  0
  8  9  1  0  0  0
  9 10  2  0  0  0
  9 12  1  0  0  0
 12 13  2  0  0  0
 13 14  1  0  0  0
 14 15  2  0  0  0
 15 16  1  0  0  0
 16 17  2  0  0  0
 15 18  1  0  0  0
 18 19  2  0  0  0
 19 20  1  0  0  0
 20 21  2  0  0  0
 21 22  1  0  0  0
 22 23  2  0  0  0
 32 27  1  0  0  0
  7  1  1  0  0  0
 17 12  1  0  0  0
 23 18  1  0  0  0
  6  3  1  0  0  0
  8 11  1  0  0  0
M  END
> <minimizedAffinity>
10.50706

> <CNNscore>
0.4588167965

> <CNNaffinity>
6.9230756760

> <CNN_VS>
3.1764233112

> <CNNaffinity_variance>
1.0344827175

$$$$
[H]c1c([H])c([H])c(-c2c([H])c([H])c(C(=O)N([H])[C@]3([H])C([H])([H])[C@]4([H])C([H])([H])N(S(=O)(=O)c5c([H])c([H])c(OC([H])([H])[H])c([H])c5[H])C([H])([H])[C@]43[H])c([H])c2[H])c([H])c1[H]


 34 38  0  0  0  0  0  0  0  0999 V2000
    9.3440   40.8258  126.8308 N   0  0  0  0  0  0  0  0  0  0  0  0
    9.9983   40.8470  128.1520 C   0  0  0  0  0  0  0  0  0  0  0  0
    9.8332   42.2641  128.4413 C   0  0  0  0  0  0  0  0  0  0  0  0
   10.7345   43.1825  129.0772 C   0  0  0  0  0  0  0  0  0  0  0  0
   10.5245   44.0113  127.7785 C   0  0  0  0  0  0  0  0  0  0  0  0
   10.5876   42.7136  127.1429 C   0  0  0  0  0  0  0  0  0  0  0  0
    9.6521   42.1211  126.2075 C   0  0  0  0  0  0  0  0  0  0  0  0
   10.2124   43.9445  130.1954 N   0  0  0  0  0  0  0  0  0  0  0  0
   11.0170   44.7961  130.9806 C   0  0  0  0  0  0  0  0  0  0  0  0
   12.2350   44.9031  130.7056 O   0  0  0  0  0  0  0  0  0  0  0  0
    9.2022   43.8473  130.4131 H   0  0  0  0  0  0  0  0  0  0  0  0
   10.4815   45.5492  132.0922 C   0  0  0  0  0  0  0  0  0  0  0  0
    9.2792   45.1584  132.6915 C   0  0  0  0  0  0  0  0  0  0  0  0
    8.7433   45.8552  133.7519 C   0  0  0  0  0  0  0  0  0  0  0  0
    9.3683   46.9648  134.2659 C   0  0  0  0  0  0  0  0  0  0  0  0
   10.5523   47.3719  133.6961 C   0  0  0  0  0  0  0  0  0  0  0  0
   11.0730   46.6615  132.6355 C   0  0  0  0  0  0  0  0  0  0  0  0
    8.7988   47.7115  135.3976 C   0  0  0  0  0  0  0  0  0  0  0  0
    7.6714   48.4933  135.2488 C   0  0  0  0  0  0  0  0  0  0  0  0
    7.1258   49.2006  136.3049 C   0  0  0  0  0  0  0  0  0  0  0  0
    7.7020   49.1442  137.5567 C   0  0  0  0  0  0  0  0  0  0  0  0
    8.8260   48.3642  137.7032 C   0  0  0  0  0  0  0  0  0  0  0  0
    9.3748   47.6557  136.6518 C   0  0  0  0  0  0  0  0  0  0  0  0
    9.6666   39.4953  125.9004 S   0  0  0  0  0  0  0  0  0  0  0  0
    9.1214   39.7398  124.5070 O   0  0  0  0  0  0  0  0  0  0  0  0
    8.8681   38.3208  126.4383 O   0  0  0  0  0  0  0  0  0  0  0  0
   13.9806   38.2286  125.5054 C   0  0  0  0  0  0  0  0  0  0  0  0
   13.4765   39.2125  124.6778 C   0  0  0  0  0  0  0  0  0  0  0  0
   12.1553   39.5836  124.8152 C   0  0  0  0  0  0  0  0  0  0  0  0
   11.3107   39.0158  125.7440 C   0  0  0  0  0  0  0  0  0  0  0  0
   11.8390   38.0377  126.5559 C   0  0  0  0  0  0  0  0  0  0  0  0
   13.1751   37.6414  126.4390 C   0  0  0  0  0  0  0  0  0  0  0  0
   15.8493   37.6376  124.0841 C   0  0  0  0  0  0  0  0  0  0  0  0
   15.3102   37.8483  125.3744 O   0  0  0  0  0  0  0  0  0  0  0  0
 33 34  1  0  0  0
 34 27  1  0  0  0
 27 28  2  0  0  0
 28 29  1  0  0  0
 29 30  2  0  0  0
 30 31  1  0  0  0
 31 32  2  0  0  0
 30 24  1  0  0  0
 24 25  2  0  0  0
 24 26  2  0  0  0
 24  1  1  0  0  0
  1  2  1  0  0  0
  2  3  1  0  0  0
  3  4  1  0  0  0
  4  5  1  0  0  0
  5  6  1  0  0  0
  6  7  1  0  0  0
  4  8  1  0  0  0
  8  9  1  0  0  0
  9 10  2  0  0  0
  9 12  1  0  0  0
 12 13  2  0  0  0
 13 14  1  0  0  0
 14 15  2  0  0  0
 15 16  1  0  0  0
 16 17  2  0  0  0
 15 18  1  0  0  0
 18 19  2  0  0  0
 19 20  1  0  0  0
 20 21  2  0  0  0
 21 22  1  0  0  0
 22 23  2  0  0  0
 32 27  1  0  0  0
  7  1  1  0  0  0
 17 12  1  0  0  0
 23 18  1  0  0  0
  6  3  1  0  0  0
  8 11  1  0  0  0
M  END
> <minimizedAffinity>
45.31033

> <CNNscore>
0.4306692481

> <CNNaffinity>
6.5331907272

> <CNN_VS>
2.8136444092

> <CNNaffinity_variance>
0.9813793898

$$$$
[H]c1c([H])c([H])c(-c2c([H])c([H])c(C(=O)N([H])[C@]3([H])C([H])([H])[C@]4([H])C([H])([H])N(S(=O)(=O)c5c([H])c([H])c(OC([H])([H])[H])c([H])c5[H])C([H])([H])[C@]43[H])c([H])c2[H])c([H])c1[H]


 34 38  0  0  0  0  0  0  0  0999 V2000
    7.3869   53.1403  127.6686 N   0  0  0  0  0  0  0  0  0  0  0  0
    7.0514   52.9491  129.0916 C   0  0  0  0  0  0  0  0  0  0  0  0
    7.3355   51.5242  129.1810 C   0  0  0  0  0  0  0  0  0  0  0  0
    6.6404   50.4925  129.8969 C   0  0  0  0  0  0  0  0  0  0  0  0
    6.5834   49.8087  128.5017 C   0  0  0  0  0  0  0  0  0  0  0  0
    6.3247   51.1552  128.0411 C   0  0  0  0  0  0  0  0  0  0  0  0
    6.9983   51.8944  126.9918 C   0  0  0  0  0  0  0  0  0  0  0  0
    7.4335   49.6608  130.7817 N   0  0  0  0  0  0  0  0  0  0  0  0
    7.8325   48.3509  130.4438 C   0  0  0  0  0  0  0  0  0  0  0  0
    7.4903   47.8801  129.3338 O   0  0  0  0  0  0  0  0  0  0  0  0
    7.7106   50.0620  131.6980 H   0  0  0  0  0  0  0  0  0  0  0  0
    8.6232   47.5343  131.3368 C   0  0  0  0  0  0  0  0  0  0  0  0
    8.2520   46.2095  131.5913 C   0  0  0  0  0  0  0  0  0  0  0  0
    8.9845   45.4064  132.4372 C   0  0  0  0  0  0  0  0  0  0  0  0
   10.1118   45.8737  133.0672 C   0  0  0  0  0  0  0  0  0  0  0  0
   10.5002   47.1727  132.8353 C   0  0  0  0  0  0  0  0  0  0  0  0
    9.7542   47.9612  131.9853 C   0  0  0  0  0  0  0  0  0  0  0  0
   10.8958   45.0192  133.9715 C   0  0  0  0  0  0  0  0  0  0  0  0
   12.1763   44.6168  133.6506 C   0  0  0  0  0  0  0  0  0  0  0  0
   12.9242   43.8132  134.4921 C   0  0  0  0  0  0  0  0  0  0  0  0
   12.4036   43.3840  135.6950 C   0  0  0  0  0  0  0  0  0  0  0  0
   11.1268   43.7862  136.0133 C   0  0  0  0  0  0  0  0  0  0  0  0
   10.3757   44.5888  135.1765 C   0  0  0  0  0  0  0  0  0  0  0  0
    6.8074   54.5313  126.9835 S   0  0  0  0  0  0  0  0  0  0  0  0
    7.1275   55.6908  127.9062 O   0  0  0  0  0  0  0  0  0  0  0  0
    5.2908   54.4602  126.9473 O   0  0  0  0  0  0  0  0  0  0  0  0
    8.3148   55.6014  122.8660 C   0  0  0  0  0  0  0  0  0  0  0  0
    6.9622   55.6609  123.1377 C   0  0  0  0  0  0  0  0  0  0  0  0
    6.5233   55.3289  124.4023 C   0  0  0  0  0  0  0  0  0  0  0  0
    7.3755   54.9387  125.4123 C   0  0  0  0  0  0  0  0  0  0  0  0
    8.7185   54.8880  125.1142 C   0  0  0  0  0  0  0  0  0  0  0  0
    9.1919   55.2192  123.8406 C   0  0  0  0  0  0  0  0  0  0  0  0
   10.1563   55.9693  121.3379 C   0  0  0  0  0  0  0  0  0  0  0  0
    8.7661   55.9341  121.5950 O   0  0  0  0  0  0  0  0  0  0  0  0
 33 34  1  0  0  0
 34 27  1  0  0  0
 27 28  2  0  0  0
 28 29  1  0  0  0
 29 30  2  0  0  0
 30 31  1  0  0  0
 31 32  2  0  0  0
 30 24  1  0  0  0
 24 25  2  0  0  0
 24 26  2  0  0  0
 24  1  1  0  0  0
  1  2  1  0  0  0
  2  3  1  0  0  0
  3  4  1  0  0  0
  4  5  1  0  0  0
  5  6  1  0  0  0
  6  7  1  0  0  0
  4  8  1  0  0  0
  8  9  1  0  0  0
  9 10  2  0  0  0
  9 12  1  0  0  0
 12 13  2  0  0  0
 13 14  1  0  0  0
 14 15  2  0  0  0
 15 16  1  0  0  0
 16 17  2  0  0  0
 15 18  1  0  0  0
 18 19  2  0  0  0
 19 20  1  0  0  0
 20 21  2  0  0  0
 21 22  1  0  0  0
 22 23  2  0  0  0
 32 27  1  0  0  0
  7  1  1  0  0  0
 17 12  1  0  0  0
 23 18  1  0  0  0
  6  3  1  0  0  0
  8 11  1  0  0  0
M  END
> <minimizedAffinity>
10.91961

> <CNNscore>
0.4137220085

> <CNNaffinity>
6.4981284142

> <CNN_VS>
2.6884186268

> <CNNaffinity_variance>
0.5506626368

$$$$
[H]c1c([H])c([H])c(-c2c([H])c([H])c(C(=O)N([H])[C@]3([H])C([H])([H])[C@]4([H])C([H])([H])N(S(=O)(=O)c5c([H])c([H])c(OC([H])([H])[H])c([H])c5[H])C([H])([H])[C@]43[H])c([H])c2[H])c([H])c1[H]


 34 38  0  0  0  0  0  0  0  0999 V2000
    7.4347   47.9773  129.4987 N   0  0  0  0  0  0  0  0  0  0  0  0
    8.7507   47.3522  129.7257 C   0  0  0  0  0  0  0  0  0  0  0  0
    8.3218   45.9612  129.7219 C   0  0  0  0  0  0  0  0  0  0  0  0
    8.7612   44.8627  130.5345 C   0  0  0  0  0  0  0  0  0  0  0  0
    7.2468   44.7295  130.8609 C   0  0  0  0  0  0  0  0  0  0  0  0
    7.3002   46.1746  130.8914 C   0  0  0  0  0  0  0  0  0  0  0  0
    6.4581   47.1232  130.1899 C   0  0  0  0  0  0  0  0  0  0  0  0
    9.1864   43.6627  129.8396 N   0  0  0  0  0  0  0  0  0  0  0  0
    9.9345   43.6975  128.6445 C   0  0  0  0  0  0  0  0  0  0  0  0
   10.2479   44.8089  128.1574 O   0  0  0  0  0  0  0  0  0  0  0  0
    8.9206   42.7485  130.2529 H   0  0  0  0  0  0  0  0  0  0  0  0
   10.3509   42.4923  127.9636 C   0  0  0  0  0  0  0  0  0  0  0  0
    9.7557   41.2659  128.2786 C   0  0  0  0  0  0  0  0  0  0  0  0
   10.1308   40.1004  127.6478 C   0  0  0  0  0  0  0  0  0  0  0  0
   11.1066   40.0937  126.6814 C   0  0  0  0  0  0  0  0  0  0  0  0
   11.7091   41.2855  126.3515 C   0  0  0  0  0  0  0  0  0  0  0  0
   11.3201   42.4417  126.9940 C   0  0  0  0  0  0  0  0  0  0  0  0
   11.5100   38.8511  126.0063 C   0  0  0  0  0  0  0  0  0  0  0  0
   10.7744   38.3285  124.9622 C   0  0  0  0  0  0  0  0  0  0  0  0
   11.1428   37.1606  124.3189 C   0  0  0  0  0  0  0  0  0  0  0  0
   12.2736   36.4740  124.7087 C   0  0  0  0  0  0  0  0  0  0  0  0
   13.0059   36.9966  125.7499 C   0  0  0  0  0  0  0  0  0  0  0  0
   12.6424   38.1626  126.3956 C   0  0  0  0  0  0  0  0  0  0  0  0
    7.3447   49.5913  129.8551 S   0  0  0  0  0  0  0  0  0  0  0  0
    5.9000   49.9363  130.1589 O   0  0  0  0  0  0  0  0  0  0  0  0
    7.6879   50.3848  128.6065 O   0  0  0  0  0  0  0  0  0  0  0  0
    9.8700   51.1310  133.2644 C   0  0  0  0  0  0  0  0  0  0  0  0
    9.8624   49.7814  132.9719 C   0  0  0  0  0  0  0  0  0  0  0  0
    9.0830   49.3325  131.9265 C   0  0  0  0  0  0  0  0  0  0  0  0
    8.3076   50.1717  131.1564 C   0  0  0  0  0  0  0  0  0  0  0  0
    8.3338   51.5119  131.4696 C   0  0  0  0  0  0  0  0  0  0  0  0
    9.1148   51.9953  132.5242 C   0  0  0  0  0  0  0  0  0  0  0  0
   11.2728   52.8592  134.2168 C   0  0  0  0  0  0  0  0  0  0  0  0
   10.6521   51.5923  134.3157 O   0  0  0  0  0  0  0  0  0  0  0  0
 33 34  1  0  0  0
 34 27  1  0  0  0
 27 28  2  0  0  0
 28 29  1  0  0  0
 29 30  2  0  0  0
 30 31  1  0  0  0
 31 32  2  0  0  0
 30 24  1  0  0  0
 24 25  2  0  0  0
 24 26  2  0  0  0
 24  1  1  0  0  0
  1  2  1  0  0  0
  2  3  1  0  0  0
  3  4  1  0  0  0
  4  5  1  0  0  0
  5  6  1  0  0  0
  6  7  1  0  0  0
  4  8  1  0  0  0
  8  9  1  0  0  0
  9 10  2  0  0  0
  9 12  1  0  0  0
 12 13  2  0  0  0
 13 14  1  0  0  0
 14 15  2  0  0  0
 15 16  1  0  0  0
 16 17  2  0  0  0
 15 18  1  0  0  0
 18 19  2  0  0  0
 19 20  1  0  0  0
 20 21  2  0  0  0
 21 22  1  0  0  0
 22 23  2  0  0  0
 32 27  1  0  0  0
  7  1  1  0  0  0
 17 12  1  0  0  0
 23 18  1  0  0  0
  6  3  1  0  0  0
  8 11  1  0  0  0
M  END
> <minimizedAffinity>
38.94357

> <CNNscore>
0.3971804678

> <CNNaffinity>
6.6119585037

> <CNN_VS>
2.6261408329

> <CNNaffinity_variance>
1.2601016760

$$$$
[H]c1c([H])c([H])c(-c2c([H])c([H])c(C(=O)N([H])[C@]3([H])C([H])([H])[C@]4([H])C([H])([H])N(S(=O)(=O)c5c([H])c([H])c(OC([H])([H])[H])c([H])c5[H])C([H])([H])[C@]43[H])c([H])c2[H])c([H])c1[H]


 34 38  0  0  0  0  0  0  0  0999 V2000
    6.9598   50.1190  128.6761 N   0  0  0  0  0  0  0  0  0  0  0  0
    8.0344   49.3440  129.3232 C   0  0  0  0  0  0  0  0  0  0  0  0
    7.5176   48.0100  129.0541 C   0  0  0  0  0  0  0  0  0  0  0  0
    7.5220   46.8389  129.8839 C   0  0  0  0  0  0  0  0  0  0  0  0
    5.9902   46.8613  129.6178 C   0  0  0  0  0  0  0  0  0  0  0  0
    6.1553   48.2894  129.7774 C   0  0  0  0  0  0  0  0  0  0  0  0
    5.7242   49.3518  128.8905 C   0  0  0  0  0  0  0  0  0  0  0  0
    8.0692   45.6273  129.3042 N   0  0  0  0  0  0  0  0  0  0  0  0
    9.3812   45.5513  128.7923 C   0  0  0  0  0  0  0  0  0  0  0  0
   10.1097   46.5700  128.8373 O   0  0  0  0  0  0  0  0  0  0  0  0
    7.4561   44.7904  129.2726 H   0  0  0  0  0  0  0  0  0  0  0  0
    9.9122   44.3358  128.2175 C   0  0  0  0  0  0  0  0  0  0  0  0
   11.1783   44.3349  127.6220 C   0  0  0  0  0  0  0  0  0  0  0  0
   11.7115   43.1933  127.0657 C   0  0  0  0  0  0  0  0  0  0  0  0
   11.0210   42.0062  127.0723 C   0  0  0  0  0  0  0  0  0  0  0  0
    9.7735   41.9779  127.6512 C   0  0  0  0  0  0  0  0  0  0  0  0
    9.2566   43.1308  128.2030 C   0  0  0  0  0  0  0  0  0  0  0  0
   11.5869   40.7856  126.4787 C   0  0  0  0  0  0  0  0  0  0  0  0
   12.7061   40.8301  125.6725 C   0  0  0  0  0  0  0  0  0  0  0  0
   13.2482   39.6896  125.1080 C   0  0  0  0  0  0  0  0  0  0  0  0
   12.6767   38.4556  125.3380 C   0  0  0  0  0  0  0  0  0  0  0  0
   11.5610   38.4131  126.1421 C   0  0  0  0  0  0  0  0  0  0  0  0
   11.0157   39.5491  126.7084 C   0  0  0  0  0  0  0  0  0  0  0  0
    6.8852   51.7180  129.0979 S   0  0  0  0  0  0  0  0  0  0  0  0
    7.8867   51.9692  130.2081 O   0  0  0  0  0  0  0  0  0  0  0  0
    5.5271   51.9940  129.7190 O   0  0  0  0  0  0  0  0  0  0  0  0
    7.6239   54.7775  125.8630 C   0  0  0  0  0  0  0  0  0  0  0  0
    7.7963   53.4350  125.5892 C   0  0  0  0  0  0  0  0  0  0  0  0
    7.5659   52.5173  126.5926 C   0  0  0  0  0  0  0  0  0  0  0  0
    7.1698   52.8790  127.8617 C   0  0  0  0  0  0  0  0  0  0  0  0
    7.0054   54.2236  128.1073 C   0  0  0  0  0  0  0  0  0  0  0  0
    7.2319   55.1764  127.1090 C   0  0  0  0  0  0  0  0  0  0  0  0
    8.6276   55.3419  123.7333 C   0  0  0  0  0  0  0  0  0  0  0  0
    7.8536   55.7091  124.8585 O   0  0  0  0  0  0  0  0  0  0  0  0
 33 34  1  0  0  0
 34 27  1  0  0  0
 27 28  2  0  0  0
 28 29  1  0  0  0
 29 30  2  0  0  0
 30 31  1  0  0  0
 31 32  2  0  0  0
 30 24  1  0  0  0
 24 25  2  0  0  0
 24 26  2  0  0  0
 24  1  1  0  0  0
  1  2  1  0  0  0
  2  3  1  0  0  0
  3  4  1  0  0  0
  4  5  1  0  0  0
  5  6  1  0  0  0
  6  7  1  0  0  0
  4  8  1  0  0  0
  8  9  1  0  0  0
  9 10  2  0  0  0
  9 12  1  0  0  0
 12 13  2  0  0  0
 13 14  1  0  0  0
 14 15  2  0  0  0
 15 16  1  0  0  0
 16 17  2  0  0  0
 15 18  1  0  0  0
 18 19  2  0  0  0
 19 20  1  0  0  0
 20 21  2  0  0  0
 21 22  1  0  0  0
 22 23  2  0  0  0
 32 27  1  0  0  0
  7  1  1  0  0  0
 17 12  1  0  0  0
 23 18  1  0  0  0
  6  3  1  0  0  0
  8 11  1  0  0  0
M  END
> <minimizedAffinity>
26.43592

> <CNNscore>
0.3406150639

> <CNNaffinity>
6.4804925919

> <CNN_VS>
2.2073533535

> <CNNaffinity_variance>
0.3167114258

$$$$
[H]c1c([H])c([H])c(-c2c([H])c([H])c([H])c(C(=O)N([H])[C@]3([H])C([H])([H])[C@]4([H])C([H])([H])N(S(=O)(=O)c5c([H])c([H])c(OC([H])([H])[H])c([H])c5[H])C([H])([H])[C@]43[H])c2[H])c([H])c1[H]


 34 38  0  0  0  0  0  0  0  0999 V2000
    8.4468   47.3679  130.7698 N   0  0  0  0  0  0  0  0  0  0  0  0
    7.2796   47.9280  130.0612 C   0  0  0  0  0  0  0  0  0  0  0  0
    7.8205   49.2414  129.7570 C   0  0  0  0  0  0  0  0  0  0  0  0
    7.1920   50.5290  129.7776 C   0  0  0  0  0  0  0  0  0  0  0  0
    8.3827   50.8979  130.7086 C   0  0  0  0  0  0  0  0  0  0  0  0
    8.1315   49.5801  131.2559 C   0  0  0  0  0  0  0  0  0  0  0  0
    9.0857   48.5038  131.4534 C   0  0  0  0  0  0  0  0  0  0  0  0
    7.3217   51.3241  128.5676 N   0  0  0  0  0  0  0  0  0  0  0  0
    7.0472   52.7061  128.5244 C   0  0  0  0  0  0  0  0  0  0  0  0
    6.6681   53.3333  129.5587 O   0  0  0  0  0  0  0  0  0  0  0  0
    7.6315   50.8291  127.7172 H   0  0  0  0  0  0  0  0  0  0  0  0
    7.1944   53.4465  127.2841 C   0  0  0  0  0  0  0  0  0  0  0  0
    8.4108   54.0725  127.0133 C   0  0  0  0  0  0  0  0  0  0  0  0
    8.6135   54.7895  125.8623 C   0  0  0  0  0  0  0  0  0  0  0  0
    7.5872   54.8985  124.9409 C   0  0  0  0  0  0  0  0  0  0  0  0
    6.3718   54.2987  125.1656 C   0  0  0  0  0  0  0  0  0  0  0  0
    6.2133   53.5834  126.3445 C   0  0  0  0  0  0  0  0  0  0  0  0
    5.2908   54.4119  124.1985 C   0  0  0  0  0  0  0  0  0  0  0  0
    5.4878   54.0413  122.8847 C   0  0  0  0  0  0  0  0  0  0  0  0
    4.4806   54.1375  121.9465 C   0  0  0  0  0  0  0  0  0  0  0  0
    3.2442   54.6128  122.3162 C   0  0  0  0  0  0  0  0  0  0  0  0
    3.0202   54.9899  123.6220 C   0  0  0  0  0  0  0  0  0  0  0  0
    4.0410   54.8863  124.5469 C   0  0  0  0  0  0  0  0  0  0  0  0
    8.0825   46.0780  131.7687 S   0  0  0  0  0  0  0  0  0  0  0  0
    6.6474   45.6858  131.5455 O   0  0  0  0  0  0  0  0  0  0  0  0
    8.1684   46.5514  133.2034 O   0  0  0  0  0  0  0  0  0  0  0  0
   10.5773   42.3238  131.3383 C   0  0  0  0  0  0  0  0  0  0  0  0
    9.2371   42.2606  131.6697 C   0  0  0  0  0  0  0  0  0  0  0  0
    8.5206   43.4170  131.7900 C   0  0  0  0  0  0  0  0  0  0  0  0
    9.0601   44.6725  131.5980 C   0  0  0  0  0  0  0  0  0  0  0  0
   10.3995   44.7106  131.2681 C   0  0  0  0  0  0  0  0  0  0  0  0
   11.1466   43.5600  131.1399 C   0  0  0  0  0  0  0  0  0  0  0  0
   11.5733   40.3907  132.3612 C   0  0  0  0  0  0  0  0  0  0  0  0
   11.3384   41.1642  131.2067 O   0  0  0  0  0  0  0  0  0  0  0  0
 33 34  1  0  0  0
 34 27  1  0  0  0
 27 28  2  0  0  0
 28 29  1  0  0  0
 29 30  2  0  0  0
 30 31  1  0  0  0
 31 32  2  0  0  0
 30 24  1  0  0  0
 24 25  2  0  0  0
 24 26  2  0  0  0
 24  1  1  0  0  0
  1  2  1  0  0  0
  2  3  1  0  0  0
  3  4  1  0  0  0
  4  5  1  0  0  0
  5  6  1  0  0  0
  6  7  1  0  0  0
  4  8  1  0  0  0
  8  9  1  0  0  0
  9 10  2  0  0  0
  9 12  1  0  0  0
 12 13  2  0  0  0
 13 14  1  0  0  0
 14 15  2  0  0  0
 15 16  1  0  0  0
 16 17  2  0  0  0
 16 18  1  0  0  0
 18 19  2  0  0  0
 19 20  1  0  0  0
 20 21  2  0  0  0
 21 22  1  0  0  0
 22 23  2  0  0  0
 32 27  1  0  0  0
  7  1  1  0  0  0
 17 12  1  0  0  0
 23 18  1  0  0  0
  6  3  1  0  0  0
  8 11  1  0  0  0
M  END
> <minimizedAffinity>
6.60109

> <CNNscore>
0.5450971127

> <CNNaffinity>
7.0599746704

> <CNN_VS>
3.8483717442

> <CNNaffinity_variance>
1.2103188038

$$$$
[H]c1c([H])c([H])c(-c2c([H])c([H])c([H])c(C(=O)N([H])[C@]3([H])C([H])([H])[C@]4([H])C([H])([H])N(S(=O)(=O)c5c([H])c([H])c(OC([H])([H])[H])c([H])c5[H])C([H])([H])[C@]43[H])c2[H])c([H])c1[H]


 34 38  0  0  0  0  0  0  0  0999 V2000
    6.8382   51.9304  127.9699 N   0  0  0  0  0  0  0  0  0  0  0  0
    8.0673   51.8314  128.7809 C   0  0  0  0  0  0  0  0  0  0  0  0
    7.7693   50.5908  129.4754 C   0  0  0  0  0  0  0  0  0  0  0  0
    8.0133   50.2092  130.8349 C   0  0  0  0  0  0  0  0  0  0  0  0
    6.4901   49.8922  130.8323 C   0  0  0  0  0  0  0  0  0  0  0  0
    6.4169   51.1199  130.0664 C   0  0  0  0  0  0  0  0  0  0  0  0
    5.7696   51.3292  128.7838 C   0  0  0  0  0  0  0  0  0  0  0  0
    8.7198   48.9539  131.0305 N   0  0  0  0  0  0  0  0  0  0  0  0
    9.0239   48.4351  132.3055 C   0  0  0  0  0  0  0  0  0  0  0  0
    8.6883   49.0499  133.3621 O   0  0  0  0  0  0  0  0  0  0  0  0
    8.9981   48.4399  130.1806 H   0  0  0  0  0  0  0  0  0  0  0  0
    9.7336   47.1752  132.4365 C   0  0  0  0  0  0  0  0  0  0  0  0
   10.5859   46.9919  133.5249 C   0  0  0  0  0  0  0  0  0  0  0  0
   11.2873   45.8276  133.7049 C   0  0  0  0  0  0  0  0  0  0  0  0
   11.1498   44.8033  132.7850 C   0  0  0  0  0  0  0  0  0  0  0  0
   10.3216   44.9394  131.6974 C   0  0  0  0  0  0  0  0  0  0  0  0
    9.6320   46.1357  131.5571 C   0  0  0  0  0  0  0  0  0  0  0  0
   10.1753   43.8640  130.7285 C   0  0  0  0  0  0  0  0  0  0  0  0
   10.2706   42.5471  131.1274 C   0  0  0  0  0  0  0  0  0  0  0  0
   10.1356   41.5073  130.2304 C   0  0  0  0  0  0  0  0  0  0  0  0
    9.8996   41.7756  128.9024 C   0  0  0  0  0  0  0  0  0  0  0  0
    9.7997   43.0819  128.4769 C   0  0  0  0  0  0  0  0  0  0  0  0
    9.9378   44.1094  129.3899 C   0  0  0  0  0  0  0  0  0  0  0  0
    6.5043   53.4752  127.4255 S   0  0  0  0  0  0  0  0  0  0  0  0
    6.9906   54.4632  128.4504 O   0  0  0  0  0  0  0  0  0  0  0  0
    5.0015   53.6412  127.3645 O   0  0  0  0  0  0  0  0  0  0  0  0
    8.1511   54.6447  123.3728 C   0  0  0  0  0  0  0  0  0  0  0  0
    6.7933   54.6678  123.6294 C   0  0  0  0  0  0  0  0  0  0  0  0
    6.3381   54.3070  124.8654 C   0  0  0  0  0  0  0  0  0  0  0  0
    7.1642   53.9119  125.8976 C   0  0  0  0  0  0  0  0  0  0  0  0
    8.5154   53.8966  125.6180 C   0  0  0  0  0  0  0  0  0  0  0  0
    9.0028   54.2556  124.3802 C   0  0  0  0  0  0  0  0  0  0  0  0
   10.0488   55.0275  121.9489 C   0  0  0  0  0  0  0  0  0  0  0  0
    8.6505   55.0067  122.1235 O   0  0  0  0  0  0  0  0  0  0  0  0
 33 34  1  0  0  0
 34 27  1  0  0  0
 27 28  2  0  0  0
 28 29  1  0  0  0
 29 30  2  0  0  0
 30 31  1  0  0  0
 31 32  2  0  0  0
 30 24  1  0  0  0
 24 25  2  0  0  0
 24 26  2  0  0  0
 24  1  1  0  0  0
  1  2  1  0  0  0
  2  3  1  0  0  0
  3  4  1  0  0  0
  4  5  1  0  0  0
  5  6  1  0  0  0
  6  7  1  0  0  0
  4  8  1  0  0  0
  8  9  1  0  0  0
  9 10  2  0  0  0
  9 12  1  0  0  0
 12 13  2  0  0  0
 13 14  1  0  0  0
 14 15  2  0  0  0
 15 16  1  0  0  0
 16 17  2  0  0  0
 16 18  1  0  0  0
 18 19  2  0  0  0
 19 20  1  0  0  0
 20 21  2  0  0  0
 21 22  1  0  0  0
 22 23  2  0  0  0
 32 27  1  0  0  0
  7  1  1  0  0  0
 17 12  1  0  0  0
 23 18  1  0  0  0
  6  3  1  0  0  0
  8 11  1  0  0  0
M  END
> <minimizedAffinity>
12.74184

> <CNNscore>
0.5281490684

> <CNNaffinity>
7.0300064087

> <CNN_VS>
3.7128913403

> <CNNaffinity_variance>
0.7093023658

$$$$
[H]c1c([H])c([H])c(-c2c([H])c([H])c([H])c(C(=O)N([H])[C@]3([H])C([H])([H])[C@]4([H])C([H])([H])N(S(=O)(=O)c5c([H])c([H])c(OC([H])([H])[H])c([H])c5[H])C([H])([H])[C@]43[H])c2[H])c([H])c1[H]


 34 38  0  0  0  0  0  0  0  0999 V2000
   10.3576   41.0890  130.1461 N   0  0  0  0  0  0  0  0  0  0  0  0
    9.0701   41.7705  130.3827 C   0  0  0  0  0  0  0  0  0  0  0  0
    9.5350   42.8020  131.2937 C   0  0  0  0  0  0  0  0  0  0  0  0
    8.9200   43.3456  132.4682 C   0  0  0  0  0  0  0  0  0  0  0  0
   10.2727   42.9655  133.1362 C   0  0  0  0  0  0  0  0  0  0  0  0
   10.1405   41.7787  132.3156 C   0  0  0  0  0  0  0  0  0  0  0  0
   11.1179   41.2191  131.3994 C   0  0  0  0  0  0  0  0  0  0  0  0
    8.8011   44.7936  132.5168 N   0  0  0  0  0  0  0  0  0  0  0  0
    9.8757   45.6617  132.2362 C   0  0  0  0  0  0  0  0  0  0  0  0
   11.0183   45.2122  131.9212 O   0  0  0  0  0  0  0  0  0  0  0  0
    7.8768   45.1758  132.7694 H   0  0  0  0  0  0  0  0  0  0  0  0
    9.6949   47.1008  132.3024 C   0  0  0  0  0  0  0  0  0  0  0  0
   10.2499   47.8011  133.3731 C   0  0  0  0  0  0  0  0  0  0  0  0
   10.1128   49.1598  133.4961 C   0  0  0  0  0  0  0  0  0  0  0  0
    9.4059   49.8604  132.5351 C   0  0  0  0  0  0  0  0  0  0  0  0
    8.8417   49.2124  131.4631 C   0  0  0  0  0  0  0  0  0  0  0  0
    9.0069   47.8367  131.3808 C   0  0  0  0  0  0  0  0  0  0  0  0
    8.0977   49.9466  130.4512 C   0  0  0  0  0  0  0  0  0  0  0  0
    7.8167   49.3654  129.2323 C   0  0  0  0  0  0  0  0  0  0  0  0
    7.1127   50.0381  128.2546 C   0  0  0  0  0  0  0  0  0  0  0  0
    6.6737   51.3205  128.4873 C   0  0  0  0  0  0  0  0  0  0  0  0
    6.9406   51.9248  129.6960 C   0  0  0  0  0  0  0  0  0  0  0  0
    7.6469   51.2352  130.6625 C   0  0  0  0  0  0  0  0  0  0  0  0
   10.2055   39.5194  129.5915 S   0  0  0  0  0  0  0  0  0  0  0  0
    8.8085   39.0403  129.8777 O   0  0  0  0  0  0  0  0  0  0  0  0
   11.1255   38.6377  130.4074 O   0  0  0  0  0  0  0  0  0  0  0  0
   10.9880   38.8680  125.1793 C   0  0  0  0  0  0  0  0  0  0  0  0
    9.7932   39.4007  125.6251 C   0  0  0  0  0  0  0  0  0  0  0  0
    9.5974   39.5805  126.9647 C   0  0  0  0  0  0  0  0  0  0  0  0
   10.5359   39.2575  127.9233 C   0  0  0  0  0  0  0  0  0  0  0  0
   11.7205   38.7273  127.4546 C   0  0  0  0  0  0  0  0  0  0  0  0
   11.9454   38.5350  126.1089 C   0  0  0  0  0  0  0  0  0  0  0  0
   10.1098   38.6259  122.9555 C   0  0  0  0  0  0  0  0  0  0  0  0
   11.2219   38.6713  123.8200 O   0  0  0  0  0  0  0  0  0  0  0  0
 33 34  1  0  0  0
 34 27  1  0  0  0
 27 28  2  0  0  0
 28 29  1  0  0  0
 29 30  2  0  0  0
 30 31  1  0  0  0
 31 32  2  0  0  0
 30 24  1  0  0  0
 24 25  2  0  0  0
 24 26  2  0  0  0
 24  1  1  0  0  0
  1  2  1  0  0  0
  2  3  1  0  0  0
  3  4  1  0  0  0
  4  5  1  0  0  0
  5  6  1  0  0  0
  6  7  1  0  0  0
  4  8  1  0  0  0
  8  9  1  0  0  0
  9 10  2  0  0  0
  9 12  1  0  0  0
 12 13  2  0  0  0
 13 14  1  0  0  0
 14 15  2  0  0  0
 15 16  1  0  0  0
 16 17  2  0  0  0
 16 18  1  0  0  0
 18 19  2  0  0  0
 19 20  1  0  0  0
 20 21  2  0  0  0
 21 22  1  0  0  0
 22 23  2  0  0  0
 32 27  1  0  0  0
  7  1  1  0  0  0
 17 12  1  0  0  0
 23 18  1  0  0  0
  6  3  1  0  0  0
  8 11  1  0  0  0
M  END
> <minimizedAffinity>
28.91991

> <CNNscore>
0.5137391090

> <CNNaffinity>
6.9659891129

> <CNN_VS>
3.5787010193

> <CNNaffinity_variance>
1.1126022339

$$$$
[H]c1c([H])c([H])c(-c2c([H])c([H])c([H])c(C(=O)N([H])[C@]3([H])C([H])([H])[C@]4([H])C([H])([H])N(S(=O)(=O)c5c([H])c([H])c(OC([H])([H])[H])c([H])c5[H])C([H])([H])[C@]43[H])c2[H])c([H])c1[H]


 34 38  0  0  0  0  0  0  0  0999 V2000
    8.1190   47.3284  131.4644 N   0  0  0  0  0  0  0  0  0  0  0  0
    8.9465   47.8227  130.3468 C   0  0  0  0  0  0  0  0  0  0  0  0
    7.9167   48.5402  129.6154 C   0  0  0  0  0  0  0  0  0  0  0  0
    7.6877   48.6482  128.2050 C   0  0  0  0  0  0  0  0  0  0  0  0
    6.2594   48.1582  128.5795 C   0  0  0  0  0  0  0  0  0  0  0  0
    6.9876   47.2848  129.4775 C   0  0  0  0  0  0  0  0  0  0  0  0
    6.7778   47.1018  130.9024 C   0  0  0  0  0  0  0  0  0  0  0  0
    7.5620   49.9973  127.6783 N   0  0  0  0  0  0  0  0  0  0  0  0
    7.2714   51.1135  128.4887 C   0  0  0  0  0  0  0  0  0  0  0  0
    7.1036   50.9915  129.7393 O   0  0  0  0  0  0  0  0  0  0  0  0
    7.6980   50.1141  126.6624 H   0  0  0  0  0  0  0  0  0  0  0  0
    7.1573   52.4373  127.9034 C   0  0  0  0  0  0  0  0  0  0  0  0
    6.7801   53.5042  128.7183 C   0  0  0  0  0  0  0  0  0  0  0  0
    6.6510   54.7778  128.2271 C   0  0  0  0  0  0  0  0  0  0  0  0
    6.9004   55.0170  126.8874 C   0  0  0  0  0  0  0  0  0  0  0  0
    7.2744   53.9966  126.0471 C   0  0  0  0  0  0  0  0  0  0  0  0
    7.3921   52.7244  126.5893 C   0  0  0  0  0  0  0  0  0  0  0  0
    7.5371   54.2453  124.6379 C   0  0  0  0  0  0  0  0  0  0  0  0
    8.7699   54.7090  124.2287 C   0  0  0  0  0  0  0  0  0  0  0  0
    9.0469   54.9530  122.8992 C   0  0  0  0  0  0  0  0  0  0  0  0
    8.0792   54.7328  121.9470 C   0  0  0  0  0  0  0  0  0  0  0  0
    6.8392   54.2697  122.3282 C   0  0  0  0  0  0  0  0  0  0  0  0
    6.5808   54.0313  123.6641 C   0  0  0  0  0  0  0  0  0  0  0  0
    8.7662   46.0076  132.2586 S   0  0  0  0  0  0  0  0  0  0  0  0
    7.7424   44.9055  132.2746 O   0  0  0  0  0  0  0  0  0  0  0  0
    8.9926   46.3893  133.7053 O   0  0  0  0  0  0  0  0  0  0  0  0
   12.6785   44.3746  130.6676 C   0  0  0  0  0  0  0  0  0  0  0  0
   12.6336   45.1296  131.8244 C   0  0  0  0  0  0  0  0  0  0  0  0
   11.4327   45.6036  132.2697 C   0  0  0  0  0  0  0  0  0  0  0  0
   10.2346   45.3725  131.6253 C   0  0  0  0  0  0  0  0  0  0  0  0
   10.3043   44.6167  130.4729 C   0  0  0  0  0  0  0  0  0  0  0  0
   11.5018   44.1256  130.0005 C   0  0  0  0  0  0  0  0  0  0  0  0
   14.4826   44.5277  129.0875 C   0  0  0  0  0  0  0  0  0  0  0  0
   13.8860   43.8747  130.1847 O   0  0  0  0  0  0  0  0  0  0  0  0
 33 34  1  0  0  0
 34 27  1  0  0  0
 27 28  2  0  0  0
 28 29  1  0  0  0
 29 30  2  0  0  0
 30 31  1  0  0  0
 31 32  2  0  0  0
 30 24  1  0  0  0
 24 25  2  0  0  0
 24 26  2  0  0  0
 24  1  1  0  0  0
  1  2  1  0  0  0
  2  3  1  0  0  0
  3  4  1  0  0  0
  4  5  1  0  0  0
  5  6  1  0  0  0
  6  7  1  0  0  0
  4  8  1  0  0  0
  8  9  1  0  0  0
  9 10  2  0  0  0
  9 12  1  0  0  0
 12 13  2  0  0  0
 13 14  1  0  0  0
 14 15  2  0  0  0
 15 16  1  0  0  0
 16 17  2  0  0  0
 16 18  1  0  0  0
 18 19  2  0  0  0
 19 20  1  0  0  0
 20 21  2  0  0  0
 21 22  1  0  0  0
 22 23  2  0  0  0
 32 27  1  0  0  0
  7  1  1  0  0  0
 17 12  1  0  0  0
 23 18  1  0  0  0
  6  3  1  0  0  0
  8 11  1  0  0  0
M  END
> <minimizedAffinity>
4.61277

> <CNNscore>
0.4760290384

> <CNNaffinity>
6.9889593124

> <CNN_VS>
3.3269476891

> <CNNaffinity_variance>
0.3907233179

$$$$
[H]c1c([H])c([H])c(-c2c([H])c([H])c([H])c(C(=O)N([H])[C@]3([H])C([H])([H])[C@]4([H])C([H])([H])N(S(=O)(=O)c5c([H])c([H])c(OC([H])([H])[H])c([H])c5[H])C([H])([H])[C@]43[H])c2[H])c([H])c1[H]


 34 38  0  0  0  0  0  0  0  0999 V2000
   10.7907   46.3853  129.8076 N   0  0  0  0  0  0  0  0  0  0  0  0
    9.7938   46.8421  128.8198 C   0  0  0  0  0  0  0  0  0  0  0  0
    9.5138   48.1511  129.3839 C   0  0  0  0  0  0  0  0  0  0  0  0
    8.2753   48.8617  129.5044 C   0  0  0  0  0  0  0  0  0  0  0  0
    8.6749   48.9459  131.0057 C   0  0  0  0  0  0  0  0  0  0  0  0
    9.1028   47.5794  130.7848 C   0  0  0  0  0  0  0  0  0  0  0  0
   10.3963   46.9939  131.0882 C   0  0  0  0  0  0  0  0  0  0  0  0
    8.2613   50.2173  128.9799 N   0  0  0  0  0  0  0  0  0  0  0  0
    7.0835   50.8618  128.5503 C   0  0  0  0  0  0  0  0  0  0  0  0
    5.9590   50.2789  128.6028 O   0  0  0  0  0  0  0  0  0  0  0  0
    9.1681   50.7067  128.9326 H   0  0  0  0  0  0  0  0  0  0  0  0
    7.1338   52.2181  128.0343 C   0  0  0  0  0  0  0  0  0  0  0  0
    6.9397   53.2817  128.9151 C   0  0  0  0  0  0  0  0  0  0  0  0
    6.9717   54.5853  128.4913 C   0  0  0  0  0  0  0  0  0  0  0  0
    7.2022   54.8591  127.1549 C   0  0  0  0  0  0  0  0  0  0  0  0
    7.3987   53.8432  126.2511 C   0  0  0  0  0  0  0  0  0  0  0  0
    7.3576   52.5398  126.7264 C   0  0  0  0  0  0  0  0  0  0  0  0
    7.6412   54.1282  124.8453 C   0  0  0  0  0  0  0  0  0  0  0  0
    8.8711   54.5936  124.4292 C   0  0  0  0  0  0  0  0  0  0  0  0
    9.1291   54.8716  123.1025 C   0  0  0  0  0  0  0  0  0  0  0  0
    8.1449   54.6847  122.1603 C   0  0  0  0  0  0  0  0  0  0  0  0
    6.9073   54.2209  122.5485 C   0  0  0  0  0  0  0  0  0  0  0  0
    6.6680   53.9481  123.8814 C   0  0  0  0  0  0  0  0  0  0  0  0
   10.9833   44.7257  129.8629 S   0  0  0  0  0  0  0  0  0  0  0  0
   12.4517   44.4140  129.9611 O   0  0  0  0  0  0  0  0  0  0  0  0
   10.5211   44.1512  128.5416 O   0  0  0  0  0  0  0  0  0  0  0  0
    8.7611   42.5401  133.1475 C   0  0  0  0  0  0  0  0  0  0  0  0
    8.1590   42.8159  131.9345 C   0  0  0  0  0  0  0  0  0  0  0  0
    8.8645   43.4778  130.9706 C   0  0  0  0  0  0  0  0  0  0  0  0
   10.1687   43.8986  131.1328 C   0  0  0  0  0  0  0  0  0  0  0  0
   10.7487   43.6122  132.3517 C   0  0  0  0  0  0  0  0  0  0  0  0
   10.0608   42.9458  133.3422 C   0  0  0  0  0  0  0  0  0  0  0  0
    6.7986   41.3432  133.8483 C   0  0  0  0  0  0  0  0  0  0  0  0
    8.0713   41.8663  134.1531 O   0  0  0  0  0  0  0  0  0  0  0  0
 33 34  1  0  0  0
 34 27  1  0  0  0
 27 28  2  0  0  0
 28 29  1  0  0  0
 29 30  2  0  0  0
 30 31  1  0  0  0
 31 32  2  0  0  0
 30 24  1  0  0  0
 24 25  2  0  0  0
 24 26  2  0  0  0
 24  1  1  0  0  0
  1  2  1  0  0  0
  2  3  1  0  0  0
  3  4  1  0  0  0
  4  5  1  0  0  0
  5  6  1  0  0  0
  6  7  1  0  0  0
  4  8  1  0  0  0
  8  9  1  0  0  0
  9 10  2  0  0  0
  9 12  1  0  0  0
 12 13  2  0  0  0
 13 14  1  0  0  0
 14 15  2  0  0  0
 15 16  1  0  0  0
 16 17  2  0  0  0
 16 18  1  0  0  0
 18 19  2  0  0  0
 19 20  1  0  0  0
 20 21  2  0  0  0
 21 22  1  0  0  0
 22 23  2  0  0  0
 32 27  1  0  0  0
  7  1  1  0  0  0
 17 12  1  0  0  0
 23 18  1  0  0  0
  6  3  1  0  0  0
  8 11  1  0  0  0
M  END
> <minimizedAffinity>
6.82178

> <CNNscore>
0.4661679268

> <CNNaffinity>
6.8983812332

> <CNN_VS>
3.2158041000

> <CNNaffinity_variance>
0.5655271411

$$$$
[H]c1c([H])c([H])c(-c2c([H])c([H])c([H])c(C(=O)N([H])[C@]3([H])C([H])([H])[C@]4([H])C([H])([H])N(S(=O)(=O)c5c([H])c([H])c(OC([H])([H])[H])c([H])c5[H])C([H])([H])[C@]43[H])c2[H])c([H])c1[H]


 34 38  0  0  0  0  0  0  0  0999 V2000
    2.4837   50.6440  128.0421 N   0  0  0  0  0  0  0  0  0  0  0  0
    3.6681   50.2075  127.2773 C   0  0  0  0  0  0  0  0  0  0  0  0
    4.4311   49.6301  128.3702 C   0  0  0  0  0  0  0  0  0  0  0  0
    5.8376   49.6722  128.6410 C   0  0  0  0  0  0  0  0  0  0  0  0
    5.3744   50.2139  130.0240 C   0  0  0  0  0  0  0  0  0  0  0  0
    4.4215   50.9493  129.2175 C   0  0  0  0  0  0  0  0  0  0  0  0
    2.9799   51.0080  129.3790 C   0  0  0  0  0  0  0  0  0  0  0  0
    6.4844   48.3905  128.8687 N   0  0  0  0  0  0  0  0  0  0  0  0
    7.4312   48.1797  129.8917 C   0  0  0  0  0  0  0  0  0  0  0  0
    7.7691   49.1155  130.6772 O   0  0  0  0  0  0  0  0  0  0  0  0
    6.2188   47.6175  128.2394 H   0  0  0  0  0  0  0  0  0  0  0  0
    8.0441   46.8755  130.0688 C   0  0  0  0  0  0  0  0  0  0  0  0
    7.7322   45.8565  129.1694 C   0  0  0  0  0  0  0  0  0  0  0  0
    8.2740   44.6021  129.2828 C   0  0  0  0  0  0  0  0  0  0  0  0
    9.1548   44.3341  130.3156 C   0  0  0  0  0  0  0  0  0  0  0  0
    9.4911   45.3071  131.2253 C   0  0  0  0  0  0  0  0  0  0  0  0
    8.9177   46.5614  131.0702 C   0  0  0  0  0  0  0  0  0  0  0  0
   10.4168   45.0279  132.3123 C   0  0  0  0  0  0  0  0  0  0  0  0
   10.0953   44.1020  133.2828 C   0  0  0  0  0  0  0  0  0  0  0  0
   10.9542   43.8171  134.3245 C   0  0  0  0  0  0  0  0  0  0  0  0
   12.1644   44.4646  134.4102 C   0  0  0  0  0  0  0  0  0  0  0  0
   12.5107   45.3940  133.4542 C   0  0  0  0  0  0  0  0  0  0  0  0
   11.6376   45.6657  132.4188 C   0  0  0  0  0  0  0  0  0  0  0  0
    1.5895   51.8390  127.2893 S   0  0  0  0  0  0  0  0  0  0  0  0
    1.1262   52.8220  128.3296 O   0  0  0  0  0  0  0  0  0  0  0  0
    0.3365   51.2071  126.7234 O   0  0  0  0  0  0  0  0  0  0  0  0
    3.6839   54.2057  124.0464 C   0  0  0  0  0  0  0  0  0  0  0  0
    3.6105   54.6759  125.3440 C   0  0  0  0  0  0  0  0  0  0  0  0
    2.9691   53.9309  126.2920 C   0  0  0  0  0  0  0  0  0  0  0  0
    2.3761   52.7121  126.0326 C   0  0  0  0  0  0  0  0  0  0  0  0
    2.4621   52.2634  124.7305 C   0  0  0  0  0  0  0  0  0  0  0  0
    3.1030   52.9939  123.7537 C   0  0  0  0  0  0  0  0  0  0  0  0
    5.7309   54.8187  122.9467 C   0  0  0  0  0  0  0  0  0  0  0  0
    4.3308   54.9392  123.0541 O   0  0  0  0  0  0  0  0  0  0  0  0
 33 34  1  0  0  0
 34 27  1  0  0  0
 27 28  2  0  0  0
 28 29  1  0  0  0
 29 30  2  0  0  0
 30 31  1  0  0  0
 31 32  2  0  0  0
 30 24  1  0  0  0
 24 25  2  0  0  0
 24 26  2  0  0  0
 24  1  1  0  0  0
  1  2  1  0  0  0
  2  3  1  0  0  0
  3  4  1  0  0  0
  4  5  1  0  0  0
  5  6  1  0  0  0
  6  7  1  0  0  0
  4  8  1  0  0  0
  8  9  1  0  0  0
  9 10  2  0  0  0
  9 12  1  0  0  0
 12 13  2  0  0  0
 13 14  1  0  0  0
 14 15  2  0  0  0
 15 16  1  0  0  0
 16 17  2  0  0  0
 16 18  1  0  0  0
 18 19  2  0  0  0
 19 20  1  0  0  0
 20 21  2  0  0  0
 21 22  1  0  0  0
 22 23  2  0  0  0
 32 27  1  0  0  0
  7  1  1  0  0  0
 17 12  1  0  0  0
 23 18  1  0  0  0
  6  3  1  0  0  0
  8 11  1  0  0  0
M  END
> <minimizedAffinity>
18.33789

> <CNNscore>
0.4650363922

> <CNNaffinity>
6.5593423843

> <CNN_VS>
3.0503330231

> <CNNaffinity_variance>
0.6680811644

$$$$
[H]c1c([H])c([H])c(-c2c([H])c([H])c([H])c(C(=O)N([H])[C@]3([H])C([H])([H])[C@]4([H])C([H])([H])N(S(=O)(=O)c5c([H])c([H])c(OC([H])([H])[H])c([H])c5[H])C([H])([H])[C@]43[H])c2[H])c([H])c1[H]


 34 38  0  0  0  0  0  0  0  0999 V2000
   10.2027   47.9493  132.6519 N   0  0  0  0  0  0  0  0  0  0  0  0
   10.2321   48.1494  131.1899 C   0  0  0  0  0  0  0  0  0  0  0  0
    9.2303   49.1969  131.0943 C   0  0  0  0  0  0  0  0  0  0  0  0
    8.2035   49.4096  130.1176 C   0  0  0  0  0  0  0  0  0  0  0  0
    7.2721   49.4396  131.3635 C   0  0  0  0  0  0  0  0  0  0  0  0
    8.1178   48.3473  131.8006 C   0  0  0  0  0  0  0  0  0  0  0  0
    8.8162   48.2169  133.0667 C   0  0  0  0  0  0  0  0  0  0  0  0
    8.1617   50.7294  129.5098 N   0  0  0  0  0  0  0  0  0  0  0  0
    7.2064   51.0982  128.5410 C   0  0  0  0  0  0  0  0  0  0  0  0
    6.3209   50.2811  128.1471 O   0  0  0  0  0  0  0  0  0  0  0  0
    8.8743   51.4073  129.8211 H   0  0  0  0  0  0  0  0  0  0  0  0
    7.2164   52.4328  127.9693 C   0  0  0  0  0  0  0  0  0  0  0  0
    7.0472   53.5292  128.8143 C   0  0  0  0  0  0  0  0  0  0  0  0
    7.0435   54.8148  128.3374 C   0  0  0  0  0  0  0  0  0  0  0  0
    7.2119   55.0365  126.9822 C   0  0  0  0  0  0  0  0  0  0  0  0
    7.3819   53.9869  126.1122 C   0  0  0  0  0  0  0  0  0  0  0  0
    7.3786   52.7035  126.6408 C   0  0  0  0  0  0  0  0  0  0  0  0
    7.5590   54.2171  124.6867 C   0  0  0  0  0  0  0  0  0  0  0  0
    6.4923   54.0918  123.8214 C   0  0  0  0  0  0  0  0  0  0  0  0
    6.6313   54.3047  122.4652 C   0  0  0  0  0  0  0  0  0  0  0  0
    7.8580   54.6512  121.9491 C   0  0  0  0  0  0  0  0  0  0  0  0
    8.9403   54.7833  122.7909 C   0  0  0  0  0  0  0  0  0  0  0  0
    8.7814   54.5661  124.1459 C   0  0  0  0  0  0  0  0  0  0  0  0
   10.7977   46.4683  133.1486 S   0  0  0  0  0  0  0  0  0  0  0  0
   10.1539   46.1050  134.4588 O   0  0  0  0  0  0  0  0  0  0  0  0
   12.2749   46.6243  133.4373 O   0  0  0  0  0  0  0  0  0  0  0  0
   10.1567   43.0003  130.3085 C   0  0  0  0  0  0  0  0  0  0  0  0
    9.1209   43.5021  131.0735 C   0  0  0  0  0  0  0  0  0  0  0  0
    9.3569   44.5489  131.9182 C   0  0  0  0  0  0  0  0  0  0  0  0
   10.5901   45.1516  132.0606 C   0  0  0  0  0  0  0  0  0  0  0  0
   11.6086   44.6337  131.2869 C   0  0  0  0  0  0  0  0  0  0  0  0
   11.3992   43.5783  130.4263 C   0  0  0  0  0  0  0  0  0  0  0  0
    9.8091   42.2177  128.0631 C   0  0  0  0  0  0  0  0  0  0  0  0
    9.9517   41.9336  129.4361 O   0  0  0  0  0  0  0  0  0  0  0  0
 33 34  1  0  0  0
 34 27  1  0  0  0
 27 28  2  0  0  0
 28 29  1  0  0  0
 29 30  2  0  0  0
 30 31  1  0  0  0
 31 32  2  0  0  0
 30 24  1  0  0  0
 24 25  2  0  0  0
 24 26  2  0  0  0
 24  1  1  0  0  0
  1  2  1  0  0  0
  2  3  1  0  0  0
  3  4  1  0  0  0
  4  5  1  0  0  0
  5  6  1  0  0  0
  6  7  1  0  0  0
  4  8  1  0  0  0
  8  9  1  0  0  0
  9 10  2  0  0  0
  9 12  1  0  0  0
 12 13  2  0  0  0
 13 14  1  0  0  0
 14 15  2  0  0  0
 15 16  1  0  0  0
 16 17  2  0  0  0
 16 18  1  0  0  0
 18 19  2  0  0  0
 19 20  1  0  0  0
 20 21  2  0  0  0
 21 22  1  0  0  0
 22 23  2  0  0  0
 32 27  1  0  0  0
  7  1  1  0  0  0
 17 12  1  0  0  0
 23 18  1  0  0  0
  6  3  1  0  0  0
  8 11  1  0  0  0
M  END
> <minimizedAffinity>
5.99022

> <CNNscore>
0.4610639215

> <CNNaffinity>
6.9543914795

> <CNN_VS>
3.2064189911

> <CNNaffinity_variance>
0.6212190986

$$$$
[H]c1c([H])c([H])c(-c2c([H])c([H])c([H])c(C(=O)N([H])[C@]3([H])C([H])([H])[C@]4([H])C([H])([H])N(S(=O)(=O)c5c([H])c([H])c(OC([H])([H])[H])c([H])c5[H])C([H])([H])[C@]43[H])c2[H])c([H])c1[H]


 34 38  0  0  0  0  0  0  0  0999 V2000
    9.8465   48.6784  131.5724 N   0  0  0  0  0  0  0  0  0  0  0  0
    9.3671   48.3921  130.2063 C   0  0  0  0  0  0  0  0  0  0  0  0
    8.6811   49.6466  129.9500 C   0  0  0  0  0  0  0  0  0  0  0  0
    7.4428   49.9039  129.2764 C   0  0  0  0  0  0  0  0  0  0  0  0
    7.0872   50.6523  130.5933 C   0  0  0  0  0  0  0  0  0  0  0  0
    7.7521   49.5205  131.2066 C   0  0  0  0  0  0  0  0  0  0  0  0
    8.8254   49.5438  132.1841 C   0  0  0  0  0  0  0  0  0  0  0  0
    7.4866   50.8920  128.2112 N   0  0  0  0  0  0  0  0  0  0  0  0
    7.1452   52.2458  128.4057 C   0  0  0  0  0  0  0  0  0  0  0  0
    6.7776   52.6741  129.5407 O   0  0  0  0  0  0  0  0  0  0  0  0
    7.7861   50.5602  127.2814 H   0  0  0  0  0  0  0  0  0  0  0  0
    7.2080   53.1860  127.3010 C   0  0  0  0  0  0  0  0  0  0  0  0
    8.2874   54.0657  127.2254 C   0  0  0  0  0  0  0  0  0  0  0  0
    8.4045   54.9797  126.2101 C   0  0  0  0  0  0  0  0  0  0  0  0
    7.4283   55.0354  125.2312 C   0  0  0  0  0  0  0  0  0  0  0  0
    6.3471   54.1884  125.2651 C   0  0  0  0  0  0  0  0  0  0  0  0
    6.2715   53.2802  126.3119 C   0  0  0  0  0  0  0  0  0  0  0  0
    5.3192   54.2450  124.2372 C   0  0  0  0  0  0  0  0  0  0  0  0
    4.0291   54.6115  124.5593 C   0  0  0  0  0  0  0  0  0  0  0  0
    3.0345   54.6741  123.6049 C   0  0  0  0  0  0  0  0  0  0  0  0
    3.3220   54.3664  122.2957 C   0  0  0  0  0  0  0  0  0  0  0  0
    4.6024   53.9974  121.9465 C   0  0  0  0  0  0  0  0  0  0  0  0
    5.5847   53.9404  122.9161 C   0  0  0  0  0  0  0  0  0  0  0  0
   10.2178   47.3138  132.4637 S   0  0  0  0  0  0  0  0  0  0  0  0
    9.4044   47.3284  133.7290 O   0  0  0  0  0  0  0  0  0  0  0  0
   11.6649   47.4097  132.8955 O   0  0  0  0  0  0  0  0  0  0  0  0
    9.6563   43.3505  130.3468 C   0  0  0  0  0  0  0  0  0  0  0  0
   10.5108   44.3155  129.8482 C   0  0  0  0  0  0  0  0  0  0  0  0
   10.6509   45.4977  130.5174 C   0  0  0  0  0  0  0  0  0  0  0  0
    9.9797   45.7980  131.6851 C   0  0  0  0  0  0  0  0  0  0  0  0
    9.1324   44.8196  132.1635 C   0  0  0  0  0  0  0  0  0  0  0  0
    8.9715   43.6177  131.5093 C   0  0  0  0  0  0  0  0  0  0  0  0
    9.7343   42.0885  128.3032 C   0  0  0  0  0  0  0  0  0  0  0  0
    9.4893   42.1330  129.6904 O   0  0  0  0  0  0  0  0  0  0  0  0
 33 34  1  0  0  0
 34 27  1  0  0  0
 27 28  2  0  0  0
 28 29  1  0  0  0
 29 30  2  0  0  0
 30 31  1  0  0  0
 31 32  2  0  0  0
 30 24  1  0  0  0
 24 25  2  0  0  0
 24 26  2  0  0  0
 24  1  1  0  0  0
  1  2  1  0  0  0
  2  3  1  0  0  0
  3  4  1  0  0  0
  4  5  1  0  0  0
  5  6  1  0  0  0
  6  7  1  0  0  0
  4  8  1  0  0  0
  8  9  1  0  0  0
  9 10  2  0  0  0
  9 12  1  0  0  0
 12 13  2  0  0  0
 13 14  1  0  0  0
 14 15  2  0  0  0
 15 16  1  0  0  0
 16 17  2  0  0  0
 16 18  1  0  0  0
 18 19  2  0  0  0
 19 20  1  0  0  0
 20 21  2  0  0  0
 21 22  1  0  0  0
 22 23  2  0  0  0
 32 27  1  0  0  0
  7  1  1  0  0  0
 17 12  1  0  0  0
 23 18  1  0  0  0
  6  3  1  0  0  0
  8 11  1  0  0  0
M  END
> <minimizedAffinity>
2.85335

> <CNNscore>
0.4463183880

> <CNNaffinity>
6.9802947044

> <CNN_VS>
3.1154339314

> <CNNaffinity_variance>
0.3939655423

$$$$
[H]c1c([H])c([H])c(-c2c([H])c([H])c([H])c(C(=O)N([H])[C@]3([H])C([H])([H])[C@]4([H])C([H])([H])N(S(=O)(=O)c5c([H])c([H])c(OC([H])([H])[H])c([H])c5[H])C([H])([H])[C@]43[H])c2[H])c([H])c1[H]


 34 38  0  0  0  0  0  0  0  0999 V2000
    6.8629   50.3356  129.7306 N   0  0  0  0  0  0  0  0  0  0  0  0
    7.8143   49.3859  129.1216 C   0  0  0  0  0  0  0  0  0  0  0  0
    8.4457   48.9022  130.3371 C   0  0  0  0  0  0  0  0  0  0  0  0
    9.8178   48.5880  130.6058 C   0  0  0  0  0  0  0  0  0  0  0  0
    9.6259   49.5746  131.7935 C   0  0  0  0  0  0  0  0  0  0  0  0
    8.8786   50.3328  130.8107 C   0  0  0  0  0  0  0  0  0  0  0  0
    7.5312   50.8596  130.9326 C   0  0  0  0  0  0  0  0  0  0  0  0
   10.0750   47.2726  131.1684 N   0  0  0  0  0  0  0  0  0  0  0  0
   10.4093   46.1528  130.3802 C   0  0  0  0  0  0  0  0  0  0  0  0
   10.5043   46.2417  129.1192 O   0  0  0  0  0  0  0  0  0  0  0  0
   10.0041   47.1837  132.1937 H   0  0  0  0  0  0  0  0  0  0  0  0
   10.6542   44.8633  131.0010 C   0  0  0  0  0  0  0  0  0  0  0  0
   11.9177   44.2858  130.8793 C   0  0  0  0  0  0  0  0  0  0  0  0
   12.2128   43.0694  131.4388 C   0  0  0  0  0  0  0  0  0  0  0  0
   11.2345   42.3917  132.1445 C   0  0  0  0  0  0  0  0  0  0  0  0
    9.9756   42.9220  132.2901 C   0  0  0  0  0  0  0  0  0  0  0  0
    9.7235   44.1558  131.7064 C   0  0  0  0  0  0  0  0  0  0  0  0
    8.9450   42.2115  133.0315 C   0  0  0  0  0  0  0  0  0  0  0  0
    7.6399   42.2090  132.5851 C   0  0  0  0  0  0  0  0  0  0  0  0
    6.6425   41.5433  133.2677 C   0  0  0  0  0  0  0  0  0  0  0  0
    6.9423   40.8609  134.4234 C   0  0  0  0  0  0  0  0  0  0  0  0
    8.2377   40.8469  134.8916 C   0  0  0  0  0  0  0  0  0  0  0  0
    9.2226   41.5193  134.1944 C   0  0  0  0  0  0  0  0  0  0  0  0
    6.3095   51.5127  128.6806 S   0  0  0  0  0  0  0  0  0  0  0  0
    7.1513   51.4812  127.4342 O   0  0  0  0  0  0  0  0  0  0  0  0
    6.5518   52.8649  129.3151 O   0  0  0  0  0  0  0  0  0  0  0  0
    1.9692   51.3305  127.4028 C   0  0  0  0  0  0  0  0  0  0  0  0
    2.8285   52.2840  126.8905 C   0  0  0  0  0  0  0  0  0  0  0  0
    4.1303   52.3045  127.3029 C   0  0  0  0  0  0  0  0  0  0  0  0
    4.6550   51.4151  128.2184 C   0  0  0  0  0  0  0  0  0  0  0  0
    3.7784   50.4726  128.7159 C   0  0  0  0  0  0  0  0  0  0  0  0
    2.4601   50.4284  128.3177 C   0  0  0  0  0  0  0  0  0  0  0  0
    0.3071   50.4896  125.8845 C   0  0  0  0  0  0  0  0  0  0  0  0
    0.6352   51.2801  127.0042 O   0  0  0  0  0  0  0  0  0  0  0  0
 33 34  1  0  0  0
 34 27  1  0  0  0
 27 28  2  0  0  0
 28 29  1  0  0  0
 29 30  2  0  0  0
 30 31  1  0  0  0
 31 32  2  0  0  0
 30 24  1  0  0  0
 24 25  2  0  0  0
 24 26  2  0  0  0
 24  1  1  0  0  0
  1  2  1  0  0  0
  2  3  1  0  0  0
  3  4  1  0  0  0
  4  5  1  0  0  0
  5  6  1  0  0  0
  6  7  1  0  0  0
  4  8  1  0  0  0
  8  9  1  0  0  0
  9 10  2  0  0  0
  9 12  1  0  0  0
 12 13  2  0  0  0
 13 14  1  0  0  0
 14 15  2  0  0  0
 15 16  1  0  0  0
 16 17  2  0  0  0
 16 18  1  0  0  0
 18 19  2  0  0  0
 19 20  1  0  0  0
 20 21  2  0  0  0
 21 22  1  0  0  0
 22 23  2  0  0  0
 32 27  1  0  0  0
  7  1  1  0  0  0
 17 12  1  0  0  0
 23 18  1  0  0  0
  6  3  1  0  0  0
  8 11  1  0  0  0
M  END
> <minimizedAffinity>
32.38517

> <CNNscore>
0.4165839851

> <CNNaffinity>
6.9195914268

> <CNN_VS>
2.8825910091

> <CNNaffinity_variance>
1.7347930670

$$$$
[H]c1c([H])c(C(=O)N([H])[C@]2([H])C([H])([H])[C@]3([H])C([H])([H])N(S(=O)(=O)c4c([H])c([H])c(OC([H])([H])[H])c([H])c4[H])C([H])([H])[C@]32[H])c([H])c([H])c1F


 29 32  0  0  0  0  0  0  0  0999 V2000
    8.7053   44.7199  132.6317 N   0  0  0  0  0  0  0  0  0  0  0  0
    9.1829   46.0233  132.2136 C   0  0  0  0  0  0  0  0  0  0  0  0
    9.1459   46.7946  133.4395 C   0  0  0  0  0  0  0  0  0  0  0  0
    8.5579   48.0812  133.7109 C   0  0  0  0  0  0  0  0  0  0  0  0
    7.8900   47.3148  134.8937 C   0  0  0  0  0  0  0  0  0  0  0  0
    7.7334   46.2847  133.8977 C   0  0  0  0  0  0  0  0  0  0  0  0
    8.1532   44.8744  133.9629 C   0  0  0  0  0  0  0  0  0  0  0  0
    9.3633   49.1384  134.2612 N   0  0  0  0  0  0  0  0  0  0  0  0
    9.6641   50.2512  133.4324 C   0  0  0  0  0  0  0  0  0  0  0  0
    9.2369   50.3168  132.2440 O   0  0  0  0  0  0  0  0  0  0  0  0
    9.6955   49.0565  135.2361 H   0  0  0  0  0  0  0  0  0  0  0  0
   10.4786   51.3815  133.8949 C   0  0  0  0  0  0  0  0  0  0  0  0
    9.9054   52.6190  134.0981 C   0  0  0  0  0  0  0  0  0  0  0  0
   10.6714   53.6898  134.5344 C   0  0  0  0  0  0  0  0  0  0  0  0
   12.0086   53.4868  134.7577 C   0  0  0  0  0  0  0  0  0  0  0  0
   12.7939   54.5179  135.1877 F   0  0  0  0  0  0  0  0  0  0  0  0
   12.6252   52.2689  134.5684 C   0  0  0  0  0  0  0  0  0  0  0  0
   11.8322   51.2321  134.1355 C   0  0  0  0  0  0  0  0  0  0  0  0
    9.8462   43.4793  132.6119 S   0  0  0  0  0  0  0  0  0  0  0  0
    9.1940   42.1918  132.1215 O   0  0  0  0  0  0  0  0  0  0  0  0
   10.4373   43.2063  133.9664 O   0  0  0  0  0  0  0  0  0  0  0  0
   13.0774   44.4472  129.5170 C   0  0  0  0  0  0  0  0  0  0  0  0
   11.8008   44.0663  129.1357 C   0  0  0  0  0  0  0  0  0  0  0  0
   10.8411   43.7757  130.0747 C   0  0  0  0  0  0  0  0  0  0  0  0
   11.0907   43.8460  131.4394 C   0  0  0  0  0  0  0  0  0  0  0  0
   12.3621   44.2253  131.8211 C   0  0  0  0  0  0  0  0  0  0  0  0
   13.3142   44.5135  130.8694 C   0  0  0  0  0  0  0  0  0  0  0  0
   15.2493   44.0539  128.5716 C   0  0  0  0  0  0  0  0  0  0  0  0
   14.0090   44.7299  128.5334 O   0  0  0  0  0  0  0  0  0  0  0  0
 28 29  1  0  0  0
 29 22  1  0  0  0
 22 23  2  0  0  0
 23 24  1  0  0  0
 24 25  2  0  0  0
 25 26  1  0  0  0
 26 27  2  0  0  0
 25 19  1  0  0  0
 19 20  2  0  0  0
 19 21  2  0  0  0
 19  1  1  0  0  0
  1  2  1  0  0  0
  2  3  1  0  0  0
  3  4  1  0  0  0
  4  5  1  0  0  0
  5  6  1  0  0  0
  6  7  1  0  0  0
  4  8  1  0  0  0
  8  9  1  0  0  0
  9 10  2  0  0  0
  9 12  1  0  0  0
 12 13  2  0  0  0
 13 14  1  0  0  0
 14 15  2  0  0  0
 15 16  1  0  0  0
 15 17  1  0  0  0
 17 18  2  0  0  0
 27 22  1  0  0  0
  7  1  1  0  0  0
 18 12  1  0  0  0
  6  3  1  0  0  0
  8 11  1  0  0  0
M  END
> <minimizedAffinity>
24.76255

> <CNNscore>
0.5307866335

> <CNNaffinity>
7.0218796730

> <CNN_VS>
3.7271199226

> <CNNaffinity_variance>
1.2479088306

$$$$
[H]c1c([H])c(C(=O)N([H])[C@]2([H])C([H])([H])[C@]3([H])C([H])([H])N(S(=O)(=O)c4c([H])c([H])c(OC([H])([H])[H])c([H])c4[H])C([H])([H])[C@]32[H])c([H])c([H])c1F


 29 32  0  0  0  0  0  0  0  0999 V2000
    8.4657   50.4284  130.7512 N   0  0  0  0  0  0  0  0  0  0  0  0
    9.7211   49.7036  130.7353 C   0  0  0  0  0  0  0  0  0  0  0  0
    9.4897   48.6267  131.6764 C   0  0  0  0  0  0  0  0  0  0  0  0
   10.2747   48.1920  132.8031 C   0  0  0  0  0  0  0  0  0  0  0  0
    8.9165   48.3234  133.5584 C   0  0  0  0  0  0  0  0  0  0  0  0
    8.8013   49.5224  132.7667 C   0  0  0  0  0  0  0  0  0  0  0  0
    7.7007   49.9325  131.8780 C   0  0  0  0  0  0  0  0  0  0  0  0
   10.7060   46.8228  132.8938 N   0  0  0  0  0  0  0  0  0  0  0  0
   10.1060   45.8732  132.0254 C   0  0  0  0  0  0  0  0  0  0  0  0
    9.2185   46.2167  131.1927 O   0  0  0  0  0  0  0  0  0  0  0  0
   11.4347   46.5739  133.5827 H   0  0  0  0  0  0  0  0  0  0  0  0
   10.4721   44.4518  132.0376 C   0  0  0  0  0  0  0  0  0  0  0  0
   11.5493   44.0011  131.3041 C   0  0  0  0  0  0  0  0  0  0  0  0
   11.8983   42.6588  131.3123 C   0  0  0  0  0  0  0  0  0  0  0  0
   11.1473   41.7945  132.0660 C   0  0  0  0  0  0  0  0  0  0  0  0
   11.4613   40.4659  132.0983 F   0  0  0  0  0  0  0  0  0  0  0  0
   10.0629   42.1983  132.8146 C   0  0  0  0  0  0  0  0  0  0  0  0
    9.7488   43.5367  132.7805 C   0  0  0  0  0  0  0  0  0  0  0  0
    7.5500   50.3412  129.3387 S   0  0  0  0  0  0  0  0  0  0  0  0
    8.4453   49.9400  128.1722 O   0  0  0  0  0  0  0  0  0  0  0  0
    6.8941   51.6463  128.9850 O   0  0  0  0  0  0  0  0  0  0  0  0
    4.4897   46.9594  129.7317 C   0  0  0  0  0  0  0  0  0  0  0  0
    5.8509   46.7028  129.6925 C   0  0  0  0  0  0  0  0  0  0  0  0
    6.7587   47.7268  129.5713 C   0  0  0  0  0  0  0  0  0  0  0  0
    6.3709   49.0578  129.4828 C   0  0  0  0  0  0  0  0  0  0  0  0
    5.0152   49.3152  129.5217 C   0  0  0  0  0  0  0  0  0  0  0  0
    4.1165   48.2793  129.6434 C   0  0  0  0  0  0  0  0  0  0  0  0
    2.2753   46.1652  130.2122 C   0  0  0  0  0  0  0  0  0  0  0  0
    3.6153   45.8939  129.8551 O   0  0  0  0  0  0  0  0  0  0  0  0
 28 29  1  0  0  0
 29 22  1  0  0  0
 22 23  2  0  0  0
 23 24  1  0  0  0
 24 25  2  0  0  0
 25 26  1  0  0  0
 26 27  2  0  0  0
 25 19  1  0  0  0
 19 20  2  0  0  0
 19 21  2  0  0  0
 19  1  1  0  0  0
  1  2  1  0  0  0
  2  3  1  0  0  0
  3  4  1  0  0  0
  4  5  1  0  0  0
  5  6  1  0  0  0
  6  7  1  0  0  0
  4  8  1  0  0  0
  8  9  1  0  0  0
  9 10  2  0  0  0
  9 12  1  0  0  0
 12 13  2  0  0  0
 13 14  1  0  0  0
 14 15  2  0  0  0
 15 16  1  0  0  0
 15 17  1  0  0  0
 17 18  2  0  0  0
 27 22  1  0  0  0
  7  1  1  0  0  0
 18 12  1  0  0  0
  6  3  1  0  0  0
  8 11  1  0  0  0
M  END
> <minimizedAffinity>
3.75772

> <CNNscore>
0.5288134217

> <CNNaffinity>
7.3580627441

> <CNN_VS>
3.8910422325

> <CNNaffinity_variance>
1.1579176188

$$$$
[H]c1c([H])c(C(=O)N([H])[C@]2([H])C([H])([H])[C@]3([H])C([H])([H])N(S(=O)(=O)c4c([H])c([H])c(OC([H])([H])[H])c([H])c4[H])C([H])([H])[C@]32[H])c([H])c([H])c1F


 29 32  0  0  0  0  0  0  0  0999 V2000
    9.8436   49.2316  133.0964 N   0  0  0  0  0  0  0  0  0  0  0  0
   10.7792   48.1266  133.0216 C   0  0  0  0  0  0  0  0  0  0  0  0
    9.9339   46.9673  133.2223 C   0  0  0  0  0  0  0  0  0  0  0  0
   10.0729   45.8623  134.1358 C   0  0  0  0  0  0  0  0  0  0  0  0
    8.6060   46.2350  134.5119 C   0  0  0  0  0  0  0  0  0  0  0  0
    9.1161   47.5796  134.4145 C   0  0  0  0  0  0  0  0  0  0  0  0
    8.5976   48.7016  133.6136 C   0  0  0  0  0  0  0  0  0  0  0  0
   10.0777   44.5131  133.6371 N   0  0  0  0  0  0  0  0  0  0  0  0
   10.2283   44.3169  132.2390 C   0  0  0  0  0  0  0  0  0  0  0  0
   10.3569   45.2971  131.4505 O   0  0  0  0  0  0  0  0  0  0  0  0
    9.9728   43.7334  134.3068 H   0  0  0  0  0  0  0  0  0  0  0  0
   10.2446   42.9827  131.6273 C   0  0  0  0  0  0  0  0  0  0  0  0
   11.0292   41.9803  132.1573 C   0  0  0  0  0  0  0  0  0  0  0  0
   11.0480   40.7184  131.5821 C   0  0  0  0  0  0  0  0  0  0  0  0
   10.2690   40.4941  130.4766 C   0  0  0  0  0  0  0  0  0  0  0  0
   10.2622   39.2640  129.8837 F   0  0  0  0  0  0  0  0  0  0  0  0
    9.4695   41.4642  129.9119 C   0  0  0  0  0  0  0  0  0  0  0  0
    9.4781   42.7020  130.5109 C   0  0  0  0  0  0  0  0  0  0  0  0
    9.5724   50.0624  131.6551 S   0  0  0  0  0  0  0  0  0  0  0  0
   10.7953   49.9371  130.7541 O   0  0  0  0  0  0  0  0  0  0  0  0
    9.3061   51.5266  131.8650 O   0  0  0  0  0  0  0  0  0  0  0  0
    6.1635   48.0345  129.3696 C   0  0  0  0  0  0  0  0  0  0  0  0
    7.2509   47.3138  129.8371 C   0  0  0  0  0  0  0  0  0  0  0  0
    8.2687   47.9352  130.5191 C   0  0  0  0  0  0  0  0  0  0  0  0
    8.2668   49.3004  130.7759 C   0  0  0  0  0  0  0  0  0  0  0  0
    7.1843   50.0199  130.3109 C   0  0  0  0  0  0  0  0  0  0  0  0
    6.1713   49.3844  129.6288 C   0  0  0  0  0  0  0  0  0  0  0  0
    4.2540   46.5803  129.4349 C   0  0  0  0  0  0  0  0  0  0  0  0
    5.1635   47.3629  128.6885 O   0  0  0  0  0  0  0  0  0  0  0  0
 28 29  1  0  0  0
 29 22  1  0  0  0
 22 23  2  0  0  0
 23 24  1  0  0  0
 24 25  2  0  0  0
 25 26  1  0  0  0
 26 27  2  0  0  0
 25 19  1  0  0  0
 19 20  2  0  0  0
 19 21  2  0  0  0
 19  1  1  0  0  0
  1  2  1  0  0  0
  2  3  1  0  0  0
  3  4  1  0  0  0
  4  5  1  0  0  0
  5  6  1  0  0  0
  6  7  1  0  0  0
  4  8  1  0  0  0
  8  9  1  0  0  0
  9 10  2  0  0  0
  9 12  1  0  0  0
 12 13  2  0  0  0
 13 14  1  0  0  0
 14 15  2  0  0  0
 15 16  1  0  0  0
 15 17  1  0  0  0
 17 18  2  0  0  0
 27 22  1  0  0  0
  7  1  1  0  0  0
 18 12  1  0  0  0
  6  3  1  0  0  0
  8 11  1  0  0  0
M  END
> <minimizedAffinity>
4.43921

> <CNNscore>
0.5163299441

> <CNNaffinity>
7.6133127213

> <CNN_VS>
3.9309813976

> <CNNaffinity_variance>
1.6998544931

$$$$
[H]c1c([H])c(C(=O)N([H])[C@]2([H])C([H])([H])[C@]3([H])C([H])([H])N(S(=O)(=O)c4c([H])c([H])c(OC([H])([H])[H])c([H])c4[H])C([H])([H])[C@]32[H])c([H])c([H])c1F


 29 32  0  0  0  0  0  0  0  0999 V2000
   11.8559   47.2593  133.2447 N   0  0  0  0  0  0  0  0  0  0  0  0
   11.2898   46.5329  134.3644 C   0  0  0  0  0  0  0  0  0  0  0  0
    9.9433   46.2394  133.9176 C   0  0  0  0  0  0  0  0  0  0  0  0
    8.6781   46.4633  134.5686 C   0  0  0  0  0  0  0  0  0  0  0  0
    8.3200   47.1540  133.2170 C   0  0  0  0  0  0  0  0  0  0  0  0
    9.6607   47.6698  133.3354 C   0  0  0  0  0  0  0  0  0  0  0  0
   10.7605   47.5986  132.3584 C   0  0  0  0  0  0  0  0  0  0  0  0
    7.7671   45.3678  134.7661 N   0  0  0  0  0  0  0  0  0  0  0  0
    8.0786   44.1211  134.1622 C   0  0  0  0  0  0  0  0  0  0  0  0
    9.1269   43.9723  133.4711 O   0  0  0  0  0  0  0  0  0  0  0  0
    6.9201   45.5203  135.3378 H   0  0  0  0  0  0  0  0  0  0  0  0
    7.2163   42.9412  134.2996 C   0  0  0  0  0  0  0  0  0  0  0  0
    6.1939   42.9265  135.2247 C   0  0  0  0  0  0  0  0  0  0  0  0
    5.3772   41.8135  135.3582 C   0  0  0  0  0  0  0  0  0  0  0  0
    5.6118   40.7319  134.5493 C   0  0  0  0  0  0  0  0  0  0  0  0
    4.8279   39.6185  134.6526 F   0  0  0  0  0  0  0  0  0  0  0  0
    6.6209   40.7005  133.6112 C   0  0  0  0  0  0  0  0  0  0  0  0
    7.4087   41.8229  133.5090 C   0  0  0  0  0  0  0  0  0  0  0  0
   13.0725   46.4623  132.3926 S   0  0  0  0  0  0  0  0  0  0  0  0
   13.6341   45.3284  133.2425 O   0  0  0  0  0  0  0  0  0  0  0  0
   14.2147   47.3656  132.0212 O   0  0  0  0  0  0  0  0  0  0  0  0
   11.2645   44.4728  128.6873 C   0  0  0  0  0  0  0  0  0  0  0  0
   10.6232   45.5174  129.3336 C   0  0  0  0  0  0  0  0  0  0  0  0
   11.1752   46.1037  130.4466 C   0  0  0  0  0  0  0  0  0  0  0  0
   12.3895   45.6903  130.9799 C   0  0  0  0  0  0  0  0  0  0  0  0
   13.0298   44.6498  130.3372 C   0  0  0  0  0  0  0  0  0  0  0  0
   12.4651   44.0713  129.2229 C   0  0  0  0  0  0  0  0  0  0  0  0
    9.6209   42.9865  127.7629 C   0  0  0  0  0  0  0  0  0  0  0  0
   10.6680   43.9155  127.5698 O   0  0  0  0  0  0  0  0  0  0  0  0
 28 29  1  0  0  0
 29 22  1  0  0  0
 22 23  2  0  0  0
 23 24  1  0  0  0
 24 25  2  0  0  0
 25 26  1  0  0  0
 26 27  2  0  0  0
 25 19  1  0  0  0
 19 20  2  0  0  0
 19 21  2  0  0  0
 19  1  1  0  0  0
  1  2  1  0  0  0
  2  3  1  0  0  0
  3  4  1  0  0  0
  4  5  1  0  0  0
  5  6  1  0  0  0
  6  7  1  0  0  0
  4  8  1  0  0  0
  8  9  1  0  0  0
  9 10  2  0  0  0
  9 12  1  0  0  0
 12 13  2  0  0  0
 13 14  1  0  0  0
 14 15  2  0  0  0
 15 16  1  0  0  0
 15 17  1  0  0  0
 17 18  2  0  0  0
 27 22  1  0  0  0
  7  1  1  0  0  0
 18 12  1  0  0  0
  6  3  1  0  0  0
  8 11  1  0  0  0
M  END
> <minimizedAffinity>
28.72962

> <CNNscore>
0.5146278739

> <CNNaffinity>
7.0338797569

> <CNN_VS>
3.6198306084

> <CNNaffinity_variance>
2.0915489197

$$$$
[H]c1c([H])c(C(=O)N([H])[C@]2([H])C([H])([H])[C@]3([H])C([H])([H])N(S(=O)(=O)c4c([H])c([H])c(OC([H])([H])[H])c([H])c4[H])C([H])([H])[C@]32[H])c([H])c([H])c1F


 29 32  0  0  0  0  0  0  0  0999 V2000
   10.5246   42.7427  130.0369 N   0  0  0  0  0  0  0  0  0  0  0  0
   11.1456   44.0368  129.8333 C   0  0  0  0  0  0  0  0  0  0  0  0
   10.0266   44.9535  129.9138 C   0  0  0  0  0  0  0  0  0  0  0  0
    9.6156   46.0001  129.0137 C   0  0  0  0  0  0  0  0  0  0  0  0
    8.2379   45.2745  129.1015 C   0  0  0  0  0  0  0  0  0  0  0  0
    9.0609   44.0938  129.0232 C   0  0  0  0  0  0  0  0  0  0  0  0
    9.0919   42.9355  129.9324 C   0  0  0  0  0  0  0  0  0  0  0  0
    9.4457   47.3427  129.5014 N   0  0  0  0  0  0  0  0  0  0  0  0
    9.7001   47.5926  130.8757 C   0  0  0  0  0  0  0  0  0  0  0  0
   10.0676   46.6652  131.6527 O   0  0  0  0  0  0  0  0  0  0  0  0
    9.1466   48.0790  128.8413 H   0  0  0  0  0  0  0  0  0  0  0  0
    9.5552   48.9248  131.4748 C   0  0  0  0  0  0  0  0  0  0  0  0
    8.9838   49.9550  130.7582 C   0  0  0  0  0  0  0  0  0  0  0  0
    8.8456   51.2155  131.3201 C   0  0  0  0  0  0  0  0  0  0  0  0
    9.2903   51.4101  132.6021 C   0  0  0  0  0  0  0  0  0  0  0  0
    9.1707   52.6378  133.1880 F   0  0  0  0  0  0  0  0  0  0  0  0
    9.8677   50.4117  133.3565 C   0  0  0  0  0  0  0  0  0  0  0  0
    9.9869   49.1763  132.7643 C   0  0  0  0  0  0  0  0  0  0  0  0
   10.9063   41.9650  131.4830 S   0  0  0  0  0  0  0  0  0  0  0  0
   12.3973   41.6502  131.5168 O   0  0  0  0  0  0  0  0  0  0  0  0
   10.1609   40.6731  131.6669 O   0  0  0  0  0  0  0  0  0  0  0  0
   10.1465   44.8025  134.9941 C   0  0  0  0  0  0  0  0  0  0  0  0
    9.1253   44.4181  134.1400 C   0  0  0  0  0  0  0  0  0  0  0  0
    9.3674   43.5682  133.0882 C   0  0  0  0  0  0  0  0  0  0  0  0
   10.6300   43.0527  132.8241 C   0  0  0  0  0  0  0  0  0  0  0  0
   11.6487   43.4347  133.6740 C   0  0  0  0  0  0  0  0  0  0  0  0
   11.3919   44.2872  134.7241 C   0  0  0  0  0  0  0  0  0  0  0  0
    9.3668   46.9509  135.7302 C   0  0  0  0  0  0  0  0  0  0  0  0
    9.8521   45.6603  136.0394 O   0  0  0  0  0  0  0  0  0  0  0  0
 28 29  1  0  0  0
 29 22  1  0  0  0
 22 23  2  0  0  0
 23 24  1  0  0  0
 24 25  2  0  0  0
 25 26  1  0  0  0
 26 27  2  0  0  0
 25 19  1  0  0  0
 19 20  2  0  0  0
 19 21  2  0  0  0
 19  1  1  0  0  0
  1  2  1  0  0  0
  2  3  1  0  0  0
  3  4  1  0  0  0
  4  5  1  0  0  0
  5  6  1  0  0  0
  6  7  1  0  0  0
  4  8  1  0  0  0
  8  9  1  0  0  0
  9 10  2  0  0  0
  9 12  1  0  0  0
 12 13  2  0  0  0
 13 14  1  0  0  0
 14 15  2  0  0  0
 15 16  1  0  0  0
 15 17  1  0  0  0
 17 18  2  0  0  0
 27 22  1  0  0  0
  7  1  1  0  0  0
 18 12  1  0  0  0
  6  3  1  0  0  0
  8 11  1  0  0  0
M  END
> <minimizedAffinity>
5.08776

> <CNNscore>
0.4910265505

> <CNNaffinity>
7.5131464005

> <CNN_VS>
3.6891543865

> <CNNaffinity_variance>
1.1397365332

$$$$
[H]c1c([H])c(C(=O)N([H])[C@]2([H])C([H])([H])[C@]3([H])C([H])([H])N(S(=O)(=O)c4c([H])c([H])c(OC([H])([H])[H])c([H])c4[H])C([H])([H])[C@]32[H])c([H])c([H])c1F


 29 32  0  0  0  0  0  0  0  0999 V2000
    8.9234   44.0040  128.3258 N   0  0  0  0  0  0  0  0  0  0  0  0
    8.9316   45.4331  128.0819 C   0  0  0  0  0  0  0  0  0  0  0  0
    8.4667   45.9827  129.3392 C   0  0  0  0  0  0  0  0  0  0  0  0
    7.4172   46.9321  129.6072 C   0  0  0  0  0  0  0  0  0  0  0  0
    6.9441   45.8382  130.6133 C   0  0  0  0  0  0  0  0  0  0  0  0
    7.2989   44.9515  129.5337 C   0  0  0  0  0  0  0  0  0  0  0  0
    8.1991   43.7861  129.5622 C   0  0  0  0  0  0  0  0  0  0  0  0
    7.7033   48.1297  130.3508 N   0  0  0  0  0  0  0  0  0  0  0  0
    8.8559   48.1434  131.1799 C   0  0  0  0  0  0  0  0  0  0  0  0
    9.6136   47.1346  131.2641 O   0  0  0  0  0  0  0  0  0  0  0  0
    7.0663   48.9380  130.2591 H   0  0  0  0  0  0  0  0  0  0  0  0
    9.2371   49.3128  131.9809 C   0  0  0  0  0  0  0  0  0  0  0  0
    8.8132   50.5747  131.6212 C   0  0  0  0  0  0  0  0  0  0  0  0
    9.1716   51.6824  132.3750 C   0  0  0  0  0  0  0  0  0  0  0  0
    9.9554   51.4911  133.4831 C   0  0  0  0  0  0  0  0  0  0  0  0
   10.3279   52.5584  134.2492 F   0  0  0  0  0  0  0  0  0  0  0  0
   10.4029   50.2500  133.8814 C   0  0  0  0  0  0  0  0  0  0  0  0
   10.0263   49.1768  133.1084 C   0  0  0  0  0  0  0  0  0  0  0  0
   10.4356   43.2626  128.3952 S   0  0  0  0  0  0  0  0  0  0  0  0
   11.4191   44.0222  127.5125 O   0  0  0  0  0  0  0  0  0  0  0  0
   10.4090   41.8345  127.9278 O   0  0  0  0  0  0  0  0  0  0  0  0
   12.1070   43.5499  132.6473 C   0  0  0  0  0  0  0  0  0  0  0  0
   11.3061   42.4895  132.2544 C   0  0  0  0  0  0  0  0  0  0  0  0
   10.8085   42.4168  130.9760 C   0  0  0  0  0  0  0  0  0  0  0  0
   11.0754   43.3867  130.0179 C   0  0  0  0  0  0  0  0  0  0  0  0
   11.8731   44.4439  130.4076 C   0  0  0  0  0  0  0  0  0  0  0  0
   12.3649   44.5041  131.6920 C   0  0  0  0  0  0  0  0  0  0  0  0
   11.8379   44.2803  134.9187 C   0  0  0  0  0  0  0  0  0  0  0  0
   12.5841   43.5777  133.9460 O   0  0  0  0  0  0  0  0  0  0  0  0
 28 29  1  0  0  0
 29 22  1  0  0  0
 22 23  2  0  0  0
 23 24  1  0  0  0
 24 25  2  0  0  0
 25 26  1  0  0  0
 26 27  2  0  0  0
 25 19  1  0  0  0
 19 20  2  0  0  0
 19 21  2  0  0  0
 19  1  1  0  0  0
  1  2  1  0  0  0
  2  3  1  0  0  0
  3  4  1  0  0  0
  4  5  1  0  0  0
  5  6  1  0  0  0
  6  7  1  0  0  0
  4  8  1  0  0  0
  8  9  1  0  0  0
  9 10  2  0  0  0
  9 12  1  0  0  0
 12 13  2  0  0  0
 13 14  1  0  0  0
 14 15  2  0  0  0
 15 16  1  0  0  0
 15 17  1  0  0  0
 17 18  2  0  0  0
 27 22  1  0  0  0
  7  1  1  0  0  0
 18 12  1  0  0  0
  6  3  1  0  0  0
  8 11  1  0  0  0
M  END
> <minimizedAffinity>
5.98874

> <CNNscore>
0.4886913002

> <CNNaffinity>
7.1338930130

> <CNN_VS>
3.4862713814

> <CNNaffinity_variance>
1.1757047176

$$$$
[H]c1c([H])c(C(=O)N([H])[C@]2([H])C([H])([H])[C@]3([H])C([H])([H])N(S(=O)(=O)c4c([H])c([H])c(OC([H])([H])[H])c([H])c4[H])C([H])([H])[C@]32[H])c([H])c([H])c1F


 29 32  0  0  0  0  0  0  0  0999 V2000
    6.3452   48.9561  129.0826 N   0  0  0  0  0  0  0  0  0  0  0  0
    6.1614   47.7074  129.7960 C   0  0  0  0  0  0  0  0  0  0  0  0
    7.3478   46.9528  129.4468 C   0  0  0  0  0  0  0  0  0  0  0  0
    7.4801   45.6133  128.9342 C   0  0  0  0  0  0  0  0  0  0  0  0
    8.3538   46.3173  127.8510 C   0  0  0  0  0  0  0  0  0  0  0  0
    7.3119   47.3110  127.9186 C   0  0  0  0  0  0  0  0  0  0  0  0
    7.4397   48.7595  128.1530 C   0  0  0  0  0  0  0  0  0  0  0  0
    8.3058   44.6579  129.6230 N   0  0  0  0  0  0  0  0  0  0  0  0
    9.4759   45.1306  130.2737 C   0  0  0  0  0  0  0  0  0  0  0  0
    9.7867   46.3562  130.2527 O   0  0  0  0  0  0  0  0  0  0  0  0
    8.0240   43.6639  129.6239 H   0  0  0  0  0  0  0  0  0  0  0  0
   10.3872   44.2401  131.0025 C   0  0  0  0  0  0  0  0  0  0  0  0
   10.1221   42.8900  131.0919 C   0  0  0  0  0  0  0  0  0  0  0  0
   10.9801   42.0451  131.7802 C   0  0  0  0  0  0  0  0  0  0  0  0
   12.0950   42.5852  132.3672 C   0  0  0  0  0  0  0  0  0  0  0  0
   12.9623   41.7838  133.0529 F   0  0  0  0  0  0  0  0  0  0  0  0
   12.4011   43.9274  132.3046 C   0  0  0  0  0  0  0  0  0  0  0  0
   11.5262   44.7322  131.6134 C   0  0  0  0  0  0  0  0  0  0  0  0
    6.6282   50.3138  130.0407 S   0  0  0  0  0  0  0  0  0  0  0  0
    5.3839   50.6285  130.8628 O   0  0  0  0  0  0  0  0  0  0  0  0
    6.9673   51.5371  129.2362 O   0  0  0  0  0  0  0  0  0  0  0  0
    9.8985   49.3413  133.0928 C   0  0  0  0  0  0  0  0  0  0  0  0
    8.9062   48.4264  132.7788 C   0  0  0  0  0  0  0  0  0  0  0  0
    7.9288   48.7320  131.8632 C   0  0  0  0  0  0  0  0  0  0  0  0
    7.8794   49.9564  131.2089 C   0  0  0  0  0  0  0  0  0  0  0  0
    8.8672   50.8691  131.5205 C   0  0  0  0  0  0  0  0  0  0  0  0
    9.8406   50.5497  132.4402 C   0  0  0  0  0  0  0  0  0  0  0  0
   11.0485   47.6136  134.3002 C   0  0  0  0  0  0  0  0  0  0  0  0
   10.8611   48.9861  134.0215 O   0  0  0  0  0  0  0  0  0  0  0  0
 28 29  1  0  0  0
 29 22  1  0  0  0
 22 23  2  0  0  0
 23 24  1  0  0  0
 24 25  2  0  0  0
 25 26  1  0  0  0
 26 27  2  0  0  0
 25 19  1  0  0  0
 19 20  2  0  0  0
 19 21  2  0  0  0
 19  1  1  0  0  0
  1  2  1  0  0  0
  2  3  1  0  0  0
  3  4  1  0  0  0
  4  5  1  0  0  0
  5  6  1  0  0  0
  6  7  1  0  0  0
  4  8  1  0  0  0
  8  9  1  0  0  0
  9 10  2  0  0  0
  9 12  1  0  0  0
 12 13  2  0  0  0
 13 14  1  0  0  0
 14 15  2  0  0  0
 15 16  1  0  0  0
 15 17  1  0  0  0
 17 18  2  0  0  0
 27 22  1  0  0  0
  7  1  1  0  0  0
 18 12  1  0  0  0
  6  3  1  0  0  0
  8 11  1  0  0  0
M  END
> <minimizedAffinity>
2.82169

> <CNNscore>
0.4780367017

> <CNNaffinity>
7.0883483887

> <CNN_VS>
3.3884906769

> <CNNaffinity_variance>
0.7842601538

$$$$
[H]c1c([H])c(C(=O)N([H])[C@]2([H])C([H])([H])[C@]3([H])C([H])([H])N(S(=O)(=O)c4c([H])c([H])c(OC([H])([H])[H])c([H])c4[H])C([H])([H])[C@]32[H])c([H])c([H])c1F


 29 32  0  0  0  0  0  0  0  0999 V2000
    8.0135   48.9733  129.3968 N   0  0  0  0  0  0  0  0  0  0  0  0
    7.4792   47.6268  129.4536 C   0  0  0  0  0  0  0  0  0  0  0  0
    8.6605   46.7994  129.3151 C   0  0  0  0  0  0  0  0  0  0  0  0
    8.9278   45.7031  128.4201 C   0  0  0  0  0  0  0  0  0  0  0  0
   10.2142   46.5252  128.1014 C   0  0  0  0  0  0  0  0  0  0  0  0
    9.2956   47.6350  128.1475 C   0  0  0  0  0  0  0  0  0  0  0  0
    9.3872   48.8689  128.9466 C   0  0  0  0  0  0  0  0  0  0  0  0
    9.3318   44.4269  128.9466 N   0  0  0  0  0  0  0  0  0  0  0  0
   10.0111   44.4018  130.1931 C   0  0  0  0  0  0  0  0  0  0  0  0
   10.2547   45.4683  130.8274 O   0  0  0  0  0  0  0  0  0  0  0  0
    9.1163   43.5733  128.4058 H   0  0  0  0  0  0  0  0  0  0  0  0
   10.4676   43.1542  130.8174 C   0  0  0  0  0  0  0  0  0  0  0  0
   11.3552   43.1845  131.8722 C   0  0  0  0  0  0  0  0  0  0  0  0
   11.7896   42.0080  132.4645 C   0  0  0  0  0  0  0  0  0  0  0  0
   11.3153   40.8182  131.9759 C   0  0  0  0  0  0  0  0  0  0  0  0
   11.7210   39.6399  132.5341 F   0  0  0  0  0  0  0  0  0  0  0  0
   10.4280   40.7384  130.9244 C   0  0  0  0  0  0  0  0  0  0  0  0
   10.0210   41.9264  130.3640 C   0  0  0  0  0  0  0  0  0  0  0  0
    7.9333   49.8557  130.8308 S   0  0  0  0  0  0  0  0  0  0  0  0
    6.4774   50.0144  131.2535 O   0  0  0  0  0  0  0  0  0  0  0  0
    8.5264   51.2309  130.7054 O   0  0  0  0  0  0  0  0  0  0  0  0
    9.9136   47.4570  134.1895 C   0  0  0  0  0  0  0  0  0  0  0  0
    8.7738   46.9992  133.5479 C   0  0  0  0  0  0  0  0  0  0  0  0
    8.1877   47.7303  132.5434 C   0  0  0  0  0  0  0  0  0  0  0  0
    8.6957   48.9516  132.1189 C   0  0  0  0  0  0  0  0  0  0  0  0
    9.8311   49.4092  132.7569 C   0  0  0  0  0  0  0  0  0  0  0  0
   10.4081   48.6663  133.7622 C   0  0  0  0  0  0  0  0  0  0  0  0
   10.3508   45.2789  135.1003 C   0  0  0  0  0  0  0  0  0  0  0  0
   10.4669   46.6839  135.1951 O   0  0  0  0  0  0  0  0  0  0  0  0
 28 29  1  0  0  0
 29 22  1  0  0  0
 22 23  2  0  0  0
 23 24  1  0  0  0
 24 25  2  0  0  0
 25 26  1  0  0  0
 26 27  2  0  0  0
 25 19  1  0  0  0
 19 20  2  0  0  0
 19 21  2  0  0  0
 19  1  1  0  0  0
  1  2  1  0  0  0
  2  3  1  0  0  0
  3  4  1  0  0  0
  4  5  1  0  0  0
  5  6  1  0  0  0
  6  7  1  0  0  0
  4  8  1  0  0  0
  8  9  1  0  0  0
  9 10  2  0  0  0
  9 12  1  0  0  0
 12 13  2  0  0  0
 13 14  1  0  0  0
 14 15  2  0  0  0
 15 16  1  0  0  0
 15 17  1  0  0  0
 17 18  2  0  0  0
 27 22  1  0  0  0
  7  1  1  0  0  0
 18 12  1  0  0  0
  6  3  1  0  0  0
  8 11  1  0  0  0
M  END
> <minimizedAffinity>
6.22174

> <CNNscore>
0.4651638269

> <CNNaffinity>
7.2709808350

> <CNN_VS>
3.3821973801

> <CNNaffinity_variance>
1.4641814232

$$$$
[H]c1c([H])c(C(=O)N([H])[C@]2([H])C([H])([H])[C@]3([H])C([H])([H])N(S(=O)(=O)c4c([H])c([H])c(OC([H])([H])[H])c([H])c4[H])C([H])([H])[C@]32[H])c([H])c([H])c1F


 29 32  0  0  0  0  0  0  0  0999 V2000
    9.5392   47.6635  128.9123 N   0  0  0  0  0  0  0  0  0  0  0  0
    8.4018   46.8124  129.2017 C   0  0  0  0  0  0  0  0  0  0  0  0
    9.0197   45.5676  129.6111 C   0  0  0  0  0  0  0  0  0  0  0  0
    8.7850   44.2204  129.1589 C   0  0  0  0  0  0  0  0  0  0  0  0
   10.3330   44.2166  128.9690 C   0  0  0  0  0  0  0  0  0  0  0  0
   10.0908   45.5446  128.4635 C   0  0  0  0  0  0  0  0  0  0  0  0
   10.7122   46.8127  128.8819 C   0  0  0  0  0  0  0  0  0  0  0  0
    8.4482   43.1920  130.1065 N   0  0  0  0  0  0  0  0  0  0  0  0
    8.3861   43.5427  131.4809 C   0  0  0  0  0  0  0  0  0  0  0  0
    8.6176   44.7247  131.8660 O   0  0  0  0  0  0  0  0  0  0  0  0
    8.2625   42.2363  129.7605 H   0  0  0  0  0  0  0  0  0  0  0  0
    8.0537   42.5699  132.5287 C   0  0  0  0  0  0  0  0  0  0  0  0
    6.8163   41.9619  132.5507 C   0  0  0  0  0  0  0  0  0  0  0  0
    6.4979   41.0427  133.5393 C   0  0  0  0  0  0  0  0  0  0  0  0
    7.4419   40.7551  134.4907 C   0  0  0  0  0  0  0  0  0  0  0  0
    7.1637   39.8550  135.4792 F   0  0  0  0  0  0  0  0  0  0  0  0
    8.6909   41.3372  134.5094 C   0  0  0  0  0  0  0  0  0  0  0  0
    8.9687   42.2432  133.5129 C   0  0  0  0  0  0  0  0  0  0  0  0
    9.7791   48.9530  129.9711 S   0  0  0  0  0  0  0  0  0  0  0  0
    8.6071   49.9224  129.8709 O   0  0  0  0  0  0  0  0  0  0  0  0
   11.0366   49.7228  129.6800 O   0  0  0  0  0  0  0  0  0  0  0  0
    9.7678   47.4271  134.2871 C   0  0  0  0  0  0  0  0  0  0  0  0
   10.8796   47.2854  133.4721 C   0  0  0  0  0  0  0  0  0  0  0  0
   10.8688   47.7452  132.1776 C   0  0  0  0  0  0  0  0  0  0  0  0
    9.7603   48.3693  131.6194 C   0  0  0  0  0  0  0  0  0  0  0  0
    8.6519   48.5113  132.4299 C   0  0  0  0  0  0  0  0  0  0  0  0
    8.6765   48.0458  133.7253 C   0  0  0  0  0  0  0  0  0  0  0  0
    9.1688   47.6771  136.5987 C   0  0  0  0  0  0  0  0  0  0  0  0
    9.8282   46.9478  135.5839 O   0  0  0  0  0  0  0  0  0  0  0  0
 28 29  1  0  0  0
 29 22  1  0  0  0
 22 23  2  0  0  0
 23 24  1  0  0  0
 24 25  2  0  0  0
 25 26  1  0  0  0
 26 27  2  0  0  0
 25 19  1  0  0  0
 19 20  2  0  0  0
 19 21  2  0  0  0
 19  1  1  0  0  0
  1  2  1  0  0  0
  2  3  1  0  0  0
  3  4  1  0  0  0
  4  5  1  0  0  0
  5  6  1  0  0  0
  6  7  1  0  0  0
  4  8  1  0  0  0
  8  9  1  0  0  0
  9 10  2  0  0  0
  9 12  1  0  0  0
 12 13  2  0  0  0
 13 14  1  0  0  0
 14 15  2  0  0  0
 15 16  1  0  0  0
 15 17  1  0  0  0
 17 18  2  0  0  0
 27 22  1  0  0  0
  7  1  1  0  0  0
 18 12  1  0  0  0
  6  3  1  0  0  0
  8 11  1  0  0  0
M  END
> <minimizedAffinity>
11.64661

> <CNNscore>
0.4485293627

> <CNNaffinity>
7.2539687157

> <CNN_VS>
3.2536180019

> <CNNaffinity_variance>
2.2732243538

$$$$
[H]c1c([H])c(S(=O)(=O)N2C([H])([H])[C@@]3([H])[C@]([H])(c4c([H])n([H])c5c([H])c([H])c(C#N)c([H])c45)C([H])([H])[C@@]23[H])c([H])c([H])c1OC([H])([H])[H]


 29 33  0  0  0  0  0  0  0  0999 V2000
    8.5938   44.8271  132.2218 N   0  0  0  0  0  0  0  0  0  0  0  0
    8.4974   45.2573  133.5650 C   0  0  0  0  0  0  0  0  0  0  0  0
    8.2548   46.6457  132.9998 C   0  0  0  0  0  0  0  0  0  0  0  0
    9.2811   47.6479  133.3153 C   0  0  0  0  0  0  0  0  0  0  0  0
   10.2617   46.7301  132.4733 C   0  0  0  0  0  0  0  0  0  0  0  0
    9.0314   46.1156  131.8434 C   0  0  0  0  0  0  0  0  0  0  0  0
    9.1628   48.9173  132.5638 C   0  0  0  0  0  0  0  0  0  0  0  0
    9.7655   50.0993  132.8397 C   0  0  0  0  0  0  0  0  0  0  0  0
    9.2879   51.0490  131.9993 N   0  0  0  0  0  0  0  0  0  0  0  0
    8.3855   50.5181  131.1709 C   0  0  0  0  0  0  0  0  0  0  0  0
    7.6630   50.9698  130.0816 C   0  0  0  0  0  0  0  0  0  0  0  0
    6.8692   50.0759  129.3557 C   0  0  0  0  0  0  0  0  0  0  0  0
    6.8092   48.7479  129.7276 C   0  0  0  0  0  0  0  0  0  0  0  0
    7.5209   48.2837  130.8104 C   0  0  0  0  0  0  0  0  0  0  0  0
    8.2976   49.1881  131.5116 C   0  0  0  0  0  0  0  0  0  0  0  0
    9.5707   52.0529  131.9814 H   0  0  0  0  0  0  0  0  0  0  0  0
    6.0729   47.7570  128.9729 C   0  0  0  0  0  0  0  0  0  0  0  0
    5.4625   46.9702  128.3477 N   0  0  0  0  0  0  0  0  0  0  0  0
    9.2873   43.4796  131.6389 S   0  0  0  0  0  0  0  0  0  0  0  0
    9.8243   42.6672  132.8576 O   0  0  0  0  0  0  0  0  0  0  0  0
    8.4669   42.4929  130.8758 O   0  0  0  0  0  0  0  0  0  0  0  0
   13.1990   44.1450  129.3624 C   0  0  0  0  0  0  0  0  0  0  0  0
   13.1562   43.9876  130.7411 C   0  0  0  0  0  0  0  0  0  0  0  0
   11.9508   43.7859  131.3767 C   0  0  0  0  0  0  0  0  0  0  0  0
   10.7536   43.7315  130.6893 C   0  0  0  0  0  0  0  0  0  0  0  0
   10.7983   43.8869  129.3468 C   0  0  0  0  0  0  0  0  0  0  0  0
   11.9842   44.0893  128.6808 C   0  0  0  0  0  0  0  0  0  0  0  0
   15.5012   43.4716  128.7051 C   0  0  0  0  0  0  0  0  0  0  0  0
   14.4172   44.3453  128.7926 O   0  0  0  0  0  0  0  0  0  0  0  0
 28 29  1  0  0  0
 29 22  1  0  0  0
 22 23  2  0  0  0
 23 24  1  0  0  0
 24 25  2  0  0  0
 25 26  1  0  0  0
 26 27  2  0  0  0
 25 19  1  0  0  0
 19 20  2  0  0  0
 19 21  2  0  0  0
 19  1  1  0  0  0
  1  2  1  0  0  0
  2  3  1  0  0  0
  3  4  1  0  0  0
  4  5  1  0  0  0
  5  6  1  0  0  0
  4  7  1  0  0  0
  7  8  2  0  0  0
  8  9  1  0  0  0
  9 10  1  0  0  0
 10 11  2  0  0  0
 11 12  1  0  0  0
 12 13  2  0  0  0
 13 14  1  0  0  0
 14 15  2  0  0  0
 13 17  1  0  0  0
 17 18  3  0  0  0
 27 22  1  0  0  0
  6  1  1  0  0  0
 15  7  1  0  0  0
  6  3  1  0  0  0
 15 10  1  0  0  0
  9 16  1  0  0  0
M  END
> <minimizedAffinity>
-3.09430

> <CNNscore>
0.4892943203

> <CNNaffinity>
7.7745285034

> <CNN_VS>
3.8040325642

> <CNNaffinity_variance>
0.4744919240

$$$$
[H]c1c([H])c(S(=O)(=O)N2C([H])([H])[C@@]3([H])[C@]([H])(c4c([H])n([H])c5c([H])c([H])c(C#N)c([H])c45)C([H])([H])[C@@]23[H])c([H])c([H])c1OC([H])([H])[H]


 29 33  0  0  0  0  0  0  0  0999 V2000
    9.3142   44.2668  129.7809 N   0  0  0  0  0  0  0  0  0  0  0  0
    8.2300   44.1441  128.8819 C   0  0  0  0  0  0  0  0  0  0  0  0
    8.2468   45.6607  128.8088 C   0  0  0  0  0  0  0  0  0  0  0  0
    7.0470   46.3344  129.3226 C   0  0  0  0  0  0  0  0  0  0  0  0
    7.4489   45.7144  130.7251 C   0  0  0  0  0  0  0  0  0  0  0  0
    8.8447   45.5412  130.1687 C   0  0  0  0  0  0  0  0  0  0  0  0
    7.1734   47.8013  129.4727 C   0  0  0  0  0  0  0  0  0  0  0  0
    6.6155   48.7616  128.6962 C   0  0  0  0  0  0  0  0  0  0  0  0
    7.0884   49.9728  129.0782 N   0  0  0  0  0  0  0  0  0  0  0  0
    7.9436   49.8330  130.0938 C   0  0  0  0  0  0  0  0  0  0  0  0
    8.6376   50.6957  130.9225 C   0  0  0  0  0  0  0  0  0  0  0  0
    9.3778   50.1848  131.9935 C   0  0  0  0  0  0  0  0  0  0  0  0
    9.4135   48.8236  132.2202 C   0  0  0  0  0  0  0  0  0  0  0  0
    8.7298   47.9522  131.4030 C   0  0  0  0  0  0  0  0  0  0  0  0
    8.0061   48.4829  130.3508 C   0  0  0  0  0  0  0  0  0  0  0  0
    6.8339   50.8928  128.6576 H   0  0  0  0  0  0  0  0  0  0  0  0
   10.0925   48.2375  133.3556 C   0  0  0  0  0  0  0  0  0  0  0  0
   10.6226   47.7614  134.2909 N   0  0  0  0  0  0  0  0  0  0  0  0
    9.8569   43.1859  130.8641 S   0  0  0  0  0  0  0  0  0  0  0  0
    8.6281   42.6995  131.6931 O   0  0  0  0  0  0  0  0  0  0  0  0
   10.5026   41.9243  130.3946 O   0  0  0  0  0  0  0  0  0  0  0  0
   12.7001   44.9826  133.9649 C   0  0  0  0  0  0  0  0  0  0  0  0
   12.7069   45.3729  132.6326 C   0  0  0  0  0  0  0  0  0  0  0  0
   11.8259   44.8020  131.7406 C   0  0  0  0  0  0  0  0  0  0  0  0
   10.9140   43.8358  132.1194 C   0  0  0  0  0  0  0  0  0  0  0  0
   10.9109   43.4564  133.4173 C   0  0  0  0  0  0  0  0  0  0  0  0
   11.7761   44.0061  134.3338 C   0  0  0  0  0  0  0  0  0  0  0  0
   13.8904   46.9339  134.9453 C   0  0  0  0  0  0  0  0  0  0  0  0
   13.5957   45.5785  134.7965 O   0  0  0  0  0  0  0  0  0  0  0  0
 28 29  1  0  0  0
 29 22  1  0  0  0
 22 23  2  0  0  0
 23 24  1  0  0  0
 24 25  2  0  0  0
 25 26  1  0  0  0
 26 27  2  0  0  0
 25 19  1  0  0  0
 19 20  2  0  0  0
 19 21  2  0  0  0
 19  1  1  0  0  0
  1  2  1  0  0  0
  2  3  1  0  0  0
  3  4  1  0  0  0
  4  5  1  0  0  0
  5  6  1  0  0  0
  4  7  1  0  0  0
  7  8  2  0  0  0
  8  9  1  0  0  0
  9 10  1  0  0  0
 10 11  2  0  0  0
 11 12  1  0  0  0
 12 13  2  0  0  0
 13 14  1  0  0  0
 14 15  2  0  0  0
 13 17  1  0  0  0
 17 18  3  0  0  0
 27 22  1  0  0  0
  6  1  1  0  0  0
 15  7  1  0  0  0
  6  3  1  0  0  0
 15 10  1  0  0  0
  9 16  1  0  0  0
M  END
> <minimizedAffinity>
-2.32416

> <CNNscore>
0.4671893716

> <CNNaffinity>
7.8617682457

> <CNN_VS>
3.6729345322

> <CNNaffinity_variance>
1.2396173477

$$$$
[H]c1c([H])c(S(=O)(=O)N2C([H])([H])[C@@]3([H])[C@]([H])(c4c([H])n([H])c5c([H])c([H])c(C#N)c([H])c45)C([H])([H])[C@@]23[H])c([H])c([H])c1OC([H])([H])[H]


 29 33  0  0  0  0  0  0  0  0999 V2000
    9.9111   43.7689  129.4534 N   0  0  0  0  0  0  0  0  0  0  0  0
    9.0728   44.0097  128.3408 C   0  0  0  0  0  0  0  0  0  0  0  0
    9.4127   45.4779  128.5271 C   0  0  0  0  0  0  0  0  0  0  0  0
    8.2862   46.3499  128.8851 C   0  0  0  0  0  0  0  0  0  0  0  0
    8.2058   45.4938  130.2168 C   0  0  0  0  0  0  0  0  0  0  0  0
    9.6297   45.0637  129.9423 C   0  0  0  0  0  0  0  0  0  0  0  0
    8.6665   47.7183  129.3010 C   0  0  0  0  0  0  0  0  0  0  0  0
    9.9025   48.1687  129.6265 C   0  0  0  0  0  0  0  0  0  0  0  0
    9.8059   49.4392  130.0878 N   0  0  0  0  0  0  0  0  0  0  0  0
    8.5322   49.8392  130.0696 C   0  0  0  0  0  0  0  0  0  0  0  0
    7.8689   51.0252  130.3267 C   0  0  0  0  0  0  0  0  0  0  0  0
    6.4946   51.1188  130.0850 C   0  0  0  0  0  0  0  0  0  0  0  0
    5.8053   50.0294  129.5912 C   0  0  0  0  0  0  0  0  0  0  0  0
    6.4511   48.8418  129.3323 C   0  0  0  0  0  0  0  0  0  0  0  0
    7.8100   48.7753  129.5805 C   0  0  0  0  0  0  0  0  0  0  0  0
   10.5964   50.0375  130.4121 H   0  0  0  0  0  0  0  0  0  0  0  0
    4.4018   50.0841  129.2437 C   0  0  0  0  0  0  0  0  0  0  0  0
    3.2593   50.1503  128.9737 N   0  0  0  0  0  0  0  0  0  0  0  0
    9.9479   42.4720  130.4298 S   0  0  0  0  0  0  0  0  0  0  0  0
    8.4826   41.9564  130.5753 O   0  0  0  0  0  0  0  0  0  0  0  0
   10.7223   41.2609  130.0267 O   0  0  0  0  0  0  0  0  0  0  0  0
   11.3021   43.3471  134.7107 C   0  0  0  0  0  0  0  0  0  0  0  0
   12.1508   43.4747  133.6195 C   0  0  0  0  0  0  0  0  0  0  0  0
   11.6903   43.2021  132.3501 C   0  0  0  0  0  0  0  0  0  0  0  0
   10.3918   42.7980  132.1067 C   0  0  0  0  0  0  0  0  0  0  0  0
    9.5681   42.6729  133.1717 C   0  0  0  0  0  0  0  0  0  0  0  0
    9.9950   42.9375  134.4517 C   0  0  0  0  0  0  0  0  0  0  0  0
   11.7114   42.8935  137.1216 C   0  0  0  0  0  0  0  0  0  0  0  0
   11.8150   43.6258  135.9388 O   0  0  0  0  0  0  0  0  0  0  0  0
 28 29  1  0  0  0
 29 22  1  0  0  0
 22 23  2  0  0  0
 23 24  1  0  0  0
 24 25  2  0  0  0
 25 26  1  0  0  0
 26 27  2  0  0  0
 25 19  1  0  0  0
 19 20  2  0  0  0
 19 21  2  0  0  0
 19  1  1  0  0  0
  1  2  1  0  0  0
  2  3  1  0  0  0
  3  4  1  0  0  0
  4  5  1  0  0  0
  5  6  1  0  0  0
  4  7  1  0  0  0
  7  8  2  0  0  0
  8  9  1  0  0  0
  9 10  1  0  0  0
 10 11  2  0  0  0
 11 12  1  0  0  0
 12 13  2  0  0  0
 13 14  1  0  0  0
 14 15  2  0  0  0
 13 17  1  0  0  0
 17 18  3  0  0  0
 27 22  1  0  0  0
  6  1  1  0  0  0
 15  7  1  0  0  0
  6  3  1  0  0  0
 15 10  1  0  0  0
  9 16  1  0  0  0
M  END
> <minimizedAffinity>
5.47296

> <CNNscore>
0.4591577053

> <CNNaffinity>
7.4879255295

> <CNN_VS>
3.4381387234

> <CNNaffinity_variance>
1.4307264090

$$$$
[H]c1c([H])c(S(=O)(=O)N2C([H])([H])[C@@]3([H])[C@]([H])(c4c([H])n([H])c5c([H])c([H])c(C#N)c([H])c45)C([H])([H])[C@@]23[H])c([H])c([H])c1OC([H])([H])[H]


 29 33  0  0  0  0  0  0  0  0999 V2000
   10.9473   45.6815  129.9328 N   0  0  0  0  0  0  0  0  0  0  0  0
   10.4892   45.1838  128.6914 C   0  0  0  0  0  0  0  0  0  0  0  0
    9.5720   46.3935  128.6566 C   0  0  0  0  0  0  0  0  0  0  0  0
    8.1331   46.1006  128.6959 C   0  0  0  0  0  0  0  0  0  0  0  0
    8.4188   45.5021  130.1357 C   0  0  0  0  0  0  0  0  0  0  0  0
    9.6986   46.3084  130.1392 C   0  0  0  0  0  0  0  0  0  0  0  0
    7.2640   47.2794  128.9081 C   0  0  0  0  0  0  0  0  0  0  0  0
    6.1112   47.5820  128.2631 C   0  0  0  0  0  0  0  0  0  0  0  0
    5.6970   48.8140  128.6467 N   0  0  0  0  0  0  0  0  0  0  0  0
    6.5498   49.3298  129.5351 C   0  0  0  0  0  0  0  0  0  0  0  0
    6.5892   50.4720  130.3138 C   0  0  0  0  0  0  0  0  0  0  0  0
    7.6134   50.6382  131.2515 C   0  0  0  0  0  0  0  0  0  0  0  0
    8.5801   49.6636  131.3972 C   0  0  0  0  0  0  0  0  0  0  0  0
    8.5555   48.5223  130.6283 C   0  0  0  0  0  0  0  0  0  0  0  0
    7.5325   48.3827  129.7080 C   0  0  0  0  0  0  0  0  0  0  0  0
    4.8401   49.3062  128.3129 H   0  0  0  0  0  0  0  0  0  0  0  0
    9.6182   49.7360  132.4026 C   0  0  0  0  0  0  0  0  0  0  0  0
   10.4580   49.7707  133.2249 N   0  0  0  0  0  0  0  0  0  0  0  0
   11.7139   44.8838  131.1213 S   0  0  0  0  0  0  0  0  0  0  0  0
   12.6258   43.8108  130.4496 O   0  0  0  0  0  0  0  0  0  0  0  0
   12.6331   45.6214  132.0378 O   0  0  0  0  0  0  0  0  0  0  0  0
    8.9209   42.2753  133.6354 C   0  0  0  0  0  0  0  0  0  0  0  0
    8.7990   42.3844  132.2568 C   0  0  0  0  0  0  0  0  0  0  0  0
    9.6699   43.1815  131.5469 C   0  0  0  0  0  0  0  0  0  0  0  0
   10.6833   43.8945  132.1579 C   0  0  0  0  0  0  0  0  0  0  0  0
   10.7984   43.7876  133.5009 C   0  0  0  0  0  0  0  0  0  0  0  0
    9.9466   43.0006  134.2397 C   0  0  0  0  0  0  0  0  0  0  0  0
    6.6802   41.2599  134.0019 C   0  0  0  0  0  0  0  0  0  0  0  0
    8.0296   41.4772  134.2815 O   0  0  0  0  0  0  0  0  0  0  0  0
 28 29  1  0  0  0
 29 22  1  0  0  0
 22 23  2  0  0  0
 23 24  1  0  0  0
 24 25  2  0  0  0
 25 26  1  0  0  0
 26 27  2  0  0  0
 25 19  1  0  0  0
 19 20  2  0  0  0
 19 21  2  0  0  0
 19  1  1  0  0  0
  1  2  1  0  0  0
  2  3  1  0  0  0
  3  4  1  0  0  0
  4  5  1  0  0  0
  5  6  1  0  0  0
  4  7  1  0  0  0
  7  8  2  0  0  0
  8  9  1  0  0  0
  9 10  1  0  0  0
 10 11  2  0  0  0
 11 12  1  0  0  0
 12 13  2  0  0  0
 13 14  1  0  0  0
 14 15  2  0  0  0
 13 17  1  0  0  0
 17 18  3  0  0  0
 27 22  1  0  0  0
  6  1  1  0  0  0
 15  7  1  0  0  0
  6  3  1  0  0  0
 15 10  1  0  0  0
  9 16  1  0  0  0
M  END
> <minimizedAffinity>
-1.11867

> <CNNscore>
0.4432149827

> <CNNaffinity>
7.6917314529

> <CNN_VS>
3.4090905190

> <CNNaffinity_variance>
1.0378750563

$$$$
[H]c1c([H])c(S(=O)(=O)N2C([H])([H])[C@@]3([H])[C@]([H])(c4c([H])n([H])c5c([H])c([H])c(C#N)c([H])c45)C([H])([H])[C@@]23[H])c([H])c([H])c1OC([H])([H])[H]


 29 33  0  0  0  0  0  0  0  0999 V2000
    9.4299   46.0067  128.8275 N   0  0  0  0  0  0  0  0  0  0  0  0
    8.5450   47.0068  128.3634 C   0  0  0  0  0  0  0  0  0  0  0  0
    9.1713   47.9090  129.4121 C   0  0  0  0  0  0  0  0  0  0  0  0
    8.2699   48.3627  130.4795 C   0  0  0  0  0  0  0  0  0  0  0  0
    8.1635   46.8307  130.8728 C   0  0  0  0  0  0  0  0  0  0  0  0
    9.4468   46.6166  130.1013 C   0  0  0  0  0  0  0  0  0  0  0  0
    8.9400   49.0314  131.6170 C   0  0  0  0  0  0  0  0  0  0  0  0
    8.9884   50.3596  131.8817 C   0  0  0  0  0  0  0  0  0  0  0  0
    9.8170   50.5738  132.9324 N   0  0  0  0  0  0  0  0  0  0  0  0
   10.3133   49.4143  133.3704 C   0  0  0  0  0  0  0  0  0  0  0  0
   11.1066   49.0215  134.4329 C   0  0  0  0  0  0  0  0  0  0  0  0
   11.3399   47.6614  134.6597 C   0  0  0  0  0  0  0  0  0  0  0  0
   10.7789   46.7165  133.8242 C   0  0  0  0  0  0  0  0  0  0  0  0
    9.9888   47.0919  132.7615 C   0  0  0  0  0  0  0  0  0  0  0  0
    9.7742   48.4430  132.5588 C   0  0  0  0  0  0  0  0  0  0  0  0
   10.0462   51.4990  133.3561 H   0  0  0  0  0  0  0  0  0  0  0  0
   10.9141   45.2937  134.0504 C   0  0  0  0  0  0  0  0  0  0  0  0
   10.9992   44.1350  134.2308 N   0  0  0  0  0  0  0  0  0  0  0  0
    9.3199   44.3967  128.6481 S   0  0  0  0  0  0  0  0  0  0  0  0
    8.1295   44.1159  127.6796 O   0  0  0  0  0  0  0  0  0  0  0  0
   10.4596   43.6361  128.0551 O   0  0  0  0  0  0  0  0  0  0  0  0
    8.0707   42.2698  132.5006 C   0  0  0  0  0  0  0  0  0  0  0  0
    8.1721   43.6514  132.4110 C   0  0  0  0  0  0  0  0  0  0  0  0
    8.5491   44.2414  131.2246 C   0  0  0  0  0  0  0  0  0  0  0  0
    8.8378   43.5041  130.0925 C   0  0  0  0  0  0  0  0  0  0  0  0
    8.7399   42.1586  130.1832 C   0  0  0  0  0  0  0  0  0  0  0  0
    8.3658   41.5375  131.3517 C   0  0  0  0  0  0  0  0  0  0  0  0
    6.4240   41.4014  134.1499 C   0  0  0  0  0  0  0  0  0  0  0  0
    7.6984   41.7456  133.6987 O   0  0  0  0  0  0  0  0  0  0  0  0
 28 29  1  0  0  0
 29 22  1  0  0  0
 22 23  2  0  0  0
 23 24  1  0  0  0
 24 25  2  0  0  0
 25 26  1  0  0  0
 26 27  2  0  0  0
 25 19  1  0  0  0
 19 20  2  0  0  0
 19 21  2  0  0  0
 19  1  1  0  0  0
  1  2  1  0  0  0
  2  3  1  0  0  0
  3  4  1  0  0  0
  4  5  1  0  0  0
  5  6  1  0  0  0
  4  7  1  0  0  0
  7  8  2  0  0  0
  8  9  1  0  0  0
  9 10  1  0  0  0
 10 11  2  0  0  0
 11 12  1  0  0  0
 12 13  2  0  0  0
 13 14  1  0  0  0
 14 15  2  0  0  0
 13 17  1  0  0  0
 17 18  3  0  0  0
 27 22  1  0  0  0
  6  1  1  0  0  0
 15  7  1  0  0  0
  6  3  1  0  0  0
 15 10  1  0  0  0
  9 16  1  0  0  0
M  END
> <minimizedAffinity>
4.19069

> <CNNscore>
0.4278346300

> <CNNaffinity>
7.3155822754

> <CNN_VS>
3.1298594475

> <CNNaffinity_variance>
0.9440269470

$$$$
[H]c1c([H])c(S(=O)(=O)N2C([H])([H])[C@@]3([H])[C@]([H])(c4c([H])n([H])c5c([H])c([H])c(C#N)c([H])c45)C([H])([H])[C@@]23[H])c([H])c([H])c1OC([H])([H])[H]


 29 33  0  0  0  0  0  0  0  0999 V2000
    8.5236   47.7528  130.7112 N   0  0  0  0  0  0  0  0  0  0  0  0
    7.3624   48.1299  131.4239 C   0  0  0  0  0  0  0  0  0  0  0  0
    8.1673   47.8611  132.6831 C   0  0  0  0  0  0  0  0  0  0  0  0
    7.6778   46.7633  133.5273 C   0  0  0  0  0  0  0  0  0  0  0  0
    8.0111   45.8278  132.2917 C   0  0  0  0  0  0  0  0  0  0  0  0
    8.9163   46.9314  131.7910 C   0  0  0  0  0  0  0  0  0  0  0  0
    8.5989   46.3535  134.6107 C   0  0  0  0  0  0  0  0  0  0  0  0
    8.7318   46.9138  135.8374 C   0  0  0  0  0  0  0  0  0  0  0  0
    9.7789   46.3394  136.4778 N   0  0  0  0  0  0  0  0  0  0  0  0
   10.3377   45.4080  135.7015 C   0  0  0  0  0  0  0  0  0  0  0  0
   11.3411   44.4690  135.8570 C   0  0  0  0  0  0  0  0  0  0  0  0
   11.5924   43.5458  134.8370 C   0  0  0  0  0  0  0  0  0  0  0  0
   10.8397   43.5740  133.6802 C   0  0  0  0  0  0  0  0  0  0  0  0
    9.8391   44.5037  133.5098 C   0  0  0  0  0  0  0  0  0  0  0  0
    9.6112   45.4057  134.5332 C   0  0  0  0  0  0  0  0  0  0  0  0
   10.1155   46.5720  137.4373 H   0  0  0  0  0  0  0  0  0  0  0  0
   10.9940   42.5984  132.6228 C   0  0  0  0  0  0  0  0  0  0  0  0
   11.1408   41.7979  131.7742 N   0  0  0  0  0  0  0  0  0  0  0  0
    8.6482   47.2606  129.1689 S   0  0  0  0  0  0  0  0  0  0  0  0
    7.4235   46.3407  128.8727 O   0  0  0  0  0  0  0  0  0  0  0  0
    8.6250   48.2653  128.0647 O   0  0  0  0  0  0  0  0  0  0  0  0
   12.2665   44.5558  128.4492 C   0  0  0  0  0  0  0  0  0  0  0  0
   12.1327   45.3337  129.5912 C   0  0  0  0  0  0  0  0  0  0  0  0
   11.0199   46.1281  129.7599 C   0  0  0  0  0  0  0  0  0  0  0  0
   10.0067   46.1881  128.8227 C   0  0  0  0  0  0  0  0  0  0  0  0
   10.1407   45.4308  127.7106 C   0  0  0  0  0  0  0  0  0  0  0  0
   11.2379   44.6263  127.5110 C   0  0  0  0  0  0  0  0  0  0  0  0
   14.6431   43.9898  128.9156 C   0  0  0  0  0  0  0  0  0  0  0  0
   13.3885   43.7958  128.3373 O   0  0  0  0  0  0  0  0  0  0  0  0
 28 29  1  0  0  0
 29 22  1  0  0  0
 22 23  2  0  0  0
 23 24  1  0  0  0
 24 25  2  0  0  0
 25 26  1  0  0  0
 26 27  2  0  0  0
 25 19  1  0  0  0
 19 20  2  0  0  0
 19 21  2  0  0  0
 19  1  1  0  0  0
  1  2  1  0  0  0
  2  3  1  0  0  0
  3  4  1  0  0  0
  4  5  1  0  0  0
  5  6  1  0  0  0
  4  7  1  0  0  0
  7  8  2  0  0  0
  8  9  1  0  0  0
  9 10  1  0  0  0
 10 11  2  0  0  0
 11 12  1  0  0  0
 12 13  2  0  0  0
 13 14  1  0  0  0
 14 15  2  0  0  0
 13 17  1  0  0  0
 17 18  3  0  0  0
 27 22  1  0  0  0
  6  1  1  0  0  0
 15  7  1  0  0  0
  6  3  1  0  0  0
 15 10  1  0  0  0
  9 16  1  0  0  0
M  END
> <minimizedAffinity>
6.98773

> <CNNscore>
0.3914729953

> <CNNaffinity>
7.4301118851

> <CNN_VS>
2.9086880684

> <CNNaffinity_variance>
1.2178958654

$$$$
[H]c1c([H])c(S(=O)(=O)N2C([H])([H])[C@@]3([H])[C@]([H])(c4c([H])n([H])c5c([H])c([H])c(C#N)c([H])c45)C([H])([H])[C@@]23[H])c([H])c([H])c1OC([H])([H])[H]


 29 33  0  0  0  0  0  0  0  0999 V2000
    8.9704   44.6622  128.9773 N   0  0  0  0  0  0  0  0  0  0  0  0
    7.7698   44.9686  128.2967 C   0  0  0  0  0  0  0  0  0  0  0  0
    8.0798   46.4222  128.6079 C   0  0  0  0  0  0  0  0  0  0  0  0
    7.1223   47.1006  129.4914 C   0  0  0  0  0  0  0  0  0  0  0  0
    7.5822   46.0544  130.5901 C   0  0  0  0  0  0  0  0  0  0  0  0
    8.8241   45.8314  129.7560 C   0  0  0  0  0  0  0  0  0  0  0  0
    7.5597   48.4268  129.9812 C   0  0  0  0  0  0  0  0  0  0  0  0
    7.3285   49.6346  129.4117 C   0  0  0  0  0  0  0  0  0  0  0  0
    8.0159   50.5852  130.0901 N   0  0  0  0  0  0  0  0  0  0  0  0
    8.6928   50.0312  131.0988 C   0  0  0  0  0  0  0  0  0  0  0  0
    9.4628   50.5048  132.1454 C   0  0  0  0  0  0  0  0  0  0  0  0
    9.9378   49.6165  133.1155 C   0  0  0  0  0  0  0  0  0  0  0  0
    9.6373   48.2722  133.0262 C   0  0  0  0  0  0  0  0  0  0  0  0
    8.8739   47.7854  131.9894 C   0  0  0  0  0  0  0  0  0  0  0  0
    8.4170   48.6845  131.0431 C   0  0  0  0  0  0  0  0  0  0  0  0
    8.0275   51.6061  129.8762 H   0  0  0  0  0  0  0  0  0  0  0  0
   10.0285   47.3145  134.0378 C   0  0  0  0  0  0  0  0  0  0  0  0
   10.3285   46.5452  134.8749 N   0  0  0  0  0  0  0  0  0  0  0  0
    9.4302   43.2483  129.6299 S   0  0  0  0  0  0  0  0  0  0  0  0
    8.1375   42.5026  130.0848 O   0  0  0  0  0  0  0  0  0  0  0  0
   10.1547   42.2455  128.7941 O   0  0  0  0  0  0  0  0  0  0  0  0
   11.5928   43.5351  133.6507 C   0  0  0  0  0  0  0  0  0  0  0  0
   10.2422   43.2299  133.5508 C   0  0  0  0  0  0  0  0  0  0  0  0
    9.6409   43.1522  132.3138 C   0  0  0  0  0  0  0  0  0  0  0  0
   10.3362   43.3692  131.1399 C   0  0  0  0  0  0  0  0  0  0  0  0
   11.6510   43.6681  131.2405 C   0  0  0  0  0  0  0  0  0  0  0  0
   12.2826   43.7530  132.4590 C   0  0  0  0  0  0  0  0  0  0  0  0
   11.5101   43.4041  136.1330 C   0  0  0  0  0  0  0  0  0  0  0  0
   12.1290   43.6018  134.8985 O   0  0  0  0  0  0  0  0  0  0  0  0
 28 29  1  0  0  0
 29 22  1  0  0  0
 22 23  2  0  0  0
 23 24  1  0  0  0
 24 25  2  0  0  0
 25 26  1  0  0  0
 26 27  2  0  0  0
 25 19  1  0  0  0
 19 20  2  0  0  0
 19 21  2  0  0  0
 19  1  1  0  0  0
  1  2  1  0  0  0
  2  3  1  0  0  0
  3  4  1  0  0  0
  4  5  1  0  0  0
  5  6  1  0  0  0
  4  7  1  0  0  0
  7  8  2  0  0  0
  8  9  1  0  0  0
  9 10  1  0  0  0
 10 11  2  0  0  0
 11 12  1  0  0  0
 12 13  2  0  0  0
 13 14  1  0  0  0
 14 15  2  0  0  0
 13 17  1  0  0  0
 17 18  3  0  0  0
 27 22  1  0  0  0
  6  1  1  0  0  0
 15  7  1  0  0  0
  6  3  1  0  0  0
 15 10  1  0  0  0
  9 16  1  0  0  0
M  END
> <minimizedAffinity>
-4.67665

> <CNNscore>
0.3066990972

> <CNNaffinity>
7.6142945290

> <CNN_VS>
2.3352973461

> <CNNaffinity_variance>
0.4892943501

$$$$
[H]c1c([H])c(S(=O)(=O)N2C([H])([H])[C@@]3([H])[C@]([H])(c4c([H])n([H])c5c([H])c([H])c(C#N)c([H])c45)C([H])([H])[C@@]23[H])c([H])c([H])c1OC([H])([H])[H]


 29 33  0  0  0  0  0  0  0  0999 V2000
    8.6319   47.9181  129.7823 N   0  0  0  0  0  0  0  0  0  0  0  0
    9.2635   48.0094  128.5209 C   0  0  0  0  0  0  0  0  0  0  0  0
    9.1455   46.4966  128.4622 C   0  0  0  0  0  0  0  0  0  0  0  0
   10.4167   45.7608  128.4460 C   0  0  0  0  0  0  0  0  0  0  0  0
   10.6477   46.3717  129.8904 C   0  0  0  0  0  0  0  0  0  0  0  0
    9.1563   46.6171  129.9477 C   0  0  0  0  0  0  0  0  0  0  0  0
   10.2913   44.2985  128.6358 C   0  0  0  0  0  0  0  0  0  0  0  0
    9.8170   43.3888  127.7504 C   0  0  0  0  0  0  0  0  0  0  0  0
    9.7339   42.1796  128.3565 N   0  0  0  0  0  0  0  0  0  0  0  0
   10.1478   42.2705  129.6226 C   0  0  0  0  0  0  0  0  0  0  0  0
   10.3652   41.3754  130.6541 C   0  0  0  0  0  0  0  0  0  0  0  0
   10.9330   41.8208  131.8520 C   0  0  0  0  0  0  0  0  0  0  0  0
   11.2745   43.1500  132.0013 C   0  0  0  0  0  0  0  0  0  0  0  0
   11.0625   44.0532  130.9846 C   0  0  0  0  0  0  0  0  0  0  0  0
   10.4991   43.5873  129.8106 C   0  0  0  0  0  0  0  0  0  0  0  0
    9.4015   41.2934  127.9180 H   0  0  0  0  0  0  0  0  0  0  0  0
   11.9384   43.6591  133.1819 C   0  0  0  0  0  0  0  0  0  0  0  0
   12.4697   44.0957  134.1356 N   0  0  0  0  0  0  0  0  0  0  0  0
    8.6273   49.0017  130.9916 S   0  0  0  0  0  0  0  0  0  0  0  0
    9.7574   50.0356  130.6954 O   0  0  0  0  0  0  0  0  0  0  0  0
    7.4170   49.8427  131.2303 O   0  0  0  0  0  0  0  0  0  0  0  0
    9.6993   47.2441  135.0767 C   0  0  0  0  0  0  0  0  0  0  0  0
    8.6873   46.7217  134.2827 C   0  0  0  0  0  0  0  0  0  0  0  0
    8.4081   47.2874  133.0580 C   0  0  0  0  0  0  0  0  0  0  0  0
    9.1051   48.3765  132.5716 C   0  0  0  0  0  0  0  0  0  0  0  0
   10.0888   48.8842  133.3480 C   0  0  0  0  0  0  0  0  0  0  0  0
   10.3940   48.3436  134.5750 C   0  0  0  0  0  0  0  0  0  0  0  0
   10.0401   45.2879  136.5744 C   0  0  0  0  0  0  0  0  0  0  0  0
    9.9253   46.6460  136.2767 O   0  0  0  0  0  0  0  0  0  0  0  0
 28 29  1  0  0  0
 29 22  1  0  0  0
 22 23  2  0  0  0
 23 24  1  0  0  0
 24 25  2  0  0  0
 25 26  1  0  0  0
 26 27  2  0  0  0
 25 19  1  0  0  0
 19 20  2  0  0  0
 19 21  2  0  0  0
 19  1  1  0  0  0
  1  2  1  0  0  0
  2  3  1  0  0  0
  3  4  1  0  0  0
  4  5  1  0  0  0
  5  6  1  0  0  0
  4  7  1  0  0  0
  7  8  2  0  0  0
  8  9  1  0  0  0
  9 10  1  0  0  0
 10 11  2  0  0  0
 11 12  1  0  0  0
 12 13  2  0  0  0
 13 14  1  0  0  0
 14 15  2  0  0  0
 13 17  1  0  0  0
 17 18  3  0  0  0
 27 22  1  0  0  0
  6  1  1  0  0  0
 15  7  1  0  0  0
  6  3  1  0  0  0
 15 10  1  0  0  0
  9 16  1  0  0  0
M  END
> <minimizedAffinity>
0.25095

> <CNNscore>
0.3009839356

> <CNNaffinity>
7.0600519180

> <CNN_VS>
2.1249623299

> <CNNaffinity_variance>
0.3308979869

$$$$
[H]c1c([H])c(S(=O)(=O)N2C([H])([H])[C@@]3([H])[C@]([H])(c4c([H])n([H])c5c([H])c([H])c(C#N)c([H])c45)C([H])([H])[C@@]23[H])c([H])c([H])c1OC([H])([H])[H]


 29 33  0  0  0  0  0  0  0  0999 V2000
    8.1543   45.1478  129.2521 N   0  0  0  0  0  0  0  0  0  0  0  0
    6.8182   45.3722  128.8481 C   0  0  0  0  0  0  0  0  0  0  0  0
    7.1325   46.8525  128.9739 C   0  0  0  0  0  0  0  0  0  0  0  0
    6.3766   47.5767  130.0043 C   0  0  0  0  0  0  0  0  0  0  0  0
    7.1180   46.6314  131.0386 C   0  0  0  0  0  0  0  0  0  0  0  0
    8.1435   46.3714  129.9576 C   0  0  0  0  0  0  0  0  0  0  0  0
    6.8608   48.9471  130.2830 C   0  0  0  0  0  0  0  0  0  0  0  0
    6.4303   50.1043  129.7243 C   0  0  0  0  0  0  0  0  0  0  0  0
    7.2231   51.1213  130.1409 N   0  0  0  0  0  0  0  0  0  0  0  0
    8.1656   50.6608  130.9669 C   0  0  0  0  0  0  0  0  0  0  0  0
    9.1573   51.2305  131.7444 C   0  0  0  0  0  0  0  0  0  0  0  0
    9.9115   50.4274  132.6060 C   0  0  0  0  0  0  0  0  0  0  0  0
    9.6644   49.0712  132.6780 C   0  0  0  0  0  0  0  0  0  0  0  0
    8.6823   48.4894  131.9091 C   0  0  0  0  0  0  0  0  0  0  0  0
    7.9513   49.3054  131.0650 C   0  0  0  0  0  0  0  0  0  0  0  0
    7.1285   52.1246  129.8719 H   0  0  0  0  0  0  0  0  0  0  0  0
   10.3520   48.1993  133.6057 C   0  0  0  0  0  0  0  0  0  0  0  0
   10.9294   47.5074  134.3610 N   0  0  0  0  0  0  0  0  0  0  0  0
    8.8082   43.8008  129.8801 S   0  0  0  0  0  0  0  0  0  0  0  0
    8.3613   43.7178  131.3725 O   0  0  0  0  0  0  0  0  0  0  0  0
    8.4455   42.4668  129.3161 O   0  0  0  0  0  0  0  0  0  0  0  0
   13.3788   43.8897  130.0454 C   0  0  0  0  0  0  0  0  0  0  0  0
   12.6626   44.3719  128.9583 C   0  0  0  0  0  0  0  0  0  0  0  0
   11.2859   44.3247  128.9617 C   0  0  0  0  0  0  0  0  0  0  0  0
   10.5675   43.8073  130.0223 C   0  0  0  0  0  0  0  0  0  0  0  0
   11.2678   43.3367  131.0789 C   0  0  0  0  0  0  0  0  0  0  0  0
   12.6422   43.3692  131.1083 C   0  0  0  0  0  0  0  0  0  0  0  0
   15.5519   44.2201  128.8816 C   0  0  0  0  0  0  0  0  0  0  0  0
   14.7353   43.9592  129.9822 O   0  0  0  0  0  0  0  0  0  0  0  0
 28 29  1  0  0  0
 29 22  1  0  0  0
 22 23  2  0  0  0
 23 24  1  0  0  0
 24 25  2  0  0  0
 25 26  1  0  0  0
 26 27  2  0  0  0
 25 19  1  0  0  0
 19 20  2  0  0  0
 19 21  2  0  0  0
 19  1  1  0  0  0
  1  2  1  0  0  0
  2  3  1  0  0  0
  3  4  1  0  0  0
  4  5  1  0  0  0
  5  6  1  0  0  0
  4  7  1  0  0  0
  7  8  2  0  0  0
  8  9  1  0  0  0
  9 10  1  0  0  0
 10 11  2  0  0  0
 11 12  1  0  0  0
 12 13  2  0  0  0
 13 14  1  0  0  0
 14 15  2  0  0  0
 13 17  1  0  0  0
 17 18  3  0  0  0
 27 22  1  0  0  0
  6  1  1  0  0  0
 15  7  1  0  0  0
  6  3  1  0  0  0
 15 10  1  0  0  0
  9 16  1  0  0  0
M  END
> <minimizedAffinity>
2.68971

> <CNNscore>
0.2975870371

> <CNNaffinity>
7.2434616089

> <CNN_VS>
2.1555602551

> <CNNaffinity_variance>
0.7144643664

$$$$
[H]c1c([H])c(C(=O)N([H])[C@]2([H])C([H])([H])[C@]3([H])C([H])([H])N(S(=O)(=O)c4c([H])c([H])c(OC([H])([H])[H])c([H])c4[H])C([H])([H])[C@]32[H])c([H])c([H])c1Cl


 29 32  0  0  0  0  0  0  0  0999 V2000
    8.0852   44.1159  130.3047 N   0  0  0  0  0  0  0  0  0  0  0  0
    8.3094   45.4169  130.9143 C   0  0  0  0  0  0  0  0  0  0  0  0
    8.8894   45.0735  132.1985 C   0  0  0  0  0  0  0  0  0  0  0  0
    8.5032   45.4777  133.5237 C   0  0  0  0  0  0  0  0  0  0  0  0
    8.5302   43.9470  133.8033 C   0  0  0  0  0  0  0  0  0  0  0  0
    7.9395   43.8643  132.5030 C   0  0  0  0  0  0  0  0  0  0  0  0
    8.3486   43.1145  131.3293 C   0  0  0  0  0  0  0  0  0  0  0  0
    9.4829   46.0902  134.3737 N   0  0  0  0  0  0  0  0  0  0  0  0
   10.7067   46.5083  133.8138 C   0  0  0  0  0  0  0  0  0  0  0  0
   10.9550   46.3541  132.5761 O   0  0  0  0  0  0  0  0  0  0  0  0
    9.2810   46.2180  135.3701 H   0  0  0  0  0  0  0  0  0  0  0  0
   11.7090   47.1271  134.6513 C   0  0  0  0  0  0  0  0  0  0  0  0
   11.4247   48.1590  135.5030 C   0  0  0  0  0  0  0  0  0  0  0  0
   12.4234   48.7257  136.2838 C   0  0  0  0  0  0  0  0  0  0  0  0
   13.6953   48.2435  136.1947 C   0  0  0  0  0  0  0  0  0  0  0  0
   14.9672   48.9354  137.1629 Cl  0  0  0  0  0  0  0  0  0  0  0  0
   14.0049   47.1968  135.3368 C   0  0  0  0  0  0  0  0  0  0  0  0
   13.0133   46.6408  134.5675 C   0  0  0  0  0  0  0  0  0  0  0  0
    8.8758   43.8416  128.8460 S   0  0  0  0  0  0  0  0  0  0  0  0
    8.4461   44.7101  127.7290 O   0  0  0  0  0  0  0  0  0  0  0  0
    8.6768   42.3709  128.4985 O   0  0  0  0  0  0  0  0  0  0  0  0
   13.3731   44.3570  129.5515 C   0  0  0  0  0  0  0  0  0  0  0  0
   12.5605   43.6748  130.4341 C   0  0  0  0  0  0  0  0  0  0  0  0
   11.2063   43.5197  130.2236 C   0  0  0  0  0  0  0  0  0  0  0  0
   10.6012   44.0491  129.1042 C   0  0  0  0  0  0  0  0  0  0  0  0
   11.3946   44.7339  128.2102 C   0  0  0  0  0  0  0  0  0  0  0  0
   12.7466   44.8779  128.4389 C   0  0  0  0  0  0  0  0  0  0  0  0
   15.6004   43.7170  128.9641 C   0  0  0  0  0  0  0  0  0  0  0  0
   14.7389   44.5231  129.7474 O   0  0  0  0  0  0  0  0  0  0  0  0
 28 29  1  0  0  0
 29 22  1  0  0  0
 22 23  2  0  0  0
 23 24  1  0  0  0
 24 25  2  0  0  0
 25 26  1  0  0  0
 26 27  2  0  0  0
 25 19  1  0  0  0
 19 20  2  0  0  0
 19 21  2  0  0  0
 19  1  1  0  0  0
  1  2  1  0  0  0
  2  3  1  0  0  0
  3  4  1  0  0  0
  4  5  1  0  0  0
  5  6  1  0  0  0
  6  7  1  0  0  0
  4  8  1  0  0  0
  8  9  1  0  0  0
  9 10  2  0  0  0
  9 12  1  0  0  0
 12 13  2  0  0  0
 13 14  1  0  0  0
 14 15  2  0  0  0
 15 16  1  0  0  0
 15 17  1  0  0  0
 17 18  2  0  0  0
 27 22  1  0  0  0
  7  1  1  0  0  0
 18 12  1  0  0  0
  6  3  1  0  0  0
  8 11  1  0  0  0
M  END
> <minimizedAffinity>
14.95405

> <CNNscore>
0.5352520347

> <CNNaffinity>
7.0770368576

> <CNN_VS>
3.7879984379

> <CNNaffinity_variance>
1.1886311769

$$$$
[H]c1c([H])c(C(=O)N([H])[C@]2([H])C([H])([H])[C@]3([H])C([H])([H])N(S(=O)(=O)c4c([H])c([H])c(OC([H])([H])[H])c([H])c4[H])C([H])([H])[C@]32[H])c([H])c([H])c1Cl


 29 32  0  0  0  0  0  0  0  0999 V2000
   10.8669   42.7400  130.0364 N   0  0  0  0  0  0  0  0  0  0  0  0
   10.8610   43.3742  131.3450 C   0  0  0  0  0  0  0  0  0  0  0  0
   11.2538   44.7372  131.0424 C   0  0  0  0  0  0  0  0  0  0  0  0
   12.3011   45.5436  131.6094 C   0  0  0  0  0  0  0  0  0  0  0  0
   12.6942   45.7601  130.1192 C   0  0  0  0  0  0  0  0  0  0  0  0
   12.3673   44.3724  130.0011 C   0  0  0  0  0  0  0  0  0  0  0  0
   11.4499   43.6946  129.1032 C   0  0  0  0  0  0  0  0  0  0  0  0
   11.9669   46.8255  132.1594 N   0  0  0  0  0  0  0  0  0  0  0  0
   10.6968   47.3736  131.8904 C   0  0  0  0  0  0  0  0  0  0  0  0
    9.8473   46.7547  131.1744 O   0  0  0  0  0  0  0  0  0  0  0  0
   12.6501   47.3221  132.7396 H   0  0  0  0  0  0  0  0  0  0  0  0
   10.3385   48.6642  132.4334 C   0  0  0  0  0  0  0  0  0  0  0  0
   10.6581   49.0432  133.7083 C   0  0  0  0  0  0  0  0  0  0  0  0
   10.2865   50.2924  134.1877 C   0  0  0  0  0  0  0  0  0  0  0  0
    9.5975   51.1420  133.3743 C   0  0  0  0  0  0  0  0  0  0  0  0
    9.1193   52.7149  133.9498 Cl  0  0  0  0  0  0  0  0  0  0  0  0
    9.2635   50.7769  132.0772 C   0  0  0  0  0  0  0  0  0  0  0  0
    9.6336   49.5408  131.6091 C   0  0  0  0  0  0  0  0  0  0  0  0
    9.4042   42.0809  129.5324 S   0  0  0  0  0  0  0  0  0  0  0  0
    9.5098   40.7729  128.8507 O   0  0  0  0  0  0  0  0  0  0  0  0
    8.7359   43.1117  128.6300 O   0  0  0  0  0  0  0  0  0  0  0  0
    6.7067   41.6701  133.2125 C   0  0  0  0  0  0  0  0  0  0  0  0
    7.9767   42.2056  133.2838 C   0  0  0  0  0  0  0  0  0  0  0  0
    8.7903   42.3290  132.1770 C   0  0  0  0  0  0  0  0  0  0  0  0
    8.3594   41.9151  130.9350 C   0  0  0  0  0  0  0  0  0  0  0  0
    7.0944   41.3777  130.8419 C   0  0  0  0  0  0  0  0  0  0  0  0
    6.2965   41.2630  131.9604 C   0  0  0  0  0  0  0  0  0  0  0  0
    6.0706   40.3987  135.1346 C   0  0  0  0  0  0  0  0  0  0  0  0
    5.8734   41.5381  134.3169 O   0  0  0  0  0  0  0  0  0  0  0  0
 28 29  1  0  0  0
 29 22  1  0  0  0
 22 23  2  0  0  0
 23 24  1  0  0  0
 24 25  2  0  0  0
 25 26  1  0  0  0
 26 27  2  0  0  0
 25 19  1  0  0  0
 19 20  2  0  0  0
 19 21  2  0  0  0
 19  1  1  0  0  0
  1  2  1  0  0  0
  2  3  1  0  0  0
  3  4  1  0  0  0
  4  5  1  0  0  0
  5  6  1  0  0  0
  6  7  1  0  0  0
  4  8  1  0  0  0
  8  9  1  0  0  0
  9 10  2  0  0  0
  9 12  1  0  0  0
 12 13  2  0  0  0
 13 14  1  0  0  0
 14 15  2  0  0  0
 15 16  1  0  0  0
 15 17  1  0  0  0
 17 18  2  0  0  0
 27 22  1  0  0  0
  7  1  1  0  0  0
 18 12  1  0  0  0
  6  3  1  0  0  0
  8 11  1  0  0  0
M  END
> <minimizedAffinity>
21.84494

> <CNNscore>
0.5277625322

> <CNNaffinity>
6.8991532326

> <CNN_VS>
3.6411144733

> <CNNaffinity_variance>
2.1587917805

$$$$
[H]c1c([H])c(C(=O)N([H])[C@]2([H])C([H])([H])[C@]3([H])C([H])([H])N(S(=O)(=O)c4c([H])c([H])c(OC([H])([H])[H])c([H])c4[H])C([H])([H])[C@]32[H])c([H])c([H])c1Cl


 29 32  0  0  0  0  0  0  0  0999 V2000
    9.9494   49.0861  132.8846 N   0  0  0  0  0  0  0  0  0  0  0  0
   10.9702   48.0548  132.7907 C   0  0  0  0  0  0  0  0  0  0  0  0
   10.2312   46.8439  133.0927 C   0  0  0  0  0  0  0  0  0  0  0  0
   10.5017   45.8143  134.0599 C   0  0  0  0  0  0  0  0  0  0  0  0
    9.0272   46.0762  134.4836 C   0  0  0  0  0  0  0  0  0  0  0  0
    9.3784   47.4453  134.2625 C   0  0  0  0  0  0  0  0  0  0  0  0
    8.7539   48.4539  133.4261 C   0  0  0  0  0  0  0  0  0  0  0  0
   10.5891   44.4532  133.6159 N   0  0  0  0  0  0  0  0  0  0  0  0
   10.4216   44.1701  132.2456 C   0  0  0  0  0  0  0  0  0  0  0  0
   10.1972   45.0946  131.4016 O   0  0  0  0  0  0  0  0  0  0  0  0
   10.7739   43.7089  134.2955 H   0  0  0  0  0  0  0  0  0  0  0  0
   10.5047   42.8059  131.7755 C   0  0  0  0  0  0  0  0  0  0  0  0
   11.2563   41.8525  132.4056 C   0  0  0  0  0  0  0  0  0  0  0  0
   11.3098   40.5556  131.9123 C   0  0  0  0  0  0  0  0  0  0  0  0
   10.6041   40.2383  130.7900 C   0  0  0  0  0  0  0  0  0  0  0  0
   10.6528   38.6191  130.1499 Cl  0  0  0  0  0  0  0  0  0  0  0  0
    9.8350   41.1909  130.1356 C   0  0  0  0  0  0  0  0  0  0  0  0
    9.7862   42.4712  130.6281 C   0  0  0  0  0  0  0  0  0  0  0  0
    9.6866   49.9893  131.4906 S   0  0  0  0  0  0  0  0  0  0  0  0
   10.8579   50.1146  130.5968 O   0  0  0  0  0  0  0  0  0  0  0  0
    9.1911   51.3613  131.9328 O   0  0  0  0  0  0  0  0  0  0  0  0
    6.2476   48.0491  129.1673 C   0  0  0  0  0  0  0  0  0  0  0  0
    7.4495   47.4056  129.3819 C   0  0  0  0  0  0  0  0  0  0  0  0
    8.4861   47.9888  130.0802 C   0  0  0  0  0  0  0  0  0  0  0  0
    8.3599   49.2590  130.6000 C   0  0  0  0  0  0  0  0  0  0  0  0
    7.1678   49.9188  130.3971 C   0  0  0  0  0  0  0  0  0  0  0  0
    6.1437   49.3184  129.6962 C   0  0  0  0  0  0  0  0  0  0  0  0
    4.2217   46.7811  129.2267 C   0  0  0  0  0  0  0  0  0  0  0  0
    5.1928   47.4771  128.4662 O   0  0  0  0  0  0  0  0  0  0  0  0
 28 29  1  0  0  0
 29 22  1  0  0  0
 22 23  2  0  0  0
 23 24  1  0  0  0
 24 25  2  0  0  0
 25 26  1  0  0  0
 26 27  2  0  0  0
 25 19  1  0  0  0
 19 20  2  0  0  0
 19 21  2  0  0  0
 19  1  1  0  0  0
  1  2  1  0  0  0
  2  3  1  0  0  0
  3  4  1  0  0  0
  4  5  1  0  0  0
  5  6  1  0  0  0
  6  7  1  0  0  0
  4  8  1  0  0  0
  8  9  1  0  0  0
  9 10  2  0  0  0
  9 12  1  0  0  0
 12 13  2  0  0  0
 13 14  1  0  0  0
 14 15  2  0  0  0
 15 16  1  0  0  0
 15 17  1  0  0  0
 17 18  2  0  0  0
 27 22  1  0  0  0
  7  1  1  0  0  0
 18 12  1  0  0  0
  6  3  1  0  0  0
  8 11  1  0  0  0
M  END
> <minimizedAffinity>
6.56908

> <CNNscore>
0.4972869456

> <CNNaffinity>
7.7364196777

> <CNN_VS>
3.8472204208

> <CNNaffinity_variance>
2.4241514206

$$$$
[H]c1c([H])c(C(=O)N([H])[C@]2([H])C([H])([H])[C@]3([H])C([H])([H])N(S(=O)(=O)c4c([H])c([H])c(OC([H])([H])[H])c([H])c4[H])C([H])([H])[C@]32[H])c([H])c([H])c1Cl


 29 32  0  0  0  0  0  0  0  0999 V2000
    6.6236   49.1237  129.2051 N   0  0  0  0  0  0  0  0  0  0  0  0
    6.2361   47.8251  129.7323 C   0  0  0  0  0  0  0  0  0  0  0  0
    7.3447   46.9761  129.3403 C   0  0  0  0  0  0  0  0  0  0  0  0
    7.3436   45.7267  128.6277 C   0  0  0  0  0  0  0  0  0  0  0  0
    8.3885   46.4468  127.7267 C   0  0  0  0  0  0  0  0  0  0  0  0
    7.5218   47.5714  127.9010 C   0  0  0  0  0  0  0  0  0  0  0  0
    7.8046   48.9126  128.3788 C   0  0  0  0  0  0  0  0  0  0  0  0
    7.9913   44.5919  129.2194 N   0  0  0  0  0  0  0  0  0  0  0  0
    9.0450   44.8055  130.1304 C   0  0  0  0  0  0  0  0  0  0  0  0
    9.4279   45.9791  130.4358 O   0  0  0  0  0  0  0  0  0  0  0  0
    7.6800   43.6464  128.9763 H   0  0  0  0  0  0  0  0  0  0  0  0
    9.7128   43.6770  130.7383 C   0  0  0  0  0  0  0  0  0  0  0  0
   10.4112   43.7762  131.9103 C   0  0  0  0  0  0  0  0  0  0  0  0
   11.0418   42.6643  132.4528 C   0  0  0  0  0  0  0  0  0  0  0  0
   10.9591   41.4675  131.8054 C   0  0  0  0  0  0  0  0  0  0  0  0
   11.7402   40.0566  132.4637 Cl  0  0  0  0  0  0  0  0  0  0  0  0
   10.2552   41.3454  130.6151 C   0  0  0  0  0  0  0  0  0  0  0  0
    9.6340   42.4481  130.0838 C   0  0  0  0  0  0  0  0  0  0  0  0
    6.7786   50.3594  130.3351 S   0  0  0  0  0  0  0  0  0  0  0  0
    5.5369   50.7016  131.0616 O   0  0  0  0  0  0  0  0  0  0  0  0
    7.3290   51.5743  129.5974 O   0  0  0  0  0  0  0  0  0  0  0  0
    9.9845   49.1140  133.3616 C   0  0  0  0  0  0  0  0  0  0  0  0
    8.9354   48.2871  133.0147 C   0  0  0  0  0  0  0  0  0  0  0  0
    7.9690   48.6610  132.1046 C   0  0  0  0  0  0  0  0  0  0  0  0
    8.0139   49.8965  131.4954 C   0  0  0  0  0  0  0  0  0  0  0  0
    9.0533   50.7373  131.8277 C   0  0  0  0  0  0  0  0  0  0  0  0
   10.0095   50.3446  132.7400 C   0  0  0  0  0  0  0  0  0  0  0  0
   11.1400   47.3692  134.5176 C   0  0  0  0  0  0  0  0  0  0  0  0
   10.9668   48.7540  134.2765 O   0  0  0  0  0  0  0  0  0  0  0  0
 28 29  1  0  0  0
 29 22  1  0  0  0
 22 23  2  0  0  0
 23 24  1  0  0  0
 24 25  2  0  0  0
 25 26  1  0  0  0
 26 27  2  0  0  0
 25 19  1  0  0  0
 19 20  2  0  0  0
 19 21  2  0  0  0
 19  1  1  0  0  0
  1  2  1  0  0  0
  2  3  1  0  0  0
  3  4  1  0  0  0
  4  5  1  0  0  0
  5  6  1  0  0  0
  6  7  1  0  0  0
  4  8  1  0  0  0
  8  9  1  0  0  0
  9 10  2  0  0  0
  9 12  1  0  0  0
 12 13  2  0  0  0
 13 14  1  0  0  0
 14 15  2  0  0  0
 15 16  1  0  0  0
 15 17  1  0  0  0
 17 18  2  0  0  0
 27 22  1  0  0  0
  7  1  1  0  0  0
 18 12  1  0  0  0
  6  3  1  0  0  0
  8 11  1  0  0  0
M  END
> <minimizedAffinity>
7.61269

> <CNNscore>
0.4868857563

> <CNNaffinity>
7.1825971603

> <CNN_VS>
3.4971041679

> <CNNaffinity_variance>
1.5871371031

$$$$
[H]c1c([H])c(C(=O)N([H])[C@]2([H])C([H])([H])[C@]3([H])C([H])([H])N(S(=O)(=O)c4c([H])c([H])c(OC([H])([H])[H])c([H])c4[H])C([H])([H])[C@]32[H])c([H])c([H])c1Cl


 29 32  0  0  0  0  0  0  0  0999 V2000
    7.6225   46.4567  128.7706 N   0  0  0  0  0  0  0  0  0  0  0  0
    7.8557   45.1505  129.3656 C   0  0  0  0  0  0  0  0  0  0  0  0
    9.0923   45.3477  130.0974 C   0  0  0  0  0  0  0  0  0  0  0  0
   10.3172   44.5947  130.0603 C   0  0  0  0  0  0  0  0  0  0  0  0
   10.9590   45.9936  129.8291 C   0  0  0  0  0  0  0  0  0  0  0  0
    9.8134   46.2009  128.9977 C   0  0  0  0  0  0  0  0  0  0  0  0
    8.8159   47.2553  129.0155 C   0  0  0  0  0  0  0  0  0  0  0  0
   10.8465   44.0732  131.2872 N   0  0  0  0  0  0  0  0  0  0  0  0
   10.5165   44.7120  132.4992 C   0  0  0  0  0  0  0  0  0  0  0  0
    9.7615   45.7351  132.5236 O   0  0  0  0  0  0  0  0  0  0  0  0
   11.4515   43.2464  131.2676 H   0  0  0  0  0  0  0  0  0  0  0  0
   11.0389   44.2045  133.7475 C   0  0  0  0  0  0  0  0  0  0  0  0
   10.2334   43.8441  134.7927 C   0  0  0  0  0  0  0  0  0  0  0  0
   10.7826   43.3672  135.9756 C   0  0  0  0  0  0  0  0  0  0  0  0
   12.1370   43.2605  136.0878 C   0  0  0  0  0  0  0  0  0  0  0  0
   12.8525   42.6650  137.5600 Cl  0  0  0  0  0  0  0  0  0  0  0  0
   12.9721   43.6207  135.0390 C   0  0  0  0  0  0  0  0  0  0  0  0
   12.4233   44.0914  133.8722 C   0  0  0  0  0  0  0  0  0  0  0  0
    6.1819   47.2121  129.1971 S   0  0  0  0  0  0  0  0  0  0  0  0
    5.6601   46.8541  130.5336 O   0  0  0  0  0  0  0  0  0  0  0  0
    5.1649   46.8828  128.1105 O   0  0  0  0  0  0  0  0  0  0  0  0
    6.7952   51.7494  129.0367 C   0  0  0  0  0  0  0  0  0  0  0  0
    5.9668   51.1483  129.9626 C   0  0  0  0  0  0  0  0  0  0  0  0
    5.7804   49.7827  130.0115 C   0  0  0  0  0  0  0  0  0  0  0  0
    6.4252   48.9504  129.1221 C   0  0  0  0  0  0  0  0  0  0  0  0
    7.2570   49.5302  128.1896 C   0  0  0  0  0  0  0  0  0  0  0  0
    7.4299   50.8976  128.1573 C   0  0  0  0  0  0  0  0  0  0  0  0
    7.1590   53.6866  127.6839 C   0  0  0  0  0  0  0  0  0  0  0  0
    6.9948   53.1232  128.9728 O   0  0  0  0  0  0  0  0  0  0  0  0
 28 29  1  0  0  0
 29 22  1  0  0  0
 22 23  2  0  0  0
 23 24  1  0  0  0
 24 25  2  0  0  0
 25 26  1  0  0  0
 26 27  2  0  0  0
 25 19  1  0  0  0
 19 20  2  0  0  0
 19 21  2  0  0  0
 19  1  1  0  0  0
  1  2  1  0  0  0
  2  3  1  0  0  0
  3  4  1  0  0  0
  4  5  1  0  0  0
  5  6  1  0  0  0
  6  7  1  0  0  0
  4  8  1  0  0  0
  8  9  1  0  0  0
  9 10  2  0  0  0
  9 12  1  0  0  0
 12 13  2  0  0  0
 13 14  1  0  0  0
 14 15  2  0  0  0
 15 16  1  0  0  0
 15 17  1  0  0  0
 17 18  2  0  0  0
 27 22  1  0  0  0
  7  1  1  0  0  0
 18 12  1  0  0  0
  6  3  1  0  0  0
  8 11  1  0  0  0
M  END
> <minimizedAffinity>
9.56787

> <CNNscore>
0.4799070060

> <CNNaffinity>
7.2036132812

> <CNN_VS>
3.4570643902

> <CNNaffinity_variance>
1.8376066685

$$$$
[H]c1c([H])c(C(=O)N([H])[C@]2([H])C([H])([H])[C@]3([H])C([H])([H])N(S(=O)(=O)c4c([H])c([H])c(OC([H])([H])[H])c([H])c4[H])C([H])([H])[C@]32[H])c([H])c([H])c1Cl


 29 32  0  0  0  0  0  0  0  0999 V2000
    8.9140   43.8722  128.9208 N   0  0  0  0  0  0  0  0  0  0  0  0
    9.8277   45.0032  128.9005 C   0  0  0  0  0  0  0  0  0  0  0  0
    9.0212   46.0767  129.4488 C   0  0  0  0  0  0  0  0  0  0  0  0
    8.7507   47.3886  128.9247 C   0  0  0  0  0  0  0  0  0  0  0  0
    7.2684   46.9858  129.1749 C   0  0  0  0  0  0  0  0  0  0  0  0
    7.7017   45.7138  128.6841 C   0  0  0  0  0  0  0  0  0  0  0  0
    7.6004   44.3923  129.2760 C   0  0  0  0  0  0  0  0  0  0  0  0
    9.0324   48.5325  129.7429 N   0  0  0  0  0  0  0  0  0  0  0  0
    9.0126   48.3906  131.1448 C   0  0  0  0  0  0  0  0  0  0  0  0
    8.7523   47.2730  131.6930 O   0  0  0  0  0  0  0  0  0  0  0  0
    9.2461   49.4319  129.3009 H   0  0  0  0  0  0  0  0  0  0  0  0
    9.2925   49.5297  131.9891 C   0  0  0  0  0  0  0  0  0  0  0  0
   10.0009   49.4282  133.1548 C   0  0  0  0  0  0  0  0  0  0  0  0
   10.2394   50.5510  133.9363 C   0  0  0  0  0  0  0  0  0  0  0  0
    9.7600   51.7610  133.5308 C   0  0  0  0  0  0  0  0  0  0  0  0
   10.0450   53.1857  134.4915 Cl  0  0  0  0  0  0  0  0  0  0  0  0
    9.0390   51.8857  132.3510 C   0  0  0  0  0  0  0  0  0  0  0  0
    8.8065   50.7722  131.5829 C   0  0  0  0  0  0  0  0  0  0  0  0
    9.4053   42.5464  129.8312 S   0  0  0  0  0  0  0  0  0  0  0  0
   10.1810   41.5304  129.0877 O   0  0  0  0  0  0  0  0  0  0  0  0
    8.1508   41.9328  130.4418 O   0  0  0  0  0  0  0  0  0  0  0  0
   11.8801   44.0863  133.3658 C   0  0  0  0  0  0  0  0  0  0  0  0
   10.6333   44.5933  133.0606 C   0  0  0  0  0  0  0  0  0  0  0  0
    9.8875   44.1315  131.9962 C   0  0  0  0  0  0  0  0  0  0  0  0
   10.3666   43.1282  131.1817 C   0  0  0  0  0  0  0  0  0  0  0  0
   11.6094   42.6081  131.4692 C   0  0  0  0  0  0  0  0  0  0  0  0
   12.3392   43.0836  132.5379 C   0  0  0  0  0  0  0  0  0  0  0  0
   12.4584   45.8866  134.8286 C   0  0  0  0  0  0  0  0  0  0  0  0
   12.6452   44.5394  134.4337 O   0  0  0  0  0  0  0  0  0  0  0  0
 28 29  1  0  0  0
 29 22  1  0  0  0
 22 23  2  0  0  0
 23 24  1  0  0  0
 24 25  2  0  0  0
 25 26  1  0  0  0
 26 27  2  0  0  0
 25 19  1  0  0  0
 19 20  2  0  0  0
 19 21  2  0  0  0
 19  1  1  0  0  0
  1  2  1  0  0  0
  2  3  1  0  0  0
  3  4  1  0  0  0
  4  5  1  0  0  0
  5  6  1  0  0  0
  6  7  1  0  0  0
  4  8  1  0  0  0
  8  9  1  0  0  0
  9 10  2  0  0  0
  9 12  1  0  0  0
 12 13  2  0  0  0
 13 14  1  0  0  0
 14 15  2  0  0  0
 15 16  1  0  0  0
 15 17  1  0  0  0
 17 18  2  0  0  0
 27 22  1  0  0  0
  7  1  1  0  0  0
 18 12  1  0  0  0
  6  3  1  0  0  0
  8 11  1  0  0  0
M  END
> <minimizedAffinity>
9.87747

> <CNNscore>
0.4617923498

> <CNNaffinity>
7.4326605797

> <CNN_VS>
3.4323458672

> <CNNaffinity_variance>
1.9763143063

$$$$
[H]c1c([H])c(C(=O)N([H])[C@]2([H])C([H])([H])[C@]3([H])C([H])([H])N(S(=O)(=O)c4c([H])c([H])c(OC([H])([H])[H])c([H])c4[H])C([H])([H])[C@]32[H])c([H])c([H])c1Cl


 29 32  0  0  0  0  0  0  0  0999 V2000
    9.1691   49.0266  133.1562 N   0  0  0  0  0  0  0  0  0  0  0  0
   10.3094   48.1274  133.0812 C   0  0  0  0  0  0  0  0  0  0  0  0
    9.7223   46.8384  133.3930 C   0  0  0  0  0  0  0  0  0  0  0  0
   10.1095   45.8606  134.3742 C   0  0  0  0  0  0  0  0  0  0  0  0
    8.6108   45.9443  134.7854 C   0  0  0  0  0  0  0  0  0  0  0  0
    8.7931   47.3435  134.5501 C   0  0  0  0  0  0  0  0  0  0  0  0
    8.0561   48.2585  133.6976 C   0  0  0  0  0  0  0  0  0  0  0  0
   10.3667   44.5157  133.9471 N   0  0  0  0  0  0  0  0  0  0  0  0
   10.2053   44.1891  132.5858 C   0  0  0  0  0  0  0  0  0  0  0  0
    9.8394   45.0609  131.7352 O   0  0  0  0  0  0  0  0  0  0  0  0
   10.6653   43.8144  134.6319 H   0  0  0  0  0  0  0  0  0  0  0  0
   10.4579   42.8401  132.1328 C   0  0  0  0  0  0  0  0  0  0  0  0
    9.8842   42.3205  131.0050 C   0  0  0  0  0  0  0  0  0  0  0  0
   10.1529   41.0158  130.6130 C   0  0  0  0  0  0  0  0  0  0  0  0
   10.9969   40.2531  131.3642 C   0  0  0  0  0  0  0  0  0  0  0  0
   11.3518   38.6136  130.8953 Cl  0  0  0  0  0  0  0  0  0  0  0  0
   11.5897   40.7614  132.5120 C   0  0  0  0  0  0  0  0  0  0  0  0
   11.3201   42.0518  132.8943 C   0  0  0  0  0  0  0  0  0  0  0  0
    8.8083   49.8751  131.7499 S   0  0  0  0  0  0  0  0  0  0  0  0
    9.5814   51.1206  131.5554 O   0  0  0  0  0  0  0  0  0  0  0  0
    7.3115   50.1624  131.7718 O   0  0  0  0  0  0  0  0  0  0  0  0
    9.5489   47.0957  128.1841 C   0  0  0  0  0  0  0  0  0  0  0  0
   10.5613   47.4922  129.0341 C   0  0  0  0  0  0  0  0  0  0  0  0
   10.3401   48.3297  130.1073 C   0  0  0  0  0  0  0  0  0  0  0  0
    9.0774   48.8117  130.3775 C   0  0  0  0  0  0  0  0  0  0  0  0
    8.0525   48.4278  129.5411 C   0  0  0  0  0  0  0  0  0  0  0  0
    8.2944   47.5897  128.4734 C   0  0  0  0  0  0  0  0  0  0  0  0
   10.2713   44.9645  127.3768 C   0  0  0  0  0  0  0  0  0  0  0  0
    9.7534   46.2528  127.0982 O   0  0  0  0  0  0  0  0  0  0  0  0
 28 29  1  0  0  0
 29 22  1  0  0  0
 22 23  2  0  0  0
 23 24  1  0  0  0
 24 25  2  0  0  0
 25 26  1  0  0  0
 26 27  2  0  0  0
 25 19  1  0  0  0
 19 20  2  0  0  0
 19 21  2  0  0  0
 19  1  1  0  0  0
  1  2  1  0  0  0
  2  3  1  0  0  0
  3  4  1  0  0  0
  4  5  1  0  0  0
  5  6  1  0  0  0
  6  7  1  0  0  0
  4  8  1  0  0  0
  8  9  1  0  0  0
  9 10  2  0  0  0
  9 12  1  0  0  0
 12 13  2  0  0  0
 13 14  1  0  0  0
 14 15  2  0  0  0
 15 16  1  0  0  0
 15 17  1  0  0  0
 17 18  2  0  0  0
 27 22  1  0  0  0
  7  1  1  0  0  0
 18 12  1  0  0  0
  6  3  1  0  0  0
  8 11  1  0  0  0
M  END
> <minimizedAffinity>
13.17407

> <CNNscore>
0.4581260085

> <CNNaffinity>
7.4129152298

> <CNN_VS>
3.3960492611

> <CNNaffinity_variance>
2.7644217014

$$$$
[H]c1c([H])c(C(=O)N([H])[C@]2([H])C([H])([H])[C@]3([H])C([H])([H])N(S(=O)(=O)c4c([H])c([H])c(OC([H])([H])[H])c([H])c4[H])C([H])([H])[C@]32[H])c([H])c([H])c1Cl


 29 32  0  0  0  0  0  0  0  0999 V2000
    8.2897   49.1956  132.1304 N   0  0  0  0  0  0  0  0  0  0  0  0
    7.6306   47.9331  131.8365 C   0  0  0  0  0  0  0  0  0  0  0  0
    8.2439   47.5354  130.5838 C   0  0  0  0  0  0  0  0  0  0  0  0
    7.6350   47.1556  129.3373 C   0  0  0  0  0  0  0  0  0  0  0  0
    8.5960   48.2288  128.7484 C   0  0  0  0  0  0  0  0  0  0  0  0
    8.2400   48.9584  129.9263 C   0  0  0  0  0  0  0  0  0  0  0  0
    9.0753   49.5494  130.9558 C   0  0  0  0  0  0  0  0  0  0  0  0
    7.9848   45.8936  128.7522 N   0  0  0  0  0  0  0  0  0  0  0  0
    8.8994   45.0592  129.4253 C   0  0  0  0  0  0  0  0  0  0  0  0
    9.4154   45.4031  130.5357 O   0  0  0  0  0  0  0  0  0  0  0  0
    7.5659   45.6150  127.8595 H   0  0  0  0  0  0  0  0  0  0  0  0
    9.2673   43.7835  128.8542 C   0  0  0  0  0  0  0  0  0  0  0  0
    9.6210   43.6372  127.5409 C   0  0  0  0  0  0  0  0  0  0  0  0
    9.9608   42.3890  127.0361 C   0  0  0  0  0  0  0  0  0  0  0  0
    9.9393   41.3055  127.8632 C   0  0  0  0  0  0  0  0  0  0  0  0
   10.3614   39.7284  127.2563 Cl  0  0  0  0  0  0  0  0  0  0  0  0
    9.5835   41.4326  129.1991 C   0  0  0  0  0  0  0  0  0  0  0  0
    9.2485   42.6690  129.6922 C   0  0  0  0  0  0  0  0  0  0  0  0
    9.1398   49.2610  133.5799 S   0  0  0  0  0  0  0  0  0  0  0  0
    8.3301   49.6203  134.7639 O   0  0  0  0  0  0  0  0  0  0  0  0
   10.2840   50.2488  133.3837 O   0  0  0  0  0  0  0  0  0  0  0  0
   11.0687   45.1704  134.3119 C   0  0  0  0  0  0  0  0  0  0  0  0
    9.9360   45.5837  134.9835 C   0  0  0  0  0  0  0  0  0  0  0  0
    9.3548   46.8152  134.7649 C   0  0  0  0  0  0  0  0  0  0  0  0
    9.8918   47.6966  133.8515 C   0  0  0  0  0  0  0  0  0  0  0  0
   11.0225   47.3034  133.1701 C   0  0  0  0  0  0  0  0  0  0  0  0
   11.5884   46.0679  133.4030 C   0  0  0  0  0  0  0  0  0  0  0  0
   12.3029   43.3353  133.4040 C   0  0  0  0  0  0  0  0  0  0  0  0
   11.6677   43.9337  134.5193 O   0  0  0  0  0  0  0  0  0  0  0  0
 28 29  1  0  0  0
 29 22  1  0  0  0
 22 23  2  0  0  0
 23 24  1  0  0  0
 24 25  2  0  0  0
 25 26  1  0  0  0
 26 27  2  0  0  0
 25 19  1  0  0  0
 19 20  2  0  0  0
 19 21  2  0  0  0
 19  1  1  0  0  0
  1  2  1  0  0  0
  2  3  1  0  0  0
  3  4  1  0  0  0
  4  5  1  0  0  0
  5  6  1  0  0  0
  6  7  1  0  0  0
  4  8  1  0  0  0
  8  9  1  0  0  0
  9 10  2  0  0  0
  9 12  1  0  0  0
 12 13  2  0  0  0
 13 14  1  0  0  0
 14 15  2  0  0  0
 15 16  1  0  0  0
 15 17  1  0  0  0
 17 18  2  0  0  0
 27 22  1  0  0  0
  7  1  1  0  0  0
 18 12  1  0  0  0
  6  3  1  0  0  0
  8 11  1  0  0  0
M  END
> <minimizedAffinity>
9.03777

> <CNNscore>
0.4479970336

> <CNNaffinity>
7.5223388672

> <CNN_VS>
3.3699855804

> <CNNaffinity_variance>
2.6418681145

$$$$
[H]c1c([H])c(C(=O)N([H])[C@]2([H])C([H])([H])[C@]3([H])C([H])([H])N(S(=O)(=O)c4c([H])c([H])c(OC([H])([H])[H])c([H])c4[H])C([H])([H])[C@]32[H])c([H])c([H])c1Cl


 29 32  0  0  0  0  0  0  0  0999 V2000
    8.3024   48.8194  129.5753 N   0  0  0  0  0  0  0  0  0  0  0  0
    7.7254   47.4848  129.5956 C   0  0  0  0  0  0  0  0  0  0  0  0
    8.8797   46.6332  129.3806 C   0  0  0  0  0  0  0  0  0  0  0  0
    9.0912   45.5925  128.4106 C   0  0  0  0  0  0  0  0  0  0  0  0
   10.3991   46.3826  128.1148 C   0  0  0  0  0  0  0  0  0  0  0  0
    9.5535   47.5245  128.2811 C   0  0  0  0  0  0  0  0  0  0  0  0
    9.6892   48.6773  129.1525 C   0  0  0  0  0  0  0  0  0  0  0  0
    9.4687   44.2864  128.8679 N   0  0  0  0  0  0  0  0  0  0  0  0
    9.9878   44.1427  130.1700 C   0  0  0  0  0  0  0  0  0  0  0  0
   10.1251   45.1441  130.9418 O   0  0  0  0  0  0  0  0  0  0  0  0
    9.3542   43.4791  128.2472 H   0  0  0  0  0  0  0  0  0  0  0  0
   10.3755   42.8364  130.6518 C   0  0  0  0  0  0  0  0  0  0  0  0
    9.9929   41.6779  130.0332 C   0  0  0  0  0  0  0  0  0  0  0  0
   10.3856   40.4452  130.5375 C   0  0  0  0  0  0  0  0  0  0  0  0
   11.1591   40.3980  131.6590 C   0  0  0  0  0  0  0  0  0  0  0  0
   11.6663   38.8653  132.3127 Cl  0  0  0  0  0  0  0  0  0  0  0  0
   11.5584   41.5619  132.3018 C   0  0  0  0  0  0  0  0  0  0  0  0
   11.1670   42.7775  131.7985 C   0  0  0  0  0  0  0  0  0  0  0  0
    8.0922   49.7324  130.9718 S   0  0  0  0  0  0  0  0  0  0  0  0
    6.6973   50.1366  131.2504 O   0  0  0  0  0  0  0  0  0  0  0  0
    8.9975   50.9526  130.8495 O   0  0  0  0  0  0  0  0  0  0  0  0
    9.7183   47.3543  134.5341 C   0  0  0  0  0  0  0  0  0  0  0  0
   10.2948   48.5338  134.1085 C   0  0  0  0  0  0  0  0  0  0  0  0
    9.8071   49.2503  133.0356 C   0  0  0  0  0  0  0  0  0  0  0  0
    8.7058   48.8086  132.3345 C   0  0  0  0  0  0  0  0  0  0  0  0
    8.1151   47.6332  132.7432 C   0  0  0  0  0  0  0  0  0  0  0  0
    8.6180   46.9317  133.8182 C   0  0  0  0  0  0  0  0  0  0  0  0
   10.2461   45.2128  135.4563 C   0  0  0  0  0  0  0  0  0  0  0  0
   10.1962   46.6194  135.6125 O   0  0  0  0  0  0  0  0  0  0  0  0
 28 29  1  0  0  0
 29 22  1  0  0  0
 22 23  2  0  0  0
 23 24  1  0  0  0
 24 25  2  0  0  0
 25 26  1  0  0  0
 26 27  2  0  0  0
 25 19  1  0  0  0
 19 20  2  0  0  0
 19 21  2  0  0  0
 19  1  1  0  0  0
  1  2  1  0  0  0
  2  3  1  0  0  0
  3  4  1  0  0  0
  4  5  1  0  0  0
  5  6  1  0  0  0
  6  7  1  0  0  0
  4  8  1  0  0  0
  8  9  1  0  0  0
  9 10  2  0  0  0
  9 12  1  0  0  0
 12 13  2  0  0  0
 13 14  1  0  0  0
 14 15  2  0  0  0
 15 16  1  0  0  0
 15 17  1  0  0  0
 17 18  2  0  0  0
 27 22  1  0  0  0
  7  1  1  0  0  0
 18 12  1  0  0  0
  6  3  1  0  0  0
  8 11  1  0  0  0
M  END
> <minimizedAffinity>
10.42122

> <CNNscore>
0.4448742568

> <CNNaffinity>
7.2465262413

> <CNN_VS>
3.2237930298

> <CNNaffinity_variance>
1.6330381632

$$$$
[H]c1c([H])c(S(=O)(=O)N2C([H])([H])[C@@]3([H])C([H])([H])C([H])([H])[C@]2([H])C([H])([H])[C@]([H])(N([H])C(=O)c2c([H])c([H])c([H])c4c([H])c([H])c([H])c([H])c24)C3([H])[H])c([H])c([H])c1OC([H])([H])[H]


 34 38  0  0  0  0  0  0  0  0999 V2000
    8.0684   50.0446  130.4436 N   0  0  0  0  0  0  0  0  0  0  0  0
    9.2306   50.4691  129.7232 C   0  0  0  0  0  0  0  0  0  0  0  0
   10.2814   49.4142  130.1413 C   0  0  0  0  0  0  0  0  0  0  0  0
   10.6939   49.6392  131.5628 C   0  0  0  0  0  0  0  0  0  0  0  0
    9.5599   50.3647  132.2668 C   0  0  0  0  0  0  0  0  0  0  0  0
    8.2627   49.6906  131.7795 C   0  0  0  0  0  0  0  0  0  0  0  0
    8.4876   48.2225  132.0307 C   0  0  0  0  0  0  0  0  0  0  0  0
    8.8243   47.4349  130.8027 C   0  0  0  0  0  0  0  0  0  0  0  0
    9.6917   48.0960  129.8206 C   0  0  0  0  0  0  0  0  0  0  0  0
    9.5189   46.2294  131.2843 N   0  0  0  0  0  0  0  0  0  0  0  0
   10.3774   46.2193  132.3864 C   0  0  0  0  0  0  0  0  0  0  0  0
   10.5598   47.3408  132.9756 O   0  0  0  0  0  0  0  0  0  0  0  0
    9.3035   45.3812  130.6873 H   0  0  0  0  0  0  0  0  0  0  0  0
   11.0425   45.0269  132.8448 C   0  0  0  0  0  0  0  0  0  0  0  0
   11.9774   45.1666  133.8943 C   0  0  0  0  0  0  0  0  0  0  0  0
   12.7382   44.1099  134.3383 C   0  0  0  0  0  0  0  0  0  0  0  0
   12.5910   42.8796  133.7514 C   0  0  0  0  0  0  0  0  0  0  0  0
   11.6800   42.7117  132.7223 C   0  0  0  0  0  0  0  0  0  0  0  0
   11.5608   41.4465  132.2068 C   0  0  0  0  0  0  0  0  0  0  0  0
   10.6285   41.2364  131.2000 C   0  0  0  0  0  0  0  0  0  0  0  0
    9.8596   42.2765  130.7489 C   0  0  0  0  0  0  0  0  0  0  0  0
    9.9863   43.5538  131.2725 C   0  0  0  0  0  0  0  0  0  0  0  0
   10.9177   43.7978  132.2873 C   0  0  0  0  0  0  0  0  0  0  0  0
    6.5884   50.3383  129.7904 S   0  0  0  0  0  0  0  0  0  0  0  0
    6.7753   50.9537  128.4086 O   0  0  0  0  0  0  0  0  0  0  0  0
    5.8873   51.4333  130.5874 O   0  0  0  0  0  0  0  0  0  0  0  0
    3.7598   46.8086  129.5182 C   0  0  0  0  0  0  0  0  0  0  0  0
    5.1256   46.6403  129.4682 C   0  0  0  0  0  0  0  0  0  0  0  0
    5.9876   47.7303  129.5465 C   0  0  0  0  0  0  0  0  0  0  0  0
    5.4879   49.0045  129.6762 C   0  0  0  0  0  0  0  0  0  0  0  0
    4.1307   49.1821  129.7267 C   0  0  0  0  0  0  0  0  0  0  0  0
    3.2734   48.1015  129.6492 C   0  0  0  0  0  0  0  0  0  0  0  0
    1.6645   45.8100  130.1469 C   0  0  0  0  0  0  0  0  0  0  0  0
    2.8882   45.7405  129.4438 O   0  0  0  0  0  0  0  0  0  0  0  0
 33 34  1  0  0  0
 34 27  1  0  0  0
 27 28  2  0  0  0
 28 29  1  0  0  0
 29 30  2  0  0  0
 30 31  1  0  0  0
 31 32  2  0  0  0
 30 24  1  0  0  0
 24 25  2  0  0  0
 24 26  2  0  0  0
 24  1  1  0  0  0
  1  2  1  0  0  0
  2  3  1  0  0  0
  3  4  1  0  0  0
  4  5  1  0  0  0
  5  6  1  0  0  0
  6  7  1  0  0  0
  7  8  1  0  0  0
  8  9  1  0  0  0
  8 10  1  0  0  0
 10 11  1  0  0  0
 11 12  2  0  0  0
 11 14  1  0  0  0
 14 15  2  0  0  0
 15 16  1  0  0  0
 16 17  2  0  0  0
 17 18  1  0  0  0
 18 19  2  0  0  0
 19 20  1  0  0  0
 20 21  2  0  0  0
 21 22  1  0  0  0
 22 23  2  0  0  0
 32 27  1  0  0  0
  6  1  1  0  0  0
 23 14  1  0  0  0
  9  3  1  0  0  0
 23 18  1  0  0  0
 10 13  1  0  0  0
M  END
> <minimizedAffinity>
11.84919

> <CNNscore>
0.5562075973

> <CNNaffinity>
7.7614846230

> <CNN_VS>
4.3169965744

> <CNNaffinity_variance>
1.6589987278

$$$$
[H]c1c([H])c(S(=O)(=O)N2C([H])([H])[C@@]3([H])C([H])([H])C([H])([H])[C@]2([H])C([H])([H])[C@]([H])(N([H])C(=O)c2c([H])c([H])c([H])c4c([H])c([H])c([H])c([H])c24)C3([H])[H])c([H])c([H])c1OC([H])([H])[H]


 34 38  0  0  0  0  0  0  0  0999 V2000
    9.2645   49.4424  132.0340 N   0  0  0  0  0  0  0  0  0  0  0  0
    7.9426   49.6483  131.5239 C   0  0  0  0  0  0  0  0  0  0  0  0
    7.7009   48.3592  130.7044 C   0  0  0  0  0  0  0  0  0  0  0  0
    8.5266   48.3851  129.4557 C   0  0  0  0  0  0  0  0  0  0  0  0
    9.7191   49.2923  129.7055 C   0  0  0  0  0  0  0  0  0  0  0  0
   10.2099   48.9598  131.1279 C   0  0  0  0  0  0  0  0  0  0  0  0
   10.3904   47.4645  131.1207 C   0  0  0  0  0  0  0  0  0  0  0  0
    9.2950   46.7113  131.8095 C   0  0  0  0  0  0  0  0  0  0  0  0
    7.9341   47.2313  131.6327 C   0  0  0  0  0  0  0  0  0  0  0  0
    9.3382   45.3503  131.2493 N   0  0  0  0  0  0  0  0  0  0  0  0
   10.1640   44.3367  131.7417 C   0  0  0  0  0  0  0  0  0  0  0  0
   10.9236   44.6485  132.7235 O   0  0  0  0  0  0  0  0  0  0  0  0
    8.6847   45.2396  130.4230 H   0  0  0  0  0  0  0  0  0  0  0  0
   10.1862   43.0096  131.1825 C   0  0  0  0  0  0  0  0  0  0  0  0
   10.4909   41.9416  132.0550 C   0  0  0  0  0  0  0  0  0  0  0  0
   10.6352   40.6500  131.6037 C   0  0  0  0  0  0  0  0  0  0  0  0
   10.4794   40.3811  130.2684 C   0  0  0  0  0  0  0  0  0  0  0  0
   10.1774   41.4075  129.3895 C   0  0  0  0  0  0  0  0  0  0  0  0
   10.0011   41.0595  128.0748 C   0  0  0  0  0  0  0  0  0  0  0  0
    9.6597   42.0593  127.1744 C   0  0  0  0  0  0  0  0  0  0  0  0
    9.5078   43.3501  127.6075 C   0  0  0  0  0  0  0  0  0  0  0  0
    9.6895   43.6960  128.9375 C   0  0  0  0  0  0  0  0  0  0  0  0
   10.0352   42.7113  129.8690 C   0  0  0  0  0  0  0  0  0  0  0  0
    9.6576   50.1034  133.4872 S   0  0  0  0  0  0  0  0  0  0  0  0
    8.4436   50.0265  134.4056 O   0  0  0  0  0  0  0  0  0  0  0  0
    9.8956   51.6004  133.3190 O   0  0  0  0  0  0  0  0  0  0  0  0
   13.2623   48.3521  135.6020 C   0  0  0  0  0  0  0  0  0  0  0  0
   12.3066   47.5464  135.0244 C   0  0  0  0  0  0  0  0  0  0  0  0
   11.1991   48.0921  134.3818 C   0  0  0  0  0  0  0  0  0  0  0  0
   11.0376   49.4556  134.3112 C   0  0  0  0  0  0  0  0  0  0  0  0
   11.9829   50.2653  134.8829 C   0  0  0  0  0  0  0  0  0  0  0  0
   13.0829   49.7257  135.5211 C   0  0  0  0  0  0  0  0  0  0  0  0
   14.8432   48.4689  137.4103 C   0  0  0  0  0  0  0  0  0  0  0  0
   14.3686   47.8304  136.2425 O   0  0  0  0  0  0  0  0  0  0  0  0
 33 34  1  0  0  0
 34 27  1  0  0  0
 27 28  2  0  0  0
 28 29  1  0  0  0
 29 30  2  0  0  0
 30 31  1  0  0  0
 31 32  2  0  0  0
 30 24  1  0  0  0
 24 25  2  0  0  0
 24 26  2  0  0  0
 24  1  1  0  0  0
  1  2  1  0  0  0
  2  3  1  0  0  0
  3  4  1  0  0  0
  4  5  1  0  0  0
  5  6  1  0  0  0
  6  7  1  0  0  0
  7  8  1  0  0  0
  8  9  1  0  0  0
  8 10  1  0  0  0
 10 11  1  0  0  0
 11 12  2  0  0  0
 11 14  1  0  0  0
 14 15  2  0  0  0
 15 16  1  0  0  0
 16 17  2  0  0  0
 17 18  1  0  0  0
 18 19  2  0  0  0
 19 20  1  0  0  0
 20 21  2  0  0  0
 21 22  1  0  0  0
 22 23  2  0  0  0
 32 27  1  0  0  0
  6  1  1  0  0  0
 23 14  1  0  0  0
  9  3  1  0  0  0
 23 18  1  0  0  0
 10 13  1  0  0  0
M  END
> <minimizedAffinity>
31.58926

> <CNNscore>
0.5506640673

> <CNNaffinity>
7.4680643082

> <CNN_VS>
4.1123948097

> <CNNaffinity_variance>
2.5800521374

$$$$
[H]c1c([H])c(S(=O)(=O)N2C([H])([H])[C@@]3([H])C([H])([H])C([H])([H])[C@]2([H])C([H])([H])[C@]([H])(N([H])C(=O)c2c([H])c([H])c([H])c4c([H])c([H])c([H])c([H])c24)C3([H])[H])c([H])c([H])c1OC([H])([H])[H]


 34 38  0  0  0  0  0  0  0  0999 V2000
    8.0527   50.0413  130.4941 N   0  0  0  0  0  0  0  0  0  0  0  0
    9.2294   50.5710  129.8740 C   0  0  0  0  0  0  0  0  0  0  0  0
   10.3048   49.5301  130.2641 C   0  0  0  0  0  0  0  0  0  0  0  0
   10.6334   49.6557  131.7193 C   0  0  0  0  0  0  0  0  0  0  0  0
    9.4330   50.2737  132.4156 C   0  0  0  0  0  0  0  0  0  0  0  0
    8.1946   49.5881  131.8065 C   0  0  0  0  0  0  0  0  0  0  0  0
    8.4734   48.1151  131.9527 C   0  0  0  0  0  0  0  0  0  0  0  0
    8.9081   47.4447  130.6864 C   0  0  0  0  0  0  0  0  0  0  0  0
    9.7933   48.2190  129.8085 C   0  0  0  0  0  0  0  0  0  0  0  0
    9.6317   46.2339  131.1084 N   0  0  0  0  0  0  0  0  0  0  0  0
    9.3279   44.9506  130.6472 C   0  0  0  0  0  0  0  0  0  0  0  0
    8.3501   44.8578  129.8265 O   0  0  0  0  0  0  0  0  0  0  0  0
   10.3933   46.4509  131.8120 H   0  0  0  0  0  0  0  0  0  0  0  0
   10.0528   43.7796  131.0684 C   0  0  0  0  0  0  0  0  0  0  0  0
    9.7175   42.5521  130.4556 C   0  0  0  0  0  0  0  0  0  0  0  0
   10.2786   41.3609  130.8545 C   0  0  0  0  0  0  0  0  0  0  0  0
   11.1926   41.3549  131.8763 C   0  0  0  0  0  0  0  0  0  0  0  0
   11.5432   42.5435  132.4940 C   0  0  0  0  0  0  0  0  0  0  0  0
   12.4892   42.4664  133.4839 C   0  0  0  0  0  0  0  0  0  0  0  0
   12.8909   43.6452  134.0970 C   0  0  0  0  0  0  0  0  0  0  0  0
   12.3457   44.8406  133.7092 C   0  0  0  0  0  0  0  0  0  0  0  0
   11.3881   44.9119  132.7094 C   0  0  0  0  0  0  0  0  0  0  0  0
   10.9617   43.7412  132.0732 C   0  0  0  0  0  0  0  0  0  0  0  0
    6.5960   50.3253  129.7865 S   0  0  0  0  0  0  0  0  0  0  0  0
    6.8307   50.9046  128.3963 O   0  0  0  0  0  0  0  0  0  0  0  0
    5.8759   51.4435  130.5327 O   0  0  0  0  0  0  0  0  0  0  0  0
    3.7595   46.8025  129.5085 C   0  0  0  0  0  0  0  0  0  0  0  0
    5.1243   46.6332  129.4396 C   0  0  0  0  0  0  0  0  0  0  0  0
    5.9887   47.7211  129.5198 C   0  0  0  0  0  0  0  0  0  0  0  0
    5.4924   48.9944  129.6704 C   0  0  0  0  0  0  0  0  0  0  0  0
    4.1362   49.1730  129.7399 C   0  0  0  0  0  0  0  0  0  0  0  0
    3.2765   48.0945  129.6605 C   0  0  0  0  0  0  0  0  0  0  0  0
    1.6829   45.7879  130.1725 C   0  0  0  0  0  0  0  0  0  0  0  0
    2.8855   45.7364  129.4325 O   0  0  0  0  0  0  0  0  0  0  0  0
 33 34  1  0  0  0
 34 27  1  0  0  0
 27 28  2  0  0  0
 28 29  1  0  0  0
 29 30  2  0  0  0
 30 31  1  0  0  0
 31 32  2  0  0  0
 30 24  1  0  0  0
 24 25  2  0  0  0
 24 26  2  0  0  0
 24  1  1  0  0  0
  1  2  1  0  0  0
  2  3  1  0  0  0
  3  4  1  0  0  0
  4  5  1  0  0  0
  5  6  1  0  0  0
  6  7  1  0  0  0
  7  8  1  0  0  0
  8  9  1  0  0  0
  8 10  1  0  0  0
 10 11  1  0  0  0
 11 12  2  0  0  0
 11 14  1  0  0  0
 14 15  2  0  0  0
 15 16  1  0  0  0
 16 17  2  0  0  0
 17 18  1  0  0  0
 18 19  2  0  0  0
 19 20  1  0  0  0
 20 21  2  0  0  0
 21 22  1  0  0  0
 22 23  2  0  0  0
 32 27  1  0  0  0
  6  1  1  0  0  0
 23 14  1  0  0  0
  9  3  1  0  0  0
 23 18  1  0  0  0
 10 13  1  0  0  0
M  END
> <minimizedAffinity>
12.48225

> <CNNscore>
0.5443551540

> <CNNaffinity>
7.6986169815

> <CNN_VS>
4.1907820702

> <CNNaffinity_variance>
1.3490318060

$$$$
[H]c1c([H])c(S(=O)(=O)N2C([H])([H])[C@@]3([H])C([H])([H])C([H])([H])[C@]2([H])C([H])([H])[C@]([H])(N([H])C(=O)c2c([H])c([H])c([H])c4c([H])c([H])c([H])c([H])c24)C3([H])[H])c([H])c([H])c1OC([H])([H])[H]


 34 38  0  0  0  0  0  0  0  0999 V2000
    7.9819   48.0754  130.3898 N   0  0  0  0  0  0  0  0  0  0  0  0
    8.5544   49.0863  129.5530 C   0  0  0  0  0  0  0  0  0  0  0  0
    9.7609   49.5658  130.3934 C   0  0  0  0  0  0  0  0  0  0  0  0
    9.2820   50.3635  131.5663 C   0  0  0  0  0  0  0  0  0  0  0  0
    7.8611   49.9254  131.8778 C   0  0  0  0  0  0  0  0  0  0  0  0
    7.8555   48.3903  131.7435 C   0  0  0  0  0  0  0  0  0  0  0  0
    8.9927   47.9345  132.6197 C   0  0  0  0  0  0  0  0  0  0  0  0
   10.2275   47.5445  131.8683 C   0  0  0  0  0  0  0  0  0  0  0  0
   10.5605   48.3577  130.6927 C   0  0  0  0  0  0  0  0  0  0  0  0
   11.3328   47.6665  132.8334 N   0  0  0  0  0  0  0  0  0  0  0  0
   11.9103   46.5770  133.4901 C   0  0  0  0  0  0  0  0  0  0  0  0
   11.4154   45.4265  133.2268 O   0  0  0  0  0  0  0  0  0  0  0  0
   11.6224   48.6747  132.9807 H   0  0  0  0  0  0  0  0  0  0  0  0
   12.9955   46.7180  134.4266 C   0  0  0  0  0  0  0  0  0  0  0  0
   13.9112   45.6474  134.5264 C   0  0  0  0  0  0  0  0  0  0  0  0
   14.9236   45.6384  135.4580 C   0  0  0  0  0  0  0  0  0  0  0  0
   15.0566   46.6968  136.3192 C   0  0  0  0  0  0  0  0  0  0  0  0
   14.1754   47.7621  136.2429 C   0  0  0  0  0  0  0  0  0  0  0  0
   14.3902   48.8012  137.1118 C   0  0  0  0  0  0  0  0  0  0  0  0
   13.5476   49.9018  137.0350 C   0  0  0  0  0  0  0  0  0  0  0  0
   12.5370   49.9291  136.1105 C   0  0  0  0  0  0  0  0  0  0  0  0
   12.3237   48.8746  135.2364 C   0  0  0  0  0  0  0  0  0  0  0  0
   13.1551   47.7508  135.2897 C   0  0  0  0  0  0  0  0  0  0  0  0
    7.2081   46.8115  129.6777 S   0  0  0  0  0  0  0  0  0  0  0  0
    7.0252   47.1200  128.1963 O   0  0  0  0  0  0  0  0  0  0  0  0
    5.7825   46.7200  130.2117 O   0  0  0  0  0  0  0  0  0  0  0  0
    9.1168   42.7211  130.0761 C   0  0  0  0  0  0  0  0  0  0  0  0
    9.1744   43.4289  128.8964 C   0  0  0  0  0  0  0  0  0  0  0  0
    8.5805   44.6823  128.7803 C   0  0  0  0  0  0  0  0  0  0  0  0
    7.9203   45.2410  129.8491 C   0  0  0  0  0  0  0  0  0  0  0  0
    7.8574   44.5445  131.0268 C   0  0  0  0  0  0  0  0  0  0  0  0
    8.4464   43.3004  131.1441 C   0  0  0  0  0  0  0  0  0  0  0  0
   10.6389   41.2755  131.2492 C   0  0  0  0  0  0  0  0  0  0  0  0
    9.7007   41.4774  130.2121 O   0  0  0  0  0  0  0  0  0  0  0  0
 33 34  1  0  0  0
 34 27  1  0  0  0
 27 28  2  0  0  0
 28 29  1  0  0  0
 29 30  2  0  0  0
 30 31  1  0  0  0
 31 32  2  0  0  0
 30 24  1  0  0  0
 24 25  2  0  0  0
 24 26  2  0  0  0
 24  1  1  0  0  0
  1  2  1  0  0  0
  2  3  1  0  0  0
  3  4  1  0  0  0
  4  5  1  0  0  0
  5  6  1  0  0  0
  6  7  1  0  0  0
  7  8  1  0  0  0
  8  9  1  0  0  0
  8 10  1  0  0  0
 10 11  1  0  0  0
 11 12  2  0  0  0
 11 14  1  0  0  0
 14 15  2  0  0  0
 15 16  1  0  0  0
 16 17  2  0  0  0
 17 18  1  0  0  0
 18 19  2  0  0  0
 19 20  1  0  0  0
 20 21  2  0  0  0
 21 22  1  0  0  0
 22 23  2  0  0  0
 32 27  1  0  0  0
  6  1  1  0  0  0
 23 14  1  0  0  0
  9  3  1  0  0  0
 23 18  1  0  0  0
 10 13  1  0  0  0
M  END
> <minimizedAffinity>
24.75508

> <CNNscore>
0.5165917873

> <CNNaffinity>
7.2432847023

> <CNN_VS>
3.7418212891

> <CNNaffinity_variance>
1.0399490595

$$$$
[H]c1c([H])c(S(=O)(=O)N2C([H])([H])[C@@]3([H])C([H])([H])C([H])([H])[C@]2([H])C([H])([H])[C@]([H])(N([H])C(=O)c2c([H])c([H])c([H])c4c([H])c([H])c([H])c([H])c24)C3([H])[H])c([H])c([H])c1OC([H])([H])[H]


 34 38  0  0  0  0  0  0  0  0999 V2000
    9.5508   45.9436  130.1076 N   0  0  0  0  0  0  0  0  0  0  0  0
    8.9585   46.8428  129.1640 C   0  0  0  0  0  0  0  0  0  0  0  0
    9.2223   46.1287  127.8177 C   0  0  0  0  0  0  0  0  0  0  0  0
   10.6751   46.2187  127.4675 C   0  0  0  0  0  0  0  0  0  0  0  0
   11.4544   46.4003  128.7588 C   0  0  0  0  0  0  0  0  0  0  0  0
   10.8099   45.4401  129.7774 C   0  0  0  0  0  0  0  0  0  0  0  0
   10.8071   44.1043  129.0816 C   0  0  0  0  0  0  0  0  0  0  0  0
    9.4728   43.6998  128.5361 C   0  0  0  0  0  0  0  0  0  0  0  0
    8.6540   44.7698  127.9541 C   0  0  0  0  0  0  0  0  0  0  0  0
    9.7598   42.7191  127.4761 N   0  0  0  0  0  0  0  0  0  0  0  0
    9.9802   41.3609  127.7176 C   0  0  0  0  0  0  0  0  0  0  0  0
    9.9394   40.9867  128.9409 O   0  0  0  0  0  0  0  0  0  0  0  0
    9.7957   43.1687  126.5176 H   0  0  0  0  0  0  0  0  0  0  0  0
   10.2536   40.4168  126.6648 C   0  0  0  0  0  0  0  0  0  0  0  0
    9.2506   39.4685  126.3655 C   0  0  0  0  0  0  0  0  0  0  0  0
    9.4488   38.4626  125.4480 C   0  0  0  0  0  0  0  0  0  0  0  0
   10.6526   38.3702  124.7986 C   0  0  0  0  0  0  0  0  0  0  0  0
   11.6538   39.2876  125.0693 C   0  0  0  0  0  0  0  0  0  0  0  0
   12.8182   39.1552  124.3570 C   0  0  0  0  0  0  0  0  0  0  0  0
   13.8277   40.0823  124.5770 C   0  0  0  0  0  0  0  0  0  0  0  0
   13.6455   41.0928  125.4839 C   0  0  0  0  0  0  0  0  0  0  0  0
   12.4669   41.2200  126.2025 C   0  0  0  0  0  0  0  0  0  0  0  0
   11.4313   40.3008  126.0041 C   0  0  0  0  0  0  0  0  0  0  0  0
    8.9066   45.8531  131.6177 S   0  0  0  0  0  0  0  0  0  0  0  0
    7.5497   45.1643  131.5316 O   0  0  0  0  0  0  0  0  0  0  0  0
    8.5747   47.2558  132.1156 O   0  0  0  0  0  0  0  0  0  0  0  0
   11.4528   43.8661  134.7961 C   0  0  0  0  0  0  0  0  0  0  0  0
   11.9004   44.0074  133.5016 C   0  0  0  0  0  0  0  0  0  0  0  0
   11.1098   44.6136  132.5296 C   0  0  0  0  0  0  0  0  0  0  0  0
    9.8581   45.0861  132.8463 C   0  0  0  0  0  0  0  0  0  0  0  0
    9.4039   44.9500  134.1313 C   0  0  0  0  0  0  0  0  0  0  0  0
   10.1871   44.3487  135.0975 C   0  0  0  0  0  0  0  0  0  0  0  0
   11.7052   43.1797  137.0869 C   0  0  0  0  0  0  0  0  0  0  0  0
   12.2222   43.2693  135.7749 O   0  0  0  0  0  0  0  0  0  0  0  0
 33 34  1  0  0  0
 34 27  1  0  0  0
 27 28  2  0  0  0
 28 29  1  0  0  0
 29 30  2  0  0  0
 30 31  1  0  0  0
 31 32  2  0  0  0
 30 24  1  0  0  0
 24 25  2  0  0  0
 24 26  2  0  0  0
 24  1  1  0  0  0
  1  2  1  0  0  0
  2  3  1  0  0  0
  3  4  1  0  0  0
  4  5  1  0  0  0
  5  6  1  0  0  0
  6  7  1  0  0  0
  7  8  1  0  0  0
  8  9  1  0  0  0
  8 10  1  0  0  0
 10 11  1  0  0  0
 11 12  2  0  0  0
 11 14  1  0  0  0
 14 15  2  0  0  0
 15 16  1  0  0  0
 16 17  2  0  0  0
 17 18  1  0  0  0
 18 19  2  0  0  0
 19 20  1  0  0  0
 20 21  2  0  0  0
 21 22  1  0  0  0
 22 23  2  0  0  0
 32 27  1  0  0  0
  6  1  1  0  0  0
 23 14  1  0  0  0
  9  3  1  0  0  0
 23 18  1  0  0  0
 10 13  1  0  0  0
M  END
> <minimizedAffinity>
33.45902

> <CNNscore>
0.5118900537

> <CNNaffinity>
7.0559372902

> <CNN_VS>
3.6118640900

> <CNNaffinity_variance>
0.6864488721

$$$$
[H]c1c([H])c(S(=O)(=O)N2C([H])([H])[C@@]3([H])C([H])([H])C([H])([H])[C@]2([H])C([H])([H])[C@]([H])(N([H])C(=O)c2c([H])c([H])c([H])c4c([H])c([H])c([H])c([H])c24)C3([H])[H])c([H])c([H])c1OC([H])([H])[H]


 34 38  0  0  0  0  0  0  0  0999 V2000
    9.9486   45.2227  128.0960 N   0  0  0  0  0  0  0  0  0  0  0  0
    8.9539   44.2246  127.8425 C   0  0  0  0  0  0  0  0  0  0  0  0
    8.9387   43.4298  129.1691 C   0  0  0  0  0  0  0  0  0  0  0  0
   10.1847   42.6082  129.2869 C   0  0  0  0  0  0  0  0  0  0  0  0
   11.2602   43.2706  128.4429 C   0  0  0  0  0  0  0  0  0  0  0  0
   11.1262   44.7836  128.7028 C   0  0  0  0  0  0  0  0  0  0  0  0
   11.1632   44.9095  130.2033 C   0  0  0  0  0  0  0  0  0  0  0  0
    9.8244   45.1407  130.8325 C   0  0  0  0  0  0  0  0  0  0  0  0
    8.6915   44.4202  130.2398 C   0  0  0  0  0  0  0  0  0  0  0  0
    9.9630   44.6993  132.2302 N   0  0  0  0  0  0  0  0  0  0  0  0
   11.0242   45.0734  133.0583 C   0  0  0  0  0  0  0  0  0  0  0  0
   11.9152   45.8285  132.5349 O   0  0  0  0  0  0  0  0  0  0  0  0
    9.1753   44.0545  132.5235 H   0  0  0  0  0  0  0  0  0  0  0  0
   11.1374   44.6350  134.4255 C   0  0  0  0  0  0  0  0  0  0  0  0
   11.8677   43.4510  134.6701 C   0  0  0  0  0  0  0  0  0  0  0  0
   11.9525   42.8928  135.9247 C   0  0  0  0  0  0  0  0  0  0  0  0
   11.3133   43.4973  136.9761 C   0  0  0  0  0  0  0  0  0  0  0  0
   10.5922   44.6608  136.7672 C   0  0  0  0  0  0  0  0  0  0  0  0
   10.0087   45.2292  137.8705 C   0  0  0  0  0  0  0  0  0  0  0  0
    9.3108   46.4172  137.7015 C   0  0  0  0  0  0  0  0  0  0  0  0
    9.2199   46.9889  136.4599 C   0  0  0  0  0  0  0  0  0  0  0  0
    9.8102   46.4084  135.3481 C   0  0  0  0  0  0  0  0  0  0  0  0
   10.5193   45.2104  135.4856 C   0  0  0  0  0  0  0  0  0  0  0  0
    9.8003   46.6847  127.3585 S   0  0  0  0  0  0  0  0  0  0  0  0
    9.3727   46.4636  125.9124 O   0  0  0  0  0  0  0  0  0  0  0  0
   11.1735   47.3373  127.2389 O   0  0  0  0  0  0  0  0  0  0  0  0
    7.0956   49.7557  129.3047 C   0  0  0  0  0  0  0  0  0  0  0  0
    8.3578   49.4987  129.7915 C   0  0  0  0  0  0  0  0  0  0  0  0
    9.1803   48.5495  129.1916 C   0  0  0  0  0  0  0  0  0  0  0  0
    8.7446   47.8457  128.0938 C   0  0  0  0  0  0  0  0  0  0  0  0
    7.4905   48.0942  127.6023 C   0  0  0  0  0  0  0  0  0  0  0  0
    6.6727   49.0360  128.1963 C   0  0  0  0  0  0  0  0  0  0  0  0
    4.9258   50.3396  130.1611 C   0  0  0  0  0  0  0  0  0  0  0  0
    6.2653   50.6941  129.8844 O   0  0  0  0  0  0  0  0  0  0  0  0
 33 34  1  0  0  0
 34 27  1  0  0  0
 27 28  2  0  0  0
 28 29  1  0  0  0
 29 30  2  0  0  0
 30 31  1  0  0  0
 31 32  2  0  0  0
 30 24  1  0  0  0
 24 25  2  0  0  0
 24 26  2  0  0  0
 24  1  1  0  0  0
  1  2  1  0  0  0
  2  3  1  0  0  0
  3  4  1  0  0  0
  4  5  1  0  0  0
  5  6  1  0  0  0
  6  7  1  0  0  0
  7  8  1  0  0  0
  8  9  1  0  0  0
  8 10  1  0  0  0
 10 11  1  0  0  0
 11 12  2  0  0  0
 11 14  1  0  0  0
 14 15  2  0  0  0
 15 16  1  0  0  0
 16 17  2  0  0  0
 17 18  1  0  0  0
 18 19  2  0  0  0
 19 20  1  0  0  0
 20 21  2  0  0  0
 21 22  1  0  0  0
 22 23  2  0  0  0
 32 27  1  0  0  0
  6  1  1  0  0  0
 23 14  1  0  0  0
  9  3  1  0  0  0
 23 18  1  0  0  0
 10 13  1  0  0  0
M  END
> <minimizedAffinity>
24.41896

> <CNNscore>
0.4863369465

> <CNNaffinity>
7.7560935020

> <CNN_VS>
3.7720749378

> <CNNaffinity_variance>
3.4475600719

$$$$
[H]c1c([H])c(S(=O)(=O)N2C([H])([H])[C@@]3([H])C([H])([H])C([H])([H])[C@]2([H])C([H])([H])[C@]([H])(N([H])C(=O)c2c([H])c([H])c([H])c4c([H])c([H])c([H])c([H])c24)C3([H])[H])c([H])c([H])c1OC([H])([H])[H]


 34 38  0  0  0  0  0  0  0  0999 V2000
    9.9487   42.9069  129.3312 N   0  0  0  0  0  0  0  0  0  0  0  0
   11.1649   43.0989  128.6006 C   0  0  0  0  0  0  0  0  0  0  0  0
   11.0854   44.5945  128.2151 C   0  0  0  0  0  0  0  0  0  0  0  0
   10.0475   44.7946  127.1548 C   0  0  0  0  0  0  0  0  0  0  0  0
    9.0455   43.6580  127.2645 C   0  0  0  0  0  0  0  0  0  0  0  0
    8.7962   43.4613  128.7724 C   0  0  0  0  0  0  0  0  0  0  0  0
    8.4340   44.8348  129.2734 C   0  0  0  0  0  0  0  0  0  0  0  0
    9.5384   45.5312  130.0061 C   0  0  0  0  0  0  0  0  0  0  0  0
   10.8948   45.3365  129.4806 C   0  0  0  0  0  0  0  0  0  0  0  0
    9.2218   46.9669  129.9268 N   0  0  0  0  0  0  0  0  0  0  0  0
    7.9385   47.4876  130.1109 C   0  0  0  0  0  0  0  0  0  0  0  0
    7.0084   46.6395  130.3430 O   0  0  0  0  0  0  0  0  0  0  0  0
   10.0758   47.5503  129.6978 H   0  0  0  0  0  0  0  0  0  0  0  0
    7.6515   48.8969  130.0350 C   0  0  0  0  0  0  0  0  0  0  0  0
    6.8077   49.3331  128.9898 C   0  0  0  0  0  0  0  0  0  0  0  0
    6.5507   50.6664  128.7686 C   0  0  0  0  0  0  0  0  0  0  0  0
    7.1255   51.6079  129.5827 C   0  0  0  0  0  0  0  0  0  0  0  0
    7.9548   51.2099  130.6176 C   0  0  0  0  0  0  0  0  0  0  0  0
    8.4662   52.2035  131.4126 C   0  0  0  0  0  0  0  0  0  0  0  0
    9.2705   51.8352  132.4824 C   0  0  0  0  0  0  0  0  0  0  0  0
    9.5332   50.5119  132.7197 C   0  0  0  0  0  0  0  0  0  0  0  0
    9.0151   49.5122  131.9111 C   0  0  0  0  0  0  0  0  0  0  0  0
    8.2020   49.8513  130.8244 C   0  0  0  0  0  0  0  0  0  0  0  0
    9.9232   41.7859  130.5338 S   0  0  0  0  0  0  0  0  0  0  0  0
   10.8388   40.6305  130.1468 O   0  0  0  0  0  0  0  0  0  0  0  0
    8.5398   41.1484  130.6075 O   0  0  0  0  0  0  0  0  0  0  0  0
   10.9302   43.1390  134.7396 C   0  0  0  0  0  0  0  0  0  0  0  0
    9.7069   42.5839  134.4370 C   0  0  0  0  0  0  0  0  0  0  0  0
    9.4031   42.1762  133.1413 C   0  0  0  0  0  0  0  0  0  0  0  0
   10.3255   42.3213  132.1321 C   0  0  0  0  0  0  0  0  0  0  0  0
   11.5451   42.8725  132.4232 C   0  0  0  0  0  0  0  0  0  0  0  0
   11.8486   43.2777  133.7086 C   0  0  0  0  0  0  0  0  0  0  0  0
   10.6835   44.7435  136.5137 C   0  0  0  0  0  0  0  0  0  0  0  0
   11.2514   43.5482  136.0185 O   0  0  0  0  0  0  0  0  0  0  0  0
 33 34  1  0  0  0
 34 27  1  0  0  0
 27 28  2  0  0  0
 28 29  1  0  0  0
 29 30  2  0  0  0
 30 31  1  0  0  0
 31 32  2  0  0  0
 30 24  1  0  0  0
 24 25  2  0  0  0
 24 26  2  0  0  0
 24  1  1  0  0  0
  1  2  1  0  0  0
  2  3  1  0  0  0
  3  4  1  0  0  0
  4  5  1  0  0  0
  5  6  1  0  0  0
  6  7  1  0  0  0
  7  8  1  0  0  0
  8  9  1  0  0  0
  8 10  1  0  0  0
 10 11  1  0  0  0
 11 12  2  0  0  0
 11 14  1  0  0  0
 14 15  2  0  0  0
 15 16  1  0  0  0
 16 17  2  0  0  0
 17 18  1  0  0  0
 18 19  2  0  0  0
 19 20  1  0  0  0
 20 21  2  0  0  0
 21 22  1  0  0  0
 22 23  2  0  0  0
 32 27  1  0  0  0
  6  1  1  0  0  0
 23 14  1  0  0  0
  9  3  1  0  0  0
 23 18  1  0  0  0
 10 13  1  0  0  0
M  END
> <minimizedAffinity>
15.96623

> <CNNscore>
0.4805822074

> <CNNaffinity>
7.5289816856

> <CNN_VS>
3.6182947159

> <CNNaffinity_variance>
1.8980842829

$$$$
[H]c1c([H])c(S(=O)(=O)N2C([H])([H])[C@@]3([H])C([H])([H])C([H])([H])[C@]2([H])C([H])([H])[C@]([H])(N([H])C(=O)c2c([H])c([H])c([H])c4c([H])c([H])c([H])c([H])c24)C3([H])[H])c([H])c([H])c1OC([H])([H])[H]


 34 38  0  0  0  0  0  0  0  0999 V2000
    7.9823   50.1718  130.6745 N   0  0  0  0  0  0  0  0  0  0  0  0
    9.2569   50.7801  130.4393 C   0  0  0  0  0  0  0  0  0  0  0  0
   10.2371   49.7057  130.9651 C   0  0  0  0  0  0  0  0  0  0  0  0
   10.1851   49.6542  132.4604 C   0  0  0  0  0  0  0  0  0  0  0  0
    8.8266   50.1755  132.8967 C   0  0  0  0  0  0  0  0  0  0  0  0
    7.8067   49.5624  131.9177 C   0  0  0  0  0  0  0  0  0  0  0  0
    8.0935   48.0843  131.9567 C   0  0  0  0  0  0  0  0  0  0  0  0
    8.8563   47.5762  130.7728 C   0  0  0  0  0  0  0  0  0  0  0  0
    9.9047   48.4571  130.2447 C   0  0  0  0  0  0  0  0  0  0  0  0
    9.4946   46.3271  131.2201 N   0  0  0  0  0  0  0  0  0  0  0  0
    8.9005   45.4309  132.1121 C   0  0  0  0  0  0  0  0  0  0  0  0
    7.7449   45.7536  132.5576 O   0  0  0  0  0  0  0  0  0  0  0  0
   10.4587   46.2007  130.7998 H   0  0  0  0  0  0  0  0  0  0  0  0
    9.5402   44.2108  132.5322 C   0  0  0  0  0  0  0  0  0  0  0  0
   10.0389   44.1595  133.8526 C   0  0  0  0  0  0  0  0  0  0  0  0
   10.7528   43.0806  134.3209 C   0  0  0  0  0  0  0  0  0  0  0  0
   10.9917   42.0177  133.4886 C   0  0  0  0  0  0  0  0  0  0  0  0
   10.5126   42.0385  132.1896 C   0  0  0  0  0  0  0  0  0  0  0  0
   10.7588   40.9266  131.4255 C   0  0  0  0  0  0  0  0  0  0  0  0
   10.2586   40.8998  130.1309 C   0  0  0  0  0  0  0  0  0  0  0  0
    9.5420   41.9637  129.6499 C   0  0  0  0  0  0  0  0  0  0  0  0
    9.2983   43.0858  130.4266 C   0  0  0  0  0  0  0  0  0  0  0  0
    9.7901   43.1435  131.7349 C   0  0  0  0  0  0  0  0  0  0  0  0
    6.7405   50.5318  129.6587 S   0  0  0  0  0  0  0  0  0  0  0  0
    5.5013   50.8426  130.4898 O   0  0  0  0  0  0  0  0  0  0  0  0
    6.3498   49.2867  128.8695 O   0  0  0  0  0  0  0  0  0  0  0  0
    7.3804   53.8207  126.6079 C   0  0  0  0  0  0  0  0  0  0  0  0
    7.5282   52.4929  126.2746 C   0  0  0  0  0  0  0  0  0  0  0  0
    7.3356   51.4888  127.2190 C   0  0  0  0  0  0  0  0  0  0  0  0
    6.9919   51.8064  128.5118 C   0  0  0  0  0  0  0  0  0  0  0  0
    6.8427   53.1244  128.8531 C   0  0  0  0  0  0  0  0  0  0  0  0
    7.0333   54.1225  127.9171 C   0  0  0  0  0  0  0  0  0  0  0  0
    8.4951   54.6365  124.6395 C   0  0  0  0  0  0  0  0  0  0  0  0
    7.5654   54.8312  125.6855 O   0  0  0  0  0  0  0  0  0  0  0  0
 33 34  1  0  0  0
 34 27  1  0  0  0
 27 28  2  0  0  0
 28 29  1  0  0  0
 29 30  2  0  0  0
 30 31  1  0  0  0
 31 32  2  0  0  0
 30 24  1  0  0  0
 24 25  2  0  0  0
 24 26  2  0  0  0
 24  1  1  0  0  0
  1  2  1  0  0  0
  2  3  1  0  0  0
  3  4  1  0  0  0
  4  5  1  0  0  0
  5  6  1  0  0  0
  6  7  1  0  0  0
  7  8  1  0  0  0
  8  9  1  0  0  0
  8 10  1  0  0  0
 10 11  1  0  0  0
 11 12  2  0  0  0
 11 14  1  0  0  0
 14 15  2  0  0  0
 15 16  1  0  0  0
 16 17  2  0  0  0
 17 18  1  0  0  0
 18 19  2  0  0  0
 19 20  1  0  0  0
 20 21  2  0  0  0
 21 22  1  0  0  0
 22 23  2  0  0  0
 32 27  1  0  0  0
  6  1  1  0  0  0
 23 14  1  0  0  0
  9  3  1  0  0  0
 23 18  1  0  0  0
 10 13  1  0  0  0
M  END
> <minimizedAffinity>
15.47411

> <CNNscore>
0.4696503282

> <CNNaffinity>
7.1465392113

> <CNN_VS>
3.3563745022

> <CNNaffinity_variance>
1.3545587063

$$$$
[H]c1c([H])c(S(=O)(=O)N2C([H])([H])[C@@]3([H])C([H])([H])C([H])([H])[C@]2([H])C([H])([H])[C@]([H])(N([H])C(=O)c2c([H])c([H])c([H])c4c([H])c([H])c([H])c([H])c24)C3([H])[H])c([H])c([H])c1OC([H])([H])[H]


 34 38  0  0  0  0  0  0  0  0999 V2000
   10.4123   45.1245  134.6381 N   0  0  0  0  0  0  0  0  0  0  0  0
    9.3174   44.7150  135.4647 C   0  0  0  0  0  0  0  0  0  0  0  0
    8.1756   45.6392  134.9813 C   0  0  0  0  0  0  0  0  0  0  0  0
    8.4175   47.0397  135.4521 C   0  0  0  0  0  0  0  0  0  0  0  0
    9.9110   47.2034  135.6763 C   0  0  0  0  0  0  0  0  0  0  0  0
   10.5943   46.5000  134.4877 C   0  0  0  0  0  0  0  0  0  0  0  0
    9.9450   47.1064  133.2713 C   0  0  0  0  0  0  0  0  0  0  0  0
    8.9221   46.2281  132.6203 C   0  0  0  0  0  0  0  0  0  0  0  0
    8.0734   45.4374  133.5194 C   0  0  0  0  0  0  0  0  0  0  0  0
    8.0516   47.1357  131.8546 N   0  0  0  0  0  0  0  0  0  0  0  0
    7.5271   46.8270  130.5970 C   0  0  0  0  0  0  0  0  0  0  0  0
    7.8557   45.6913  130.1069 O   0  0  0  0  0  0  0  0  0  0  0  0
    7.8871   48.0510  132.3619 H   0  0  0  0  0  0  0  0  0  0  0  0
    6.6720   47.7274  129.8673 C   0  0  0  0  0  0  0  0  0  0  0  0
    5.6144   47.1596  129.1231 C   0  0  0  0  0  0  0  0  0  0  0  0
    4.8022   47.9200  128.3137 C   0  0  0  0  0  0  0  0  0  0  0  0
    5.0172   49.2708  128.2209 C   0  0  0  0  0  0  0  0  0  0  0  0
    6.0448   49.8560  128.9413 C   0  0  0  0  0  0  0  0  0  0  0  0
    6.1788   51.2160  128.8275 C   0  0  0  0  0  0  0  0  0  0  0  0
    7.1751   51.8386  129.5668 C   0  0  0  0  0  0  0  0  0  0  0  0
    7.9901   51.0972  130.3810 C   0  0  0  0  0  0  0  0  0  0  0  0
    7.8511   49.7223  130.4902 C   0  0  0  0  0  0  0  0  0  0  0  0
    6.8571   49.0656  129.7570 C   0  0  0  0  0  0  0  0  0  0  0  0
   11.5532   44.0106  134.2367 S   0  0  0  0  0  0  0  0  0  0  0  0
   10.9967   42.6182  134.5097 O   0  0  0  0  0  0  0  0  0  0  0  0
   12.7367   44.1258  135.1916 O   0  0  0  0  0  0  0  0  0  0  0  0
   13.1583   44.1182  130.0005 C   0  0  0  0  0  0  0  0  0  0  0  0
   12.2920   43.1316  130.4157 C   0  0  0  0  0  0  0  0  0  0  0  0
   11.8081   43.1022  131.7204 C   0  0  0  0  0  0  0  0  0  0  0  0
   12.1888   44.0646  132.6255 C   0  0  0  0  0  0  0  0  0  0  0  0
   13.0503   45.0500  132.2220 C   0  0  0  0  0  0  0  0  0  0  0  0
   13.5317   45.0810  130.9274 C   0  0  0  0  0  0  0  0  0  0  0  0
   15.0447   44.0891  128.5094 C   0  0  0  0  0  0  0  0  0  0  0  0
   13.6482   44.1658  128.7106 O   0  0  0  0  0  0  0  0  0  0  0  0
 33 34  1  0  0  0
 34 27  1  0  0  0
 27 28  2  0  0  0
 28 29  1  0  0  0
 29 30  2  0  0  0
 30 31  1  0  0  0
 31 32  2  0  0  0
 30 24  1  0  0  0
 24 25  2  0  0  0
 24 26  2  0  0  0
 24  1  1  0  0  0
  1  2  1  0  0  0
  2  3  1  0  0  0
  3  4  1  0  0  0
  4  5  1  0  0  0
  5  6  1  0  0  0
  6  7  1  0  0  0
  7  8  1  0  0  0
  8  9  1  0  0  0
  8 10  1  0  0  0
 10 11  1  0  0  0
 11 12  2  0  0  0
 11 14  1  0  0  0
 14 15  2  0  0  0
 15 16  1  0  0  0
 16 17  2  0  0  0
 17 18  1  0  0  0
 18 19  2  0  0  0
 19 20  1  0  0  0
 20 21  2  0  0  0
 21 22  1  0  0  0
 22 23  2  0  0  0
 32 27  1  0  0  0
  6  1  1  0  0  0
 23 14  1  0  0  0
  9  3  1  0  0  0
 23 18  1  0  0  0
 10 13  1  0  0  0
M  END
> <minimizedAffinity>
9.84419

> <CNNscore>
0.4695493579

> <CNNaffinity>
7.7558679581

> <CNN_VS>
3.6417627335

> <CNNaffinity_variance>
1.7568191290

$$$$
[H]c1c([H])c([H])c(C(=O)N([H])[C@]2([H])C([H])([H])[C@@]3([H])C([H])([H])N(S(=O)(=O)c4c([H])c([H])c(OC([H])([H])[H])c([H])c4[H])[C@]([H])(C([H])([H])C3([H])[H])C2([H])[H])c([H])c1[H]


 30 33  0  0  0  0  0  0  0  0999 V2000
    8.6156   46.2704  130.3834 N   0  0  0  0  0  0  0  0  0  0  0  0
    8.5362   47.0851  131.5230 C   0  0  0  0  0  0  0  0  0  0  0  0
    8.7320   48.5278  131.0981 C   0  0  0  0  0  0  0  0  0  0  0  0
    9.8337   48.6822  130.0986 C   0  0  0  0  0  0  0  0  0  0  0  0
    9.7159   47.7646  128.9254 C   0  0  0  0  0  0  0  0  0  0  0  0
    8.5134   46.8715  129.1074 C   0  0  0  0  0  0  0  0  0  0  0  0
    7.2169   47.5111  128.7955 C   0  0  0  0  0  0  0  0  0  0  0  0
    6.9244   48.8432  129.3496 C   0  0  0  0  0  0  0  0  0  0  0  0
    7.4193   49.1091  130.7217 C   0  0  0  0  0  0  0  0  0  0  0  0
    7.2303   49.9073  128.4009 N   0  0  0  0  0  0  0  0  0  0  0  0
    6.9465   51.2689  128.6143 C   0  0  0  0  0  0  0  0  0  0  0  0
    6.3909   51.5757  129.7019 O   0  0  0  0  0  0  0  0  0  0  0  0
    7.6850   49.6192  127.5184 H   0  0  0  0  0  0  0  0  0  0  0  0
    7.2270   52.3640  127.7109 C   0  0  0  0  0  0  0  0  0  0  0  0
    7.1971   53.6864  128.0968 C   0  0  0  0  0  0  0  0  0  0  0  0
    7.4788   54.6614  127.1639 C   0  0  0  0  0  0  0  0  0  0  0  0
    7.7907   54.3650  125.8537 C   0  0  0  0  0  0  0  0  0  0  0  0
    7.8234   53.0482  125.4569 C   0  0  0  0  0  0  0  0  0  0  0  0
    7.5389   52.0773  126.4019 C   0  0  0  0  0  0  0  0  0  0  0  0
    9.1302   44.6920  130.5155 S   0  0  0  0  0  0  0  0  0  0  0  0
    7.9218   43.7638  130.5529 O   0  0  0  0  0  0  0  0  0  0  0  0
    9.9508   44.2323  129.3464 O   0  0  0  0  0  0  0  0  0  0  0  0
   11.5691   43.7519  134.2269 C   0  0  0  0  0  0  0  0  0  0  0  0
   10.1937   43.7115  134.2567 C   0  0  0  0  0  0  0  0  0  0  0  0
    9.4168   43.9919  133.1478 C   0  0  0  0  0  0  0  0  0  0  0  0
   10.0513   44.3274  131.9570 C   0  0  0  0  0  0  0  0  0  0  0  0
   11.4245   44.3757  131.8973 C   0  0  0  0  0  0  0  0  0  0  0  0
   12.1782   44.0894  133.0262 C   0  0  0  0  0  0  0  0  0  0  0  0
   11.6784   43.1634  136.6091 C   0  0  0  0  0  0  0  0  0  0  0  0
   12.2786   43.4589  135.3768 O   0  0  0  0  0  0  0  0  0  0  0  0
 29 30  1  0  0  0
 30 23  1  0  0  0
 23 24  2  0  0  0
 24 25  1  0  0  0
 25 26  2  0  0  0
 26 27  1  0  0  0
 27 28  2  0  0  0
 26 20  1  0  0  0
 20 21  2  0  0  0
 20 22  2  0  0  0
 20  1  1  0  0  0
  1  2  1  0  0  0
  2  3  1  0  0  0
  3  4  1  0  0  0
  4  5  1  0  0  0
  5  6  1  0  0  0
  6  7  1  0  0  0
  7  8  1  0  0  0
  8  9  1  0  0  0
  8 10  1  0  0  0
 10 11  1  0  0  0
 11 12  2  0  0  0
 11 14  1  0  0  0
 14 15  2  0  0  0
 15 16  1  0  0  0
 16 17  2  0  0  0
 17 18  1  0  0  0
 18 19  2  0  0  0
 28 23  1  0  0  0
  6  1  1  0  0  0
 19 14  1  0  0  0
  9  3  1  0  0  0
 10 13  1  0  0  0
M  END
> <minimizedAffinity>
4.57738

> <CNNscore>
0.5528764725

> <CNNaffinity>
7.4244751930

> <CNN_VS>
4.1048178673

> <CNNaffinity_variance>
0.5471628308

$$$$
[H]c1c([H])c([H])c(C(=O)N([H])[C@]2([H])C([H])([H])[C@@]3([H])C([H])([H])N(S(=O)(=O)c4c([H])c([H])c(OC([H])([H])[H])c([H])c4[H])[C@]([H])(C([H])([H])C3([H])[H])C2([H])[H])c([H])c1[H]


 30 33  0  0  0  0  0  0  0  0999 V2000
   10.4654   46.4897  130.9396 N   0  0  0  0  0  0  0  0  0  0  0  0
   11.4376   45.7266  130.2754 C   0  0  0  0  0  0  0  0  0  0  0  0
   11.3748   44.3048  130.7996 C   0  0  0  0  0  0  0  0  0  0  0  0
   11.2173   44.2527  132.2860 C   0  0  0  0  0  0  0  0  0  0  0  0
   10.0925   45.0896  132.8024 C   0  0  0  0  0  0  0  0  0  0  0  0
    9.4438   45.8206  131.6527 C   0  0  0  0  0  0  0  0  0  0  0  0
    8.5202   44.9985  130.8413 C   0  0  0  0  0  0  0  0  0  0  0  0
    8.9562   43.6669  130.3898 C   0  0  0  0  0  0  0  0  0  0  0  0
   10.3828   43.5352  130.0081 C   0  0  0  0  0  0  0  0  0  0  0  0
    8.4884   42.6099  131.2785 N   0  0  0  0  0  0  0  0  0  0  0  0
    7.9478   42.8289  132.5591 C   0  0  0  0  0  0  0  0  0  0  0  0
    7.8682   44.0226  132.9520 O   0  0  0  0  0  0  0  0  0  0  0  0
    8.5698   41.6423  130.9241 H   0  0  0  0  0  0  0  0  0  0  0  0
    7.4691   41.8215  133.4810 C   0  0  0  0  0  0  0  0  0  0  0  0
    8.2782   41.2035  134.4095 C   0  0  0  0  0  0  0  0  0  0  0  0
    7.7313   40.2544  135.2464 C   0  0  0  0  0  0  0  0  0  0  0  0
    6.4005   39.8969  135.1912 C   0  0  0  0  0  0  0  0  0  0  0  0
    5.5831   40.5070  134.2682 C   0  0  0  0  0  0  0  0  0  0  0  0
    6.1428   41.4586  133.4329 C   0  0  0  0  0  0  0  0  0  0  0  0
   10.6840   48.1274  131.1488 S   0  0  0  0  0  0  0  0  0  0  0  0
   10.7241   48.4497  132.6380 O   0  0  0  0  0  0  0  0  0  0  0  0
   11.9850   48.6311  130.5961 O   0  0  0  0  0  0  0  0  0  0  0  0
    7.4179   50.7874  129.4569 C   0  0  0  0  0  0  0  0  0  0  0  0
    7.7441   49.5963  128.8494 C   0  0  0  0  0  0  0  0  0  0  0  0
    8.7326   48.7599  129.3342 C   0  0  0  0  0  0  0  0  0  0  0  0
    9.4230   49.1383  130.4801 C   0  0  0  0  0  0  0  0  0  0  0  0
    9.1187   50.3232  131.1088 C   0  0  0  0  0  0  0  0  0  0  0  0
    8.1218   51.1424  130.5993 C   0  0  0  0  0  0  0  0  0  0  0  0
    6.6569   52.7159  128.1394 C   0  0  0  0  0  0  0  0  0  0  0  0
    6.4171   51.5713  128.9131 O   0  0  0  0  0  0  0  0  0  0  0  0
 29 30  1  0  0  0
 30 23  1  0  0  0
 23 24  2  0  0  0
 24 25  1  0  0  0
 25 26  2  0  0  0
 26 27  1  0  0  0
 27 28  2  0  0  0
 26 20  1  0  0  0
 20 21  2  0  0  0
 20 22  2  0  0  0
 20  1  1  0  0  0
  1  2  1  0  0  0
  2  3  1  0  0  0
  3  4  1  0  0  0
  4  5  1  0  0  0
  5  6  1  0  0  0
  6  7  1  0  0  0
  7  8  1  0  0  0
  8  9  1  0  0  0
  8 10  1  0  0  0
 10 11  1  0  0  0
 11 12  2  0  0  0
 11 14  1  0  0  0
 14 15  2  0  0  0
 15 16  1  0  0  0
 16 17  2  0  0  0
 17 18  1  0  0  0
 18 19  2  0  0  0
 28 23  1  0  0  0
  6  1  1  0  0  0
 19 14  1  0  0  0
  9  3  1  0  0  0
 10 13  1  0  0  0
M  END
> <minimizedAffinity>
17.18246

> <CNNscore>
0.5311685205

> <CNNaffinity>
7.4485292435

> <CNN_VS>
3.9564242363

> <CNNaffinity_variance>
2.0714142323

$$$$
[H]c1c([H])c([H])c(C(=O)N([H])[C@]2([H])C([H])([H])[C@@]3([H])C([H])([H])N(S(=O)(=O)c4c([H])c([H])c(OC([H])([H])[H])c([H])c4[H])[C@]([H])(C([H])([H])C3([H])[H])C2([H])[H])c([H])c1[H]


 30 33  0  0  0  0  0  0  0  0999 V2000
    8.4757   46.8149  131.0925 N   0  0  0  0  0  0  0  0  0  0  0  0
    7.7896   47.6612  131.9766 C   0  0  0  0  0  0  0  0  0  0  0  0
    7.8324   49.0726  131.4230 C   0  0  0  0  0  0  0  0  0  0  0  0
    9.1794   49.4307  130.8807 C   0  0  0  0  0  0  0  0  0  0  0  0
    9.7232   48.4326  129.9109 C   0  0  0  0  0  0  0  0  0  0  0  0
    8.7590   47.2786  129.7868 C   0  0  0  0  0  0  0  0  0  0  0  0
    7.5862   47.5444  128.9259 C   0  0  0  0  0  0  0  0  0  0  0  0
    6.8308   48.7943  129.1114 C   0  0  0  0  0  0  0  0  0  0  0  0
    6.6824   49.2734  130.5066 C   0  0  0  0  0  0  0  0  0  0  0  0
    7.2559   49.8313  128.1788 N   0  0  0  0  0  0  0  0  0  0  0  0
    6.9706   51.2011  128.3287 C   0  0  0  0  0  0  0  0  0  0  0  0
    6.3027   51.5409  129.3406 O   0  0  0  0  0  0  0  0  0  0  0  0
    7.8012   49.5165  127.3590 H   0  0  0  0  0  0  0  0  0  0  0  0
    7.3658   52.2707  127.4376 C   0  0  0  0  0  0  0  0  0  0  0  0
    7.6656   52.0720  126.1075 C   0  0  0  0  0  0  0  0  0  0  0  0
    8.0330   53.1539  125.3363 C   0  0  0  0  0  0  0  0  0  0  0  0
    8.1128   54.4332  125.8451 C   0  0  0  0  0  0  0  0  0  0  0  0
    7.8158   54.6437  127.1717 C   0  0  0  0  0  0  0  0  0  0  0  0
    7.4481   53.5502  127.9369 C   0  0  0  0  0  0  0  0  0  0  0  0
    9.2127   45.4324  131.6573 S   0  0  0  0  0  0  0  0  0  0  0  0
    9.5863   45.6171  133.1234 O   0  0  0  0  0  0  0  0  0  0  0  0
    8.3229   44.2246  131.6210 O   0  0  0  0  0  0  0  0  0  0  0  0
   13.0365   44.2891  129.4945 C   0  0  0  0  0  0  0  0  0  0  0  0
   13.0357   44.5258  130.8503 C   0  0  0  0  0  0  0  0  0  0  0  0
   11.8921   44.8764  131.5438 C   0  0  0  0  0  0  0  0  0  0  0  0
   10.6972   44.9940  130.8428 C   0  0  0  0  0  0  0  0  0  0  0  0
   10.6675   44.7634  129.4872 C   0  0  0  0  0  0  0  0  0  0  0  0
   11.8309   44.4130  128.8178 C   0  0  0  0  0  0  0  0  0  0  0  0
   15.4056   44.6834  128.9796 C   0  0  0  0  0  0  0  0  0  0  0  0
   14.2203   43.9424  128.8699 O   0  0  0  0  0  0  0  0  0  0  0  0
 29 30  1  0  0  0
 30 23  1  0  0  0
 23 24  2  0  0  0
 24 25  1  0  0  0
 25 26  2  0  0  0
 26 27  1  0  0  0
 27 28  2  0  0  0
 26 20  1  0  0  0
 20 21  2  0  0  0
 20 22  2  0  0  0
 20  1  1  0  0  0
  1  2  1  0  0  0
  2  3  1  0  0  0
  3  4  1  0  0  0
  4  5  1  0  0  0
  5  6  1  0  0  0
  6  7  1  0  0  0
  7  8  1  0  0  0
  8  9  1  0  0  0
  8 10  1  0  0  0
 10 11  1  0  0  0
 11 12  2  0  0  0
 11 14  1  0  0  0
 14 15  2  0  0  0
 15 16  1  0  0  0
 16 17  2  0  0  0
 17 18  1  0  0  0
 18 19  2  0  0  0
 28 23  1  0  0  0
  6  1  1  0  0  0
 19 14  1  0  0  0
  9  3  1  0  0  0
 10 13  1  0  0  0
M  END
> <minimizedAffinity>
6.32025

> <CNNscore>
0.5156584382

> <CNNaffinity>
7.2015089989

> <CNN_VS>
3.7135188580

> <CNNaffinity_variance>
0.6473321319

$$$$
[H]c1c([H])c([H])c(C(=O)N([H])[C@]2([H])C([H])([H])[C@@]3([H])C([H])([H])N(S(=O)(=O)c4c([H])c([H])c(OC([H])([H])[H])c([H])c4[H])[C@]([H])(C([H])([H])C3([H])[H])C2([H])[H])c([H])c1[H]


 30 33  0  0  0  0  0  0  0  0999 V2000
    9.7527   48.4198  132.2065 N   0  0  0  0  0  0  0  0  0  0  0  0
    9.4846   48.4092  133.5837 C   0  0  0  0  0  0  0  0  0  0  0  0
    9.2718   46.9729  134.0220 C   0  0  0  0  0  0  0  0  0  0  0  0
    8.4335   46.2007  133.0536 C   0  0  0  0  0  0  0  0  0  0  0  0
    8.9092   46.2897  131.6401 C   0  0  0  0  0  0  0  0  0  0  0  0
   10.1058   47.2064  131.5716 C   0  0  0  0  0  0  0  0  0  0  0  0
   11.3785   46.5935  132.0097 C   0  0  0  0  0  0  0  0  0  0  0  0
   11.4121   45.8400  133.2739 C   0  0  0  0  0  0  0  0  0  0  0  0
   10.5807   46.3720  134.3802 C   0  0  0  0  0  0  0  0  0  0  0  0
   11.2517   44.4069  133.0585 N   0  0  0  0  0  0  0  0  0  0  0  0
   11.1492   43.7994  131.7934 C   0  0  0  0  0  0  0  0  0  0  0  0
   11.2009   44.5555  130.7878 O   0  0  0  0  0  0  0  0  0  0  0  0
   11.2120   43.8166  133.9061 H   0  0  0  0  0  0  0  0  0  0  0  0
   10.9895   42.3871  131.5211 C   0  0  0  0  0  0  0  0  0  0  0  0
   11.6053   41.4020  132.2620 C   0  0  0  0  0  0  0  0  0  0  0  0
   11.3928   40.0819  131.9265 C   0  0  0  0  0  0  0  0  0  0  0  0
   10.5849   39.7060  130.8739 C   0  0  0  0  0  0  0  0  0  0  0  0
    9.9650   40.6809  130.1270 C   0  0  0  0  0  0  0  0  0  0  0  0
   10.1854   42.0031  130.4728 C   0  0  0  0  0  0  0  0  0  0  0  0
    9.3609   49.7514  131.2863 S   0  0  0  0  0  0  0  0  0  0  0  0
    9.3861   50.9998  132.1604 O   0  0  0  0  0  0  0  0  0  0  0  0
   10.3372   50.0195  130.1789 O   0  0  0  0  0  0  0  0  0  0  0  0
    5.2434   49.6040  129.3808 C   0  0  0  0  0  0  0  0  0  0  0  0
    5.6253   50.6757  130.1553 C   0  0  0  0  0  0  0  0  0  0  0  0
    6.8697   50.7565  130.7523 C   0  0  0  0  0  0  0  0  0  0  0  0
    7.7693   49.7136  130.5619 C   0  0  0  0  0  0  0  0  0  0  0  0
    7.4155   48.6296  129.7929 C   0  0  0  0  0  0  0  0  0  0  0  0
    6.1596   48.5760  129.2061 C   0  0  0  0  0  0  0  0  0  0  0  0
    3.4284   50.6813  128.1243 C   0  0  0  0  0  0  0  0  0  0  0  0
    3.9814   49.5941  128.8160 O   0  0  0  0  0  0  0  0  0  0  0  0
 29 30  1  0  0  0
 30 23  1  0  0  0
 23 24  2  0  0  0
 24 25  1  0  0  0
 25 26  2  0  0  0
 26 27  1  0  0  0
 27 28  2  0  0  0
 26 20  1  0  0  0
 20 21  2  0  0  0
 20 22  2  0  0  0
 20  1  1  0  0  0
  1  2  1  0  0  0
  2  3  1  0  0  0
  3  4  1  0  0  0
  4  5  1  0  0  0
  5  6  1  0  0  0
  6  7  1  0  0  0
  7  8  1  0  0  0
  8  9  1  0  0  0
  8 10  1  0  0  0
 10 11  1  0  0  0
 11 12  2  0  0  0
 11 14  1  0  0  0
 14 15  2  0  0  0
 15 16  1  0  0  0
 16 17  2  0  0  0
 17 18  1  0  0  0
 18 19  2  0  0  0
 28 23  1  0  0  0
  6  1  1  0  0  0
 19 14  1  0  0  0
  9  3  1  0  0  0
 10 13  1  0  0  0
M  END
> <minimizedAffinity>
9.07293

> <CNNscore>
0.4946212471

> <CNNaffinity>
7.6072740555

> <CNN_VS>
3.7627193928

> <CNNaffinity_variance>
1.7810264826

$$$$
[H]c1c([H])c([H])c(C(=O)N([H])[C@]2([H])C([H])([H])[C@@]3([H])C([H])([H])N(S(=O)(=O)c4c([H])c([H])c(OC([H])([H])[H])c([H])c4[H])[C@]([H])(C([H])([H])C3([H])[H])C2([H])[H])c([H])c1[H]


 30 33  0  0  0  0  0  0  0  0999 V2000
    7.4494   46.4225  129.3724 N   0  0  0  0  0  0  0  0  0  0  0  0
    8.3472   46.3188  128.2992 C   0  0  0  0  0  0  0  0  0  0  0  0
    9.7316   46.0435  128.8542 C   0  0  0  0  0  0  0  0  0  0  0  0
   10.0391   46.8784  130.0563 C   0  0  0  0  0  0  0  0  0  0  0  0
    8.9888   46.8174  131.1171 C   0  0  0  0  0  0  0  0  0  0  0  0
    7.8492   45.9490  130.6436 C   0  0  0  0  0  0  0  0  0  0  0  0
    8.0992   44.4947  130.7430 C   0  0  0  0  0  0  0  0  0  0  0  0
    9.3704   43.9508  130.2378 C   0  0  0  0  0  0  0  0  0  0  0  0
    9.9137   44.5788  129.0095 C   0  0  0  0  0  0  0  0  0  0  0  0
   10.3567   43.7942  131.3001 N   0  0  0  0  0  0  0  0  0  0  0  0
   10.0754   43.9281  132.6724 C   0  0  0  0  0  0  0  0  0  0  0  0
    8.8883   44.2017  132.9909 O   0  0  0  0  0  0  0  0  0  0  0  0
   11.3211   43.5711  131.0024 H   0  0  0  0  0  0  0  0  0  0  0  0
   11.0116   43.7838  133.7665 C   0  0  0  0  0  0  0  0  0  0  0  0
   10.6248   43.4918  135.0563 C   0  0  0  0  0  0  0  0  0  0  0  0
   11.5903   43.3737  136.0331 C   0  0  0  0  0  0  0  0  0  0  0  0
   12.9341   43.5369  135.7699 C   0  0  0  0  0  0  0  0  0  0  0  0
   13.3321   43.8288  134.4858 C   0  0  0  0  0  0  0  0  0  0  0  0
   12.3542   43.9451  133.5128 C   0  0  0  0  0  0  0  0  0  0  0  0
    6.0793   47.3587  129.2318 S   0  0  0  0  0  0  0  0  0  0  0  0
    5.3364   46.9855  127.9543 O   0  0  0  0  0  0  0  0  0  0  0  0
    5.0943   47.1454  130.3435 O   0  0  0  0  0  0  0  0  0  0  0  0
    6.7772   51.8385  129.0054 C   0  0  0  0  0  0  0  0  0  0  0  0
    7.3806   50.9836  128.1114 C   0  0  0  0  0  0  0  0  0  0  0  0
    7.1931   49.6143  128.1486 C   0  0  0  0  0  0  0  0  0  0  0  0
    6.3623   49.0816  129.1280 C   0  0  0  0  0  0  0  0  0  0  0  0
    5.7457   49.9115  130.0350 C   0  0  0  0  0  0  0  0  0  0  0  0
    5.9526   51.2819  129.9734 C   0  0  0  0  0  0  0  0  0  0  0  0
    7.1913   53.8699  127.6881 C   0  0  0  0  0  0  0  0  0  0  0  0
    7.0129   53.1972  128.9054 O   0  0  0  0  0  0  0  0  0  0  0  0
 29 30  1  0  0  0
 30 23  1  0  0  0
 23 24  2  0  0  0
 24 25  1  0  0  0
 25 26  2  0  0  0
 26 27  1  0  0  0
 27 28  2  0  0  0
 26 20  1  0  0  0
 20 21  2  0  0  0
 20 22  2  0  0  0
 20  1  1  0  0  0
  1  2  1  0  0  0
  2  3  1  0  0  0
  3  4  1  0  0  0
  4  5  1  0  0  0
  5  6  1  0  0  0
  6  7  1  0  0  0
  7  8  1  0  0  0
  8  9  1  0  0  0
  8 10  1  0  0  0
 10 11  1  0  0  0
 11 12  2  0  0  0
 11 14  1  0  0  0
 14 15  2  0  0  0
 15 16  1  0  0  0
 16 17  2  0  0  0
 17 18  1  0  0  0
 18 19  2  0  0  0
 28 23  1  0  0  0
  6  1  1  0  0  0
 19 14  1  0  0  0
  9  3  1  0  0  0
 10 13  1  0  0  0
M  END
> <minimizedAffinity>
6.86963

> <CNNscore>
0.4767530560

> <CNNaffinity>
7.3748941422

> <CNN_VS>
3.5160033703

> <CNNaffinity_variance>
1.8137047291

$$$$
[H]c1c([H])c([H])c(C(=O)N([H])[C@]2([H])C([H])([H])[C@@]3([H])C([H])([H])N(S(=O)(=O)c4c([H])c([H])c(OC([H])([H])[H])c([H])c4[H])[C@]([H])(C([H])([H])C3([H])[H])C2([H])[H])c([H])c1[H]


 30 33  0  0  0  0  0  0  0  0999 V2000
   10.6769   46.5678  133.7613 N   0  0  0  0  0  0  0  0  0  0  0  0
   11.0829   45.6743  134.7640 C   0  0  0  0  0  0  0  0  0  0  0  0
   10.9165   44.2592  134.2443 C   0  0  0  0  0  0  0  0  0  0  0  0
    9.6321   44.0733  133.5010 C   0  0  0  0  0  0  0  0  0  0  0  0
    9.4010   45.0923  132.4331 C   0  0  0  0  0  0  0  0  0  0  0  0
   10.5342   46.0886  132.4384 C   0  0  0  0  0  0  0  0  0  0  0  0
   11.7737   45.6168  131.7839 C   0  0  0  0  0  0  0  0  0  0  0  0
   12.2957   44.2815  132.1180 C   0  0  0  0  0  0  0  0  0  0  0  0
   12.1521   43.8524  133.5298 C   0  0  0  0  0  0  0  0  0  0  0  0
   11.8709   43.2736  131.1539 N   0  0  0  0  0  0  0  0  0  0  0  0
   10.9590   43.5077  130.1081 C   0  0  0  0  0  0  0  0  0  0  0  0
   10.4854   44.6703  130.0092 O   0  0  0  0  0  0  0  0  0  0  0  0
   12.2787   42.3303  131.2657 H   0  0  0  0  0  0  0  0  0  0  0  0
   10.5031   42.5483  129.1254 C   0  0  0  0  0  0  0  0  0  0  0  0
   10.2713   41.2219  129.4176 C   0  0  0  0  0  0  0  0  0  0  0  0
    9.8377   40.3822  128.4140 C   0  0  0  0  0  0  0  0  0  0  0  0
    9.6257   40.8187  127.1231 C   0  0  0  0  0  0  0  0  0  0  0  0
    9.8539   42.1409  126.8196 C   0  0  0  0  0  0  0  0  0  0  0  0
   10.2891   42.9751  127.8350 C   0  0  0  0  0  0  0  0  0  0  0  0
   10.0759   48.0669  134.1674 S   0  0  0  0  0  0  0  0  0  0  0  0
    9.0189   47.9143  135.2550 O   0  0  0  0  0  0  0  0  0  0  0  0
   11.1107   48.9887  134.7428 O   0  0  0  0  0  0  0  0  0  0  0  0
    8.0772   50.3588  130.7971 C   0  0  0  0  0  0  0  0  0  0  0  0
    7.6375   49.1052  131.1566 C   0  0  0  0  0  0  0  0  0  0  0  0
    8.2205   48.3763  132.1767 C   0  0  0  0  0  0  0  0  0  0  0  0
    9.2925   48.9328  132.8651 C   0  0  0  0  0  0  0  0  0  0  0  0
    9.7537   50.1839  132.5279 C   0  0  0  0  0  0  0  0  0  0  0  0
    9.1489   50.8921  131.4997 C   0  0  0  0  0  0  0  0  0  0  0  0
    6.7331   50.3853  128.7413 C   0  0  0  0  0  0  0  0  0  0  0  0
    7.4434   51.0271  129.7658 O   0  0  0  0  0  0  0  0  0  0  0  0
 29 30  1  0  0  0
 30 23  1  0  0  0
 23 24  2  0  0  0
 24 25  1  0  0  0
 25 26  2  0  0  0
 26 27  1  0  0  0
 27 28  2  0  0  0
 26 20  1  0  0  0
 20 21  2  0  0  0
 20 22  2  0  0  0
 20  1  1  0  0  0
  1  2  1  0  0  0
  2  3  1  0  0  0
  3  4  1  0  0  0
  4  5  1  0  0  0
  5  6  1  0  0  0
  6  7  1  0  0  0
  7  8  1  0  0  0
  8  9  1  0  0  0
  8 10  1  0  0  0
 10 11  1  0  0  0
 11 12  2  0  0  0
 11 14  1  0  0  0
 14 15  2  0  0  0
 15 16  1  0  0  0
 16 17  2  0  0  0
 17 18  1  0  0  0
 18 19  2  0  0  0
 28 23  1  0  0  0
  6  1  1  0  0  0
 19 14  1  0  0  0
  9  3  1  0  0  0
 10 13  1  0  0  0
M  END
> <minimizedAffinity>
13.21465

> <CNNscore>
0.4649997056

> <CNNaffinity>
7.4808950424

> <CNN_VS>
3.4786140919

> <CNNaffinity_variance>
1.8594776392

$$$$
[H]c1c([H])c([H])c(C(=O)N([H])[C@]2([H])C([H])([H])[C@@]3([H])C([H])([H])N(S(=O)(=O)c4c([H])c([H])c(OC([H])([H])[H])c([H])c4[H])[C@]([H])(C([H])([H])C3([H])[H])C2([H])[H])c([H])c1[H]


 30 33  0  0  0  0  0  0  0  0999 V2000
   10.4998   45.4558  129.2071 N   0  0  0  0  0  0  0  0  0  0  0  0
   11.3771   44.4535  128.7663 C   0  0  0  0  0  0  0  0  0  0  0  0
   12.0785   43.8621  129.9740 C   0  0  0  0  0  0  0  0  0  0  0  0
   12.5108   44.9092  130.9504 C   0  0  0  0  0  0  0  0  0  0  0  0
   11.4215   45.8535  131.3428 C   0  0  0  0  0  0  0  0  0  0  0  0
   10.1650   45.5130  130.5799 C   0  0  0  0  0  0  0  0  0  0  0  0
    9.4150   44.3546  131.1118 C   0  0  0  0  0  0  0  0  0  0  0  0
   10.1435   43.1159  131.4311 C   0  0  0  0  0  0  0  0  0  0  0  0
   11.2574   42.7539  130.5221 C   0  0  0  0  0  0  0  0  0  0  0  0
   10.4929   43.0380  132.8445 N   0  0  0  0  0  0  0  0  0  0  0  0
   10.2433   44.0567  133.7827 C   0  0  0  0  0  0  0  0  0  0  0  0
    9.6798   45.1005  133.3602 O   0  0  0  0  0  0  0  0  0  0  0  0
   10.9551   42.1676  133.1562 H   0  0  0  0  0  0  0  0  0  0  0  0
   10.5672   44.0338  135.1929 C   0  0  0  0  0  0  0  0  0  0  0  0
   11.4474   43.1318  135.7498 C   0  0  0  0  0  0  0  0  0  0  0  0
   11.6930   43.1874  137.1051 C   0  0  0  0  0  0  0  0  0  0  0  0
   11.0903   44.1139  137.9298 C   0  0  0  0  0  0  0  0  0  0  0  0
   10.2096   45.0195  137.3849 C   0  0  0  0  0  0  0  0  0  0  0  0
    9.9703   44.9546  136.0229 C   0  0  0  0  0  0  0  0  0  0  0  0
   10.1129   46.7304  128.2075 S   0  0  0  0  0  0  0  0  0  0  0  0
   11.3599   47.5653  127.9409 O   0  0  0  0  0  0  0  0  0  0  0  0
    9.6232   46.3010  126.8556 O   0  0  0  0  0  0  0  0  0  0  0  0
    7.0735   49.6484  129.8966 C   0  0  0  0  0  0  0  0  0  0  0  0
    6.6809   48.6165  129.0749 C   0  0  0  0  0  0  0  0  0  0  0  0
    7.5765   47.7085  128.5410 C   0  0  0  0  0  0  0  0  0  0  0  0
    8.9259   47.8445  128.8470 C   0  0  0  0  0  0  0  0  0  0  0  0
    9.3476   48.8661  129.6656 C   0  0  0  0  0  0  0  0  0  0  0  0
    8.4260   49.7625  130.1869 C   0  0  0  0  0  0  0  0  0  0  0  0
    4.7554   50.4404  130.0770 C   0  0  0  0  0  0  0  0  0  0  0  0
    6.1193   50.5174  130.3928 O   0  0  0  0  0  0  0  0  0  0  0  0
 29 30  1  0  0  0
 30 23  1  0  0  0
 23 24  2  0  0  0
 24 25  1  0  0  0
 25 26  2  0  0  0
 26 27  1  0  0  0
 27 28  2  0  0  0
 26 20  1  0  0  0
 20 21  2  0  0  0
 20 22  2  0  0  0
 20  1  1  0  0  0
  1  2  1  0  0  0
  2  3  1  0  0  0
  3  4  1  0  0  0
  4  5  1  0  0  0
  5  6  1  0  0  0
  6  7  1  0  0  0
  7  8  1  0  0  0
  8  9  1  0  0  0
  8 10  1  0  0  0
 10 11  1  0  0  0
 11 12  2  0  0  0
 11 14  1  0  0  0
 14 15  2  0  0  0
 15 16  1  0  0  0
 16 17  2  0  0  0
 17 18  1  0  0  0
 18 19  2  0  0  0
 28 23  1  0  0  0
  6  1  1  0  0  0
 19 14  1  0  0  0
  9  3  1  0  0  0
 10 13  1  0  0  0
M  END
> <minimizedAffinity>
11.45331

> <CNNscore>
0.4608048797

> <CNNaffinity>
7.5798120499

> <CNN_VS>
3.4928143024

> <CNNaffinity_variance>
2.5658152103

$$$$
[H]c1c([H])c([H])c(C(=O)N([H])[C@]2([H])C([H])([H])[C@@]3([H])C([H])([H])N(S(=O)(=O)c4c([H])c([H])c(OC([H])([H])[H])c([H])c4[H])[C@]([H])(C([H])([H])C3([H])[H])C2([H])[H])c([H])c1[H]


 30 33  0  0  0  0  0  0  0  0999 V2000
    8.5640   45.4584  130.9301 N   0  0  0  0  0  0  0  0  0  0  0  0
    9.1073   44.1730  130.7843 C   0  0  0  0  0  0  0  0  0  0  0  0
   10.4708   44.1483  131.4481 C   0  0  0  0  0  0  0  0  0  0  0  0
   11.2708   45.3765  131.1509 C   0  0  0  0  0  0  0  0  0  0  0  0
   10.5402   46.6514  131.4208 C   0  0  0  0  0  0  0  0  0  0  0  0
    9.1372   46.3370  131.8786 C   0  0  0  0  0  0  0  0  0  0  0  0
    9.0285   45.9216  133.2939 C   0  0  0  0  0  0  0  0  0  0  0  0
    9.9522   44.8995  133.8126 C   0  0  0  0  0  0  0  0  0  0  0  0
   10.3101   43.8020  132.8823 C   0  0  0  0  0  0  0  0  0  0  0  0
   11.1010   45.4943  134.4853 N   0  0  0  0  0  0  0  0  0  0  0  0
   11.2876   46.8771  134.6676 C   0  0  0  0  0  0  0  0  0  0  0  0
   10.3951   47.6413  134.2148 O   0  0  0  0  0  0  0  0  0  0  0  0
   11.8144   44.8376  134.8433 H   0  0  0  0  0  0  0  0  0  0  0  0
   12.4042   47.5210  135.3253 C   0  0  0  0  0  0  0  0  0  0  0  0
   12.2772   48.6701  136.0749 C   0  0  0  0  0  0  0  0  0  0  0  0
   13.3998   49.2111  136.6643 C   0  0  0  0  0  0  0  0  0  0  0  0
   14.6508   48.6457  136.5331 C   0  0  0  0  0  0  0  0  0  0  0  0
   14.7898   47.4984  135.7869 C   0  0  0  0  0  0  0  0  0  0  0  0
   13.6559   46.9637  135.1996 C   0  0  0  0  0  0  0  0  0  0  0  0
    7.4848   46.0450  129.8055 S   0  0  0  0  0  0  0  0  0  0  0  0
    7.9036   45.5902  128.4123 O   0  0  0  0  0  0  0  0  0  0  0  0
    6.0888   45.5273  129.9917 O   0  0  0  0  0  0  0  0  0  0  0  0
    7.1388   50.5649  129.5679 C   0  0  0  0  0  0  0  0  0  0  0  0
    8.3400   49.9633  129.8672 C   0  0  0  0  0  0  0  0  0  0  0  0
    8.4847   48.5907  129.9491 C   0  0  0  0  0  0  0  0  0  0  0  0
    7.3726   47.7883  129.7199 C   0  0  0  0  0  0  0  0  0  0  0  0
    6.1592   48.3615  129.4186 C   0  0  0  0  0  0  0  0  0  0  0  0
    6.0439   49.7419  129.3433 C   0  0  0  0  0  0  0  0  0  0  0  0
    7.0237   52.6676  128.3033 C   0  0  0  0  0  0  0  0  0  0  0  0
    7.0717   51.9444  129.5037 O   0  0  0  0  0  0  0  0  0  0  0  0
 29 30  1  0  0  0
 30 23  1  0  0  0
 23 24  2  0  0  0
 24 25  1  0  0  0
 25 26  2  0  0  0
 26 27  1  0  0  0
 27 28  2  0  0  0
 26 20  1  0  0  0
 20 21  2  0  0  0
 20 22  2  0  0  0
 20  1  1  0  0  0
  1  2  1  0  0  0
  2  3  1  0  0  0
  3  4  1  0  0  0
  4  5  1  0  0  0
  5  6  1  0  0  0
  6  7  1  0  0  0
  7  8  1  0  0  0
  8  9  1  0  0  0
  8 10  1  0  0  0
 10 11  1  0  0  0
 11 12  2  0  0  0
 11 14  1  0  0  0
 14 15  2  0  0  0
 15 16  1  0  0  0
 16 17  2  0  0  0
 17 18  1  0  0  0
 18 19  2  0  0  0
 28 23  1  0  0  0
  6  1  1  0  0  0
 19 14  1  0  0  0
  9  3  1  0  0  0
 10 13  1  0  0  0
M  END
> <minimizedAffinity>
10.32568

> <CNNscore>
0.4607491493

> <CNNaffinity>
7.5028600693

> <CNN_VS>
3.4569363594

> <CNNaffinity_variance>
1.5562406778

$$$$
[H]c1c([H])c([H])c(C(=O)N([H])[C@]2([H])C([H])([H])[C@@]3([H])C([H])([H])N(S(=O)(=O)c4c([H])c([H])c(OC([H])([H])[H])c([H])c4[H])[C@]([H])(C([H])([H])C3([H])[H])C2([H])[H])c([H])c1[H]


 30 33  0  0  0  0  0  0  0  0999 V2000
   10.4320   47.7845  132.0716 N   0  0  0  0  0  0  0  0  0  0  0  0
   11.5555   47.7543  132.9116 C   0  0  0  0  0  0  0  0  0  0  0  0
   11.3370   46.6903  133.9701 C   0  0  0  0  0  0  0  0  0  0  0  0
    9.9465   46.7120  134.5203 C   0  0  0  0  0  0  0  0  0  0  0  0
    8.8829   46.6844  133.4714 C   0  0  0  0  0  0  0  0  0  0  0  0
    9.5258   46.6994  132.1063 C   0  0  0  0  0  0  0  0  0  0  0  0
   10.0617   45.3944  131.6624 C   0  0  0  0  0  0  0  0  0  0  0  0
   10.8977   44.6120  132.5875 C   0  0  0  0  0  0  0  0  0  0  0  0
   11.8183   45.3837  133.4565 C   0  0  0  0  0  0  0  0  0  0  0  0
   10.1229   43.6057  133.3037 N   0  0  0  0  0  0  0  0  0  0  0  0
    8.8896   43.0901  132.8641 C   0  0  0  0  0  0  0  0  0  0  0  0
    8.4357   43.5361  131.7775 O   0  0  0  0  0  0  0  0  0  0  0  0
   10.5249   43.2630  134.1923 H   0  0  0  0  0  0  0  0  0  0  0  0
    8.0799   42.0938  133.5318 C   0  0  0  0  0  0  0  0  0  0  0  0
    8.5751   41.2410  134.4941 C   0  0  0  0  0  0  0  0  0  0  0  0
    7.7259   40.3235  135.0750 C   0  0  0  0  0  0  0  0  0  0  0  0
    6.3944   40.2244  134.7299 C   0  0  0  0  0  0  0  0  0  0  0  0
    5.8888   41.0706  133.7703 C   0  0  0  0  0  0  0  0  0  0  0  0
    6.7504   41.9880  133.1936 C   0  0  0  0  0  0  0  0  0  0  0  0
   10.0072   49.1924  131.2901 S   0  0  0  0  0  0  0  0  0  0  0  0
    9.9238   50.3306  132.3005 O   0  0  0  0  0  0  0  0  0  0  0  0
   11.0149   49.6364  130.2708 O   0  0  0  0  0  0  0  0  0  0  0  0
    5.9904   49.0557  129.1798 C   0  0  0  0  0  0  0  0  0  0  0  0
    6.3251   50.1141  129.9935 C   0  0  0  0  0  0  0  0  0  0  0  0
    7.5378   50.1912  130.6531 C   0  0  0  0  0  0  0  0  0  0  0  0
    8.4538   49.1585  130.4869 C   0  0  0  0  0  0  0  0  0  0  0  0
    8.1469   48.0880  129.6799 C   0  0  0  0  0  0  0  0  0  0  0  0
    6.9220   48.0377  129.0305 C   0  0  0  0  0  0  0  0  0  0  0  0
    3.6780   49.8509  128.9481 C   0  0  0  0  0  0  0  0  0  0  0  0
    4.7580   49.0488  128.5530 O   0  0  0  0  0  0  0  0  0  0  0  0
 29 30  1  0  0  0
 30 23  1  0  0  0
 23 24  2  0  0  0
 24 25  1  0  0  0
 25 26  2  0  0  0
 26 27  1  0  0  0
 27 28  2  0  0  0
 26 20  1  0  0  0
 20 21  2  0  0  0
 20 22  2  0  0  0
 20  1  1  0  0  0
  1  2  1  0  0  0
  2  3  1  0  0  0
  3  4  1  0  0  0
  4  5  1  0  0  0
  5  6  1  0  0  0
  6  7  1  0  0  0
  7  8  1  0  0  0
  8  9  1  0  0  0
  8 10  1  0  0  0
 10 11  1  0  0  0
 11 12  2  0  0  0
 11 14  1  0  0  0
 14 15  2  0  0  0
 15 16  1  0  0  0
 16 17  2  0  0  0
 17 18  1  0  0  0
 18 19  2  0  0  0
 28 23  1  0  0  0
  6  1  1  0  0  0
 19 14  1  0  0  0
  9  3  1  0  0  0
 10 13  1  0  0  0
M  END
> <minimizedAffinity>
12.29233

> <CNNscore>
0.4439162612

> <CNNaffinity>
7.4660925865

> <CNN_VS>
3.3143198490

> <CNNaffinity_variance>
2.0420534611

$$$$
[H]c1c([H])c(S(=O)(=O)N2C([H])([H])[C@@]3([H])C([H])([H])[C@@]([H])(N([H])C(=O)c4c([H])c([H])c([H])c5c([H])c([H])c([H])c([H])c45)[C@]3([H])C2([H])[H])c([H])c([H])c1OC([H])([H])[H]


 32 36  0  0  0  0  0  0  0  0999 V2000
    8.3384   50.2041  130.2132 N   0  0  0  0  0  0  0  0  0  0  0  0
    8.1442   48.9742  131.0082 C   0  0  0  0  0  0  0  0  0  0  0  0
    9.3899   48.2890  130.7482 C   0  0  0  0  0  0  0  0  0  0  0  0
    9.5634   46.8728  130.4030 C   0  0  0  0  0  0  0  0  0  0  0  0
   10.3791   47.4510  129.2466 C   0  0  0  0  0  0  0  0  0  0  0  0
    9.2736   48.4095  129.1868 C   0  0  0  0  0  0  0  0  0  0  0  0
    9.3112   49.8531  129.1729 C   0  0  0  0  0  0  0  0  0  0  0  0
   10.3276   46.1597  131.4056 N   0  0  0  0  0  0  0  0  0  0  0  0
   10.4409   44.7416  131.4056 C   0  0  0  0  0  0  0  0  0  0  0  0
    9.8591   44.1058  130.5139 O   0  0  0  0  0  0  0  0  0  0  0  0
   10.7877   46.7371  132.1265 H   0  0  0  0  0  0  0  0  0  0  0  0
   11.2484   44.1273  132.4804 C   0  0  0  0  0  0  0  0  0  0  0  0
   12.3331   43.3288  132.1333 C   0  0  0  0  0  0  0  0  0  0  0  0
   13.0830   42.7605  133.1086 C   0  0  0  0  0  0  0  0  0  0  0  0
   12.7780   42.9686  134.4252 C   0  0  0  0  0  0  0  0  0  0  0  0
   11.6854   43.7726  134.7866 C   0  0  0  0  0  0  0  0  0  0  0  0
   11.4077   43.9639  136.1184 C   0  0  0  0  0  0  0  0  0  0  0  0
   10.3428   44.7496  136.5310 C   0  0  0  0  0  0  0  0  0  0  0  0
    9.5896   45.3195  135.5307 C   0  0  0  0  0  0  0  0  0  0  0  0
    9.8295   45.1565  134.1788 C   0  0  0  0  0  0  0  0  0  0  0  0
   10.9084   44.3609  133.7901 C   0  0  0  0  0  0  0  0  0  0  0  0
    6.8580   50.7761  129.5905 S   0  0  0  0  0  0  0  0  0  0  0  0
    7.0507   51.3055  128.2066 O   0  0  0  0  0  0  0  0  0  0  0  0
    6.3091   51.8097  130.5116 O   0  0  0  0  0  0  0  0  0  0  0  0
    4.0398   47.1708  129.4332 C   0  0  0  0  0  0  0  0  0  0  0  0
    3.5602   48.4440  129.6329 C   0  0  0  0  0  0  0  0  0  0  0  0
    4.3963   49.5443  129.6811 C   0  0  0  0  0  0  0  0  0  0  0  0
    5.7577   49.4093  129.5298 C   0  0  0  0  0  0  0  0  0  0  0  0
    6.2570   48.1267  129.3268 C   0  0  0  0  0  0  0  0  0  0  0  0
    5.4176   47.0315  129.2794 C   0  0  0  0  0  0  0  0  0  0  0  0
    2.0881   46.0461  130.2720 C   0  0  0  0  0  0  0  0  0  0  0  0
    3.1803   46.0833  129.3900 O   0  0  0  0  0  0  0  0  0  0  0  0
 31 32  1  0  0  0
 32 25  1  0  0  0
 25 26  2  0  0  0
 26 27  1  0  0  0
 27 28  2  0  0  0
 28 29  1  0  0  0
 29 30  2  0  0  0
 28 22  1  0  0  0
 22 23  2  0  0  0
 22 24  2  0  0  0
 22  1  1  0  0  0
  1  2  1  0  0  0
  2  3  1  0  0  0
  3  4  1  0  0  0
  4  5  1  0  0  0
  5  6  1  0  0  0
  6  7  1  0  0  0
  4  8  1  0  0  0
  8  9  1  0  0  0
  9 10  2  0  0  0
  9 12  1  0  0  0
 12 13  2  0  0  0
 13 14  1  0  0  0
 14 15  2  0  0  0
 15 16  1  0  0  0
 16 17  2  0  0  0
 17 18  1  0  0  0
 18 19  2  0  0  0
 19 20  1  0  0  0
 20 21  2  0  0  0
 30 25  1  0  0  0
  7  1  1  0  0  0
 21 12  1  0  0  0
  6  3  1  0  0  0
 21 16  1  0  0  0
  8 11  1  0  0  0
M  END
> <minimizedAffinity>
13.07882

> <CNNscore>
0.5310229659

> <CNNaffinity>
7.5169763565

> <CNN_VS>
3.9916870594

> <CNNaffinity_variance>
1.8153673410

$$$$
[H]c1c([H])c(S(=O)(=O)N2C([H])([H])[C@@]3([H])C([H])([H])[C@@]([H])(N([H])C(=O)c4c([H])c([H])c([H])c5c([H])c([H])c([H])c([H])c45)[C@]3([H])C2([H])[H])c([H])c([H])c1OC([H])([H])[H]


 32 36  0  0  0  0  0  0  0  0999 V2000
   10.6941   45.6007  134.4921 N   0  0  0  0  0  0  0  0  0  0  0  0
   10.3290   46.0105  133.1205 C   0  0  0  0  0  0  0  0  0  0  0  0
    8.8868   45.9634  133.2029 C   0  0  0  0  0  0  0  0  0  0  0  0
    7.9654   45.3707  132.2258 C   0  0  0  0  0  0  0  0  0  0  0  0
    7.4211   44.6515  133.4602 C   0  0  0  0  0  0  0  0  0  0  0  0
    8.8435   44.5013  133.7744 C   0  0  0  0  0  0  0  0  0  0  0  0
    9.5533   44.8244  134.9898 C   0  0  0  0  0  0  0  0  0  0  0  0
    7.0816   46.3598  131.6442 N   0  0  0  0  0  0  0  0  0  0  0  0
    7.1169   46.6874  130.2603 C   0  0  0  0  0  0  0  0  0  0  0  0
    7.9379   46.1016  129.5387 O   0  0  0  0  0  0  0  0  0  0  0  0
    6.4213   46.8197  132.2902 H   0  0  0  0  0  0  0  0  0  0  0  0
    6.1655   47.7131  129.7832 C   0  0  0  0  0  0  0  0  0  0  0  0
    4.8917   47.3170  129.3897 C   0  0  0  0  0  0  0  0  0  0  0  0
    4.0088   48.2472  128.9515 C   0  0  0  0  0  0  0  0  0  0  0  0
    4.3649   49.5662  128.8956 C   0  0  0  0  0  0  0  0  0  0  0  0
    5.6479   49.9768  129.2902 C   0  0  0  0  0  0  0  0  0  0  0  0
    5.9730   51.3100  129.2245 C   0  0  0  0  0  0  0  0  0  0  0  0
    7.2243   51.7704  129.6037 C   0  0  0  0  0  0  0  0  0  0  0  0
    8.1108   50.8156  130.0455 C   0  0  0  0  0  0  0  0  0  0  0  0
    7.8302   49.4642  130.1294 C   0  0  0  0  0  0  0  0  0  0  0  0
    6.5626   49.0270  129.7419 C   0  0  0  0  0  0  0  0  0  0  0  0
   12.1615   44.7329  134.5065 S   0  0  0  0  0  0  0  0  0  0  0  0
   11.9728   43.4118  135.1786 O   0  0  0  0  0  0  0  0  0  0  0  0
   13.2068   45.5552  135.1766 O   0  0  0  0  0  0  0  0  0  0  0  0
   13.3883   44.0823  130.1434 C   0  0  0  0  0  0  0  0  0  0  0  0
   12.8283   43.0697  130.8864 C   0  0  0  0  0  0  0  0  0  0  0  0
   12.4500   43.2490  132.2043 C   0  0  0  0  0  0  0  0  0  0  0  0
   12.6202   44.4612  132.8338 C   0  0  0  0  0  0  0  0  0  0  0  0
   13.1855   45.4949  132.0939 C   0  0  0  0  0  0  0  0  0  0  0  0
   13.5613   45.3105  130.7782 C   0  0  0  0  0  0  0  0  0  0  0  0
   15.1267   43.8413  128.5011 C   0  0  0  0  0  0  0  0  0  0  0  0
   13.7603   43.8768  128.8234 O   0  0  0  0  0  0  0  0  0  0  0  0
 31 32  1  0  0  0
 32 25  1  0  0  0
 25 26  2  0  0  0
 26 27  1  0  0  0
 27 28  2  0  0  0
 28 29  1  0  0  0
 29 30  2  0  0  0
 28 22  1  0  0  0
 22 23  2  0  0  0
 22 24  2  0  0  0
 22  1  1  0  0  0
  1  2  1  0  0  0
  2  3  1  0  0  0
  3  4  1  0  0  0
  4  5  1  0  0  0
  5  6  1  0  0  0
  6  7  1  0  0  0
  4  8  1  0  0  0
  8  9  1  0  0  0
  9 10  2  0  0  0
  9 12  1  0  0  0
 12 13  2  0  0  0
 13 14  1  0  0  0
 14 15  2  0  0  0
 15 16  1  0  0  0
 16 17  2  0  0  0
 17 18  1  0  0  0
 18 19  2  0  0  0
 19 20  1  0  0  0
 20 21  2  0  0  0
 30 25  1  0  0  0
  7  1  1  0  0  0
 21 12  1  0  0  0
  6  3  1  0  0  0
 21 16  1  0  0  0
  8 11  1  0  0  0
M  END
> <minimizedAffinity>
12.11005

> <CNNscore>
0.5286296010

> <CNNaffinity>
7.5599875450

> <CNN_VS>
3.9964332581

> <CNNaffinity_variance>
2.4789535999

$$$$
[H]c1c([H])c(S(=O)(=O)N2C([H])([H])[C@@]3([H])C([H])([H])[C@@]([H])(N([H])C(=O)c4c([H])c([H])c([H])c5c([H])c([H])c([H])c([H])c45)[C@]3([H])C2([H])[H])c([H])c([H])c1OC([H])([H])[H]


 32 36  0  0  0  0  0  0  0  0999 V2000
    9.9198   49.3441  131.3602 N   0  0  0  0  0  0  0  0  0  0  0  0
    9.0915   48.1939  131.7765 C   0  0  0  0  0  0  0  0  0  0  0  0
    9.7036   47.1328  131.0095 C   0  0  0  0  0  0  0  0  0  0  0  0
    9.0156   46.0986  130.2272 C   0  0  0  0  0  0  0  0  0  0  0  0
    9.9605   46.5740  129.1234 C   0  0  0  0  0  0  0  0  0  0  0  0
    9.6051   47.8969  129.6411 C   0  0  0  0  0  0  0  0  0  0  0  0
   10.4646   48.9842  130.0466 C   0  0  0  0  0  0  0  0  0  0  0  0
    9.2770   44.7686  130.7374 N   0  0  0  0  0  0  0  0  0  0  0  0
   10.4668   44.4502  131.4493 C   0  0  0  0  0  0  0  0  0  0  0  0
   11.3015   45.3493  131.6302 O   0  0  0  0  0  0  0  0  0  0  0  0
    8.5514   44.0578  130.5551 H   0  0  0  0  0  0  0  0  0  0  0  0
   10.6210   43.0579  131.9211 C   0  0  0  0  0  0  0  0  0  0  0  0
   11.7391   42.3332  131.5225 C   0  0  0  0  0  0  0  0  0  0  0  0
   11.8939   41.0562  131.9489 C   0  0  0  0  0  0  0  0  0  0  0  0
   10.9593   40.4816  132.7652 C   0  0  0  0  0  0  0  0  0  0  0  0
    9.8270   41.2041  133.1733 C   0  0  0  0  0  0  0  0  0  0  0  0
    8.9084   40.5985  133.9960 C   0  0  0  0  0  0  0  0  0  0  0  0
    7.7740   41.2661  134.4309 C   0  0  0  0  0  0  0  0  0  0  0  0
    7.6290   42.5611  133.9898 C   0  0  0  0  0  0  0  0  0  0  0  0
    8.5251   43.2126  133.1625 C   0  0  0  0  0  0  0  0  0  0  0  0
    9.6595   42.5180  132.7394 C   0  0  0  0  0  0  0  0  0  0  0  0
    9.0097   50.7857  131.3438 S   0  0  0  0  0  0  0  0  0  0  0  0
    9.7411   51.8488  130.5905 O   0  0  0  0  0  0  0  0  0  0  0  0
    8.7204   51.1947  132.7463 O   0  0  0  0  0  0  0  0  0  0  0  0
    5.1071   49.8515  129.1387 C   0  0  0  0  0  0  0  0  0  0  0  0
    5.1047   50.2717  130.4480 C   0  0  0  0  0  0  0  0  0  0  0  0
    6.2732   50.5601  131.1287 C   0  0  0  0  0  0  0  0  0  0  0  0
    7.5004   50.4373  130.5175 C   0  0  0  0  0  0  0  0  0  0  0  0
    7.5180   50.0133  129.1925 C   0  0  0  0  0  0  0  0  0  0  0  0
    6.3482   49.7268  128.5175 C   0  0  0  0  0  0  0  0  0  0  0  0
    3.1168   50.6319  128.0401 C   0  0  0  0  0  0  0  0  0  0  0  0
    3.9213   49.5674  128.4784 O   0  0  0  0  0  0  0  0  0  0  0  0
 31 32  1  0  0  0
 32 25  1  0  0  0
 25 26  2  0  0  0
 26 27  1  0  0  0
 27 28  2  0  0  0
 28 29  1  0  0  0
 29 30  2  0  0  0
 28 22  1  0  0  0
 22 23  2  0  0  0
 22 24  2  0  0  0
 22  1  1  0  0  0
  1  2  1  0  0  0
  2  3  1  0  0  0
  3  4  1  0  0  0
  4  5  1  0  0  0
  5  6  1  0  0  0
  6  7  1  0  0  0
  4  8  1  0  0  0
  8  9  1  0  0  0
  9 10  2  0  0  0
  9 12  1  0  0  0
 12 13  2  0  0  0
 13 14  1  0  0  0
 14 15  2  0  0  0
 15 16  1  0  0  0
 16 17  2  0  0  0
 17 18  1  0  0  0
 18 19  2  0  0  0
 19 20  1  0  0  0
 20 21  2  0  0  0
 30 25  1  0  0  0
  7  1  1  0  0  0
 21 12  1  0  0  0
  6  3  1  0  0  0
 21 16  1  0  0  0
  8 11  1  0  0  0
M  END
> <minimizedAffinity>
29.16426

> <CNNscore>
0.5207679272

> <CNNaffinity>
7.5980329514

> <CNN_VS>
3.9568119049

> <CNNaffinity_variance>
3.0396585464

$$$$
[H]c1c([H])c(S(=O)(=O)N2C([H])([H])[C@@]3([H])C([H])([H])[C@@]([H])(N([H])C(=O)c4c([H])c([H])c([H])c5c([H])c([H])c([H])c([H])c45)[C@]3([H])C2([H])[H])c([H])c([H])c1OC([H])([H])[H]


 32 36  0  0  0  0  0  0  0  0999 V2000
    9.0447   42.5581  131.8079 N   0  0  0  0  0  0  0  0  0  0  0  0
    9.1643   44.0301  131.7720 C   0  0  0  0  0  0  0  0  0  0  0  0
    8.5977   44.3122  130.4728 C   0  0  0  0  0  0  0  0  0  0  0  0
    9.1382   45.2174  129.4513 C   0  0  0  0  0  0  0  0  0  0  0  0
    8.9701   43.9938  128.5504 C   0  0  0  0  0  0  0  0  0  0  0  0
    9.5165   43.2904  129.7128 C   0  0  0  0  0  0  0  0  0  0  0  0
    9.0073   42.1300  130.4053 C   0  0  0  0  0  0  0  0  0  0  0  0
    8.2410   46.3200  129.1739 N   0  0  0  0  0  0  0  0  0  0  0  0
    7.1702   46.6636  130.0452 C   0  0  0  0  0  0  0  0  0  0  0  0
    7.0082   45.9871  131.0719 O   0  0  0  0  0  0  0  0  0  0  0  0
    8.4184   46.8466  128.3044 H   0  0  0  0  0  0  0  0  0  0  0  0
    6.3218   47.8094  129.6556 C   0  0  0  0  0  0  0  0  0  0  0  0
    5.0710   47.5614  129.1002 C   0  0  0  0  0  0  0  0  0  0  0  0
    4.2821   48.6028  128.7399 C   0  0  0  0  0  0  0  0  0  0  0  0
    4.7099   49.8891  128.9197 C   0  0  0  0  0  0  0  0  0  0  0  0
    5.9706   50.1506  129.4792 C   0  0  0  0  0  0  0  0  0  0  0  0
    6.3692   51.4543  129.6490 C   0  0  0  0  0  0  0  0  0  0  0  0
    7.6023   51.7694  130.1984 C   0  0  0  0  0  0  0  0  0  0  0  0
    8.3931   50.7029  130.5588 C   0  0  0  0  0  0  0  0  0  0  0  0
    8.0361   49.3756  130.4077 C   0  0  0  0  0  0  0  0  0  0  0  0
    6.7888   49.0857  129.8525 C   0  0  0  0  0  0  0  0  0  0  0  0
   10.3202   41.8571  132.6957 S   0  0  0  0  0  0  0  0  0  0  0  0
   11.0803   40.8987  131.8376 O   0  0  0  0  0  0  0  0  0  0  0  0
    9.7637   41.1981  133.9099 O   0  0  0  0  0  0  0  0  0  0  0  0
   13.1216   45.2725  133.9008 C   0  0  0  0  0  0  0  0  0  0  0  0
   12.4123   44.5646  134.8424 C   0  0  0  0  0  0  0  0  0  0  0  0
   11.5636   43.5292  134.4968 C   0  0  0  0  0  0  0  0  0  0  0  0
   11.3917   43.1601  133.1819 C   0  0  0  0  0  0  0  0  0  0  0  0
   12.1034   43.8676  132.2183 C   0  0  0  0  0  0  0  0  0  0  0  0
   12.9496   44.9007  132.5690 C   0  0  0  0  0  0  0  0  0  0  0  0
   13.4913   47.2825  135.1660 C   0  0  0  0  0  0  0  0  0  0  0  0
   13.9658   46.3078  134.2731 O   0  0  0  0  0  0  0  0  0  0  0  0
 31 32  1  0  0  0
 32 25  1  0  0  0
 25 26  2  0  0  0
 26 27  1  0  0  0
 27 28  2  0  0  0
 28 29  1  0  0  0
 29 30  2  0  0  0
 28 22  1  0  0  0
 22 23  2  0  0  0
 22 24  2  0  0  0
 22  1  1  0  0  0
  1  2  1  0  0  0
  2  3  1  0  0  0
  3  4  1  0  0  0
  4  5  1  0  0  0
  5  6  1  0  0  0
  6  7  1  0  0  0
  4  8  1  0  0  0
  8  9  1  0  0  0
  9 10  2  0  0  0
  9 12  1  0  0  0
 12 13  2  0  0  0
 13 14  1  0  0  0
 14 15  2  0  0  0
 15 16  1  0  0  0
 16 17  2  0  0  0
 17 18  1  0  0  0
 18 19  2  0  0  0
 19 20  1  0  0  0
 20 21  2  0  0  0
 30 25  1  0  0  0
  7  1  1  0  0  0
 21 12  1  0  0  0
  6  3  1  0  0  0
 21 16  1  0  0  0
  8 11  1  0  0  0
M  END
> <minimizedAffinity>
8.42709

> <CNNscore>
0.4963387847

> <CNNaffinity>
7.5275740623

> <CNN_VS>
3.7362270355

> <CNNaffinity_variance>
1.2802708149

$$$$
[H]c1c([H])c(S(=O)(=O)N2C([H])([H])[C@@]3([H])C([H])([H])[C@@]([H])(N([H])C(=O)c4c([H])c([H])c([H])c5c([H])c([H])c([H])c([H])c45)[C@]3([H])C2([H])[H])c([H])c([H])c1OC([H])([H])[H]


 32 36  0  0  0  0  0  0  0  0999 V2000
   10.9807   45.8396  134.4351 N   0  0  0  0  0  0  0  0  0  0  0  0
   10.4043   45.8032  133.0754 C   0  0  0  0  0  0  0  0  0  0  0  0
    9.0920   46.3541  133.3271 C   0  0  0  0  0  0  0  0  0  0  0  0
    7.8092   45.8419  132.8302 C   0  0  0  0  0  0  0  0  0  0  0  0
    7.4233   45.9187  134.3075 C   0  0  0  0  0  0  0  0  0  0  0  0
    8.7637   45.3608  134.4982 C   0  0  0  0  0  0  0  0  0  0  0  0
    9.8351   45.8194  135.3510 C   0  0  0  0  0  0  0  0  0  0  0  0
    7.1435   46.7936  131.9649 N   0  0  0  0  0  0  0  0  0  0  0  0
    7.2285   46.7173  130.5470 C   0  0  0  0  0  0  0  0  0  0  0  0
    7.9002   45.8025  130.0471 O   0  0  0  0  0  0  0  0  0  0  0  0
    6.6018   47.5368  132.4331 H   0  0  0  0  0  0  0  0  0  0  0  0
    6.5057   47.7457  129.7693 C   0  0  0  0  0  0  0  0  0  0  0  0
    5.4355   47.3559  128.9711 C   0  0  0  0  0  0  0  0  0  0  0  0
    4.7629   48.2886  128.2540 C   0  0  0  0  0  0  0  0  0  0  0  0
    5.1314   49.6041  128.3127 C   0  0  0  0  0  0  0  0  0  0  0  0
    6.2100   50.0084  129.1150 C   0  0  0  0  0  0  0  0  0  0  0  0
    6.5527   51.3382  129.1540 C   0  0  0  0  0  0  0  0  0  0  0  0
    7.6072   51.7924  129.9307 C   0  0  0  0  0  0  0  0  0  0  0  0
    8.2817   50.8350  130.6526 C   0  0  0  0  0  0  0  0  0  0  0  0
    7.9745   49.4868  130.6459 C   0  0  0  0  0  0  0  0  0  0  0  0
    6.9077   49.0559  129.8558 C   0  0  0  0  0  0  0  0  0  0  0  0
   12.0659   44.5476  134.6797 S   0  0  0  0  0  0  0  0  0  0  0  0
   11.8819   43.9711  136.0458 O   0  0  0  0  0  0  0  0  0  0  0  0
   13.4571   45.0324  134.4617 O   0  0  0  0  0  0  0  0  0  0  0  0
   11.0146   41.3346  131.5915 C   0  0  0  0  0  0  0  0  0  0  0  0
   12.1812   42.0570  131.5018 C   0  0  0  0  0  0  0  0  0  0  0  0
   12.5157   43.0293  132.4263 C   0  0  0  0  0  0  0  0  0  0  0  0
   11.6859   43.3176  133.4860 C   0  0  0  0  0  0  0  0  0  0  0  0
   10.5020   42.5942  133.5896 C   0  0  0  0  0  0  0  0  0  0  0  0
   10.1730   41.6243  132.6637 C   0  0  0  0  0  0  0  0  0  0  0  0
    9.7537   40.6639  129.6582 C   0  0  0  0  0  0  0  0  0  0  0  0
   10.7015   40.3653  130.6506 O   0  0  0  0  0  0  0  0  0  0  0  0
 31 32  1  0  0  0
 32 25  1  0  0  0
 25 26  2  0  0  0
 26 27  1  0  0  0
 27 28  2  0  0  0
 28 29  1  0  0  0
 29 30  2  0  0  0
 28 22  1  0  0  0
 22 23  2  0  0  0
 22 24  2  0  0  0
 22  1  1  0  0  0
  1  2  1  0  0  0
  2  3  1  0  0  0
  3  4  1  0  0  0
  4  5  1  0  0  0
  5  6  1  0  0  0
  6  7  1  0  0  0
  4  8  1  0  0  0
  8  9  1  0  0  0
  9 10  2  0  0  0
  9 12  1  0  0  0
 12 13  2  0  0  0
 13 14  1  0  0  0
 14 15  2  0  0  0
 15 16  1  0  0  0
 16 17  2  0  0  0
 17 18  1  0  0  0
 18 19  2  0  0  0
 19 20  1  0  0  0
 20 21  2  0  0  0
 30 25  1  0  0  0
  7  1  1  0  0  0
 21 12  1  0  0  0
  6  3  1  0  0  0
 21 16  1  0  0  0
  8 11  1  0  0  0
M  END
> <minimizedAffinity>
14.60022

> <CNNscore>
0.4882970452

> <CNNaffinity>
7.3989729881

> <CNN_VS>
3.6128966808

> <CNNaffinity_variance>
1.7545936108

$$$$
[H]c1c([H])c(S(=O)(=O)N2C([H])([H])[C@@]3([H])C([H])([H])[C@@]([H])(N([H])C(=O)c4c([H])c([H])c([H])c5c([H])c([H])c([H])c([H])c45)[C@]3([H])C2([H])[H])c([H])c([H])c1OC([H])([H])[H]


 32 36  0  0  0  0  0  0  0  0999 V2000
    8.7943   42.8807  129.3590 N   0  0  0  0  0  0  0  0  0  0  0  0
    8.6658   44.0906  130.1970 C   0  0  0  0  0  0  0  0  0  0  0  0
    8.9294   45.1216  129.2190 C   0  0  0  0  0  0  0  0  0  0  0  0
    9.8059   46.2881  129.3801 C   0  0  0  0  0  0  0  0  0  0  0  0
   10.4027   45.7825  128.0666 C   0  0  0  0  0  0  0  0  0  0  0  0
   10.2731   44.4791  128.7213 C   0  0  0  0  0  0  0  0  0  0  0  0
    9.6563   43.2666  128.2366 C   0  0  0  0  0  0  0  0  0  0  0  0
    9.0731   47.5340  129.2895 N   0  0  0  0  0  0  0  0  0  0  0  0
    8.5871   48.2130  130.4413 C   0  0  0  0  0  0  0  0  0  0  0  0
    8.8021   47.7099  131.5542 O   0  0  0  0  0  0  0  0  0  0  0  0
    8.9186   47.9059  128.3394 H   0  0  0  0  0  0  0  0  0  0  0  0
    7.8529   49.4770  130.2222 C   0  0  0  0  0  0  0  0  0  0  0  0
    8.5097   50.6828  130.4439 C   0  0  0  0  0  0  0  0  0  0  0  0
    7.8490   51.8493  130.2455 C   0  0  0  0  0  0  0  0  0  0  0  0
    6.5461   51.8441  129.8304 C   0  0  0  0  0  0  0  0  0  0  0  0
    5.8738   50.6328  129.6039 C   0  0  0  0  0  0  0  0  0  0  0  0
    4.5658   50.6625  129.1846 C   0  0  0  0  0  0  0  0  0  0  0  0
    3.8554   49.4968  128.9438 C   0  0  0  0  0  0  0  0  0  0  0  0
    4.5378   48.3201  129.1501 C   0  0  0  0  0  0  0  0  0  0  0  0
    5.8524   48.2396  129.5710 C   0  0  0  0  0  0  0  0  0  0  0  0
    6.5454   49.4282  129.8057 C   0  0  0  0  0  0  0  0  0  0  0  0
    9.4036   41.5681  130.2604 S   0  0  0  0  0  0  0  0  0  0  0  0
   10.2937   40.7250  129.4064 O   0  0  0  0  0  0  0  0  0  0  0  0
    8.2631   40.7886  130.8170 O   0  0  0  0  0  0  0  0  0  0  0  0
   11.9140   43.3306  133.6599 C   0  0  0  0  0  0  0  0  0  0  0  0
   10.5976   42.9818  133.8509 C   0  0  0  0  0  0  0  0  0  0  0  0
    9.8254   42.4464  132.8365 C   0  0  0  0  0  0  0  0  0  0  0  0
   10.3477   42.2384  131.5801 C   0  0  0  0  0  0  0  0  0  0  0  0
   11.6786   42.5866  131.3725 C   0  0  0  0  0  0  0  0  0  0  0  0
   12.4452   43.1206  132.3890 C   0  0  0  0  0  0  0  0  0  0  0  0
   13.0555   45.2145  134.6217 C   0  0  0  0  0  0  0  0  0  0  0  0
   12.6671   43.8669  134.6935 O   0  0  0  0  0  0  0  0  0  0  0  0
 31 32  1  0  0  0
 32 25  1  0  0  0
 25 26  2  0  0  0
 26 27  1  0  0  0
 27 28  2  0  0  0
 28 29  1  0  0  0
 29 30  2  0  0  0
 28 22  1  0  0  0
 22 23  2  0  0  0
 22 24  2  0  0  0
 22  1  1  0  0  0
  1  2  1  0  0  0
  2  3  1  0  0  0
  3  4  1  0  0  0
  4  5  1  0  0  0
  5  6  1  0  0  0
  6  7  1  0  0  0
  4  8  1  0  0  0
  8  9  1  0  0  0
  9 10  2  0  0  0
  9 12  1  0  0  0
 12 13  2  0  0  0
 13 14  1  0  0  0
 14 15  2  0  0  0
 15 16  1  0  0  0
 16 17  2  0  0  0
 17 18  1  0  0  0
 18 19  2  0  0  0
 19 20  1  0  0  0
 20 21  2  0  0  0
 30 25  1  0  0  0
  7  1  1  0  0  0
 21 12  1  0  0  0
  6  3  1  0  0  0
 21 16  1  0  0  0
  8 11  1  0  0  0
M  END
> <minimizedAffinity>
10.49711

> <CNNscore>
0.4804749489

> <CNNaffinity>
7.4067525864

> <CNN_VS>
3.5587589741

> <CNNaffinity_variance>
1.4979443550

$$$$
[H]c1c([H])c(S(=O)(=O)N2C([H])([H])[C@@]3([H])C([H])([H])[C@@]([H])(N([H])C(=O)c4c([H])c([H])c([H])c5c([H])c([H])c([H])c([H])c45)[C@]3([H])C2([H])[H])c([H])c([H])c1OC([H])([H])[H]


 32 36  0  0  0  0  0  0  0  0999 V2000
   11.6087   45.7277  134.5027 N   0  0  0  0  0  0  0  0  0  0  0  0
   10.8962   46.0018  133.2379 C   0  0  0  0  0  0  0  0  0  0  0  0
    9.8414   46.8705  133.7087 C   0  0  0  0  0  0  0  0  0  0  0  0
    8.4168   46.7978  133.3619 C   0  0  0  0  0  0  0  0  0  0  0  0
    8.2413   46.8215  134.8804 C   0  0  0  0  0  0  0  0  0  0  0  0
    9.3711   45.8906  134.8422 C   0  0  0  0  0  0  0  0  0  0  0  0
   10.6197   45.9337  135.5664 C   0  0  0  0  0  0  0  0  0  0  0  0
    7.9664   47.9859  132.6668 N   0  0  0  0  0  0  0  0  0  0  0  0
    8.2673   48.2224  131.2967 C   0  0  0  0  0  0  0  0  0  0  0  0
    8.9409   47.3770  130.6888 O   0  0  0  0  0  0  0  0  0  0  0  0
    7.4133   48.6582  133.2209 H   0  0  0  0  0  0  0  0  0  0  0  0
    7.7523   49.4711  130.6965 C   0  0  0  0  0  0  0  0  0  0  0  0
    8.4956   50.6387  130.8328 C   0  0  0  0  0  0  0  0  0  0  0  0
    8.0360   51.7905  130.2862 C   0  0  0  0  0  0  0  0  0  0  0  0
    6.8504   51.8077  129.6049 C   0  0  0  0  0  0  0  0  0  0  0  0
    6.0923   50.6349  129.4615 C   0  0  0  0  0  0  0  0  0  0  0  0
    4.9070   50.6857  128.7688 C   0  0  0  0  0  0  0  0  0  0  0  0
    4.1202   49.5577  128.5952 C   0  0  0  0  0  0  0  0  0  0  0  0
    4.5982   48.3958  129.1559 C   0  0  0  0  0  0  0  0  0  0  0  0
    5.7834   48.2952  129.8609 C   0  0  0  0  0  0  0  0  0  0  0  0
    6.5572   49.4459  130.0208 C   0  0  0  0  0  0  0  0  0  0  0  0
   12.2866   44.1634  134.5022 S   0  0  0  0  0  0  0  0  0  0  0  0
   11.8433   43.4089  135.7133 O   0  0  0  0  0  0  0  0  0  0  0  0
   13.7698   44.2756  134.4269 O   0  0  0  0  0  0  0  0  0  0  0  0
   10.6832   42.0036  130.7968 C   0  0  0  0  0  0  0  0  0  0  0  0
   11.8277   42.7638  130.7411 C   0  0  0  0  0  0  0  0  0  0  0  0
   12.3273   43.4210  131.8503 C   0  0  0  0  0  0  0  0  0  0  0  0
   11.6930   43.3409  133.0692 C   0  0  0  0  0  0  0  0  0  0  0  0
   10.5338   42.5749  133.1405 C   0  0  0  0  0  0  0  0  0  0  0  0
   10.0394   41.9206  132.0298 C   0  0  0  0  0  0  0  0  0  0  0  0
    9.8092   42.1223  128.5609 C   0  0  0  0  0  0  0  0  0  0  0  0
   10.2019   41.3550  129.6696 O   0  0  0  0  0  0  0  0  0  0  0  0
 31 32  1  0  0  0
 32 25  1  0  0  0
 25 26  2  0  0  0
 26 27  1  0  0  0
 27 28  2  0  0  0
 28 29  1  0  0  0
 29 30  2  0  0  0
 28 22  1  0  0  0
 22 23  2  0  0  0
 22 24  2  0  0  0
 22  1  1  0  0  0
  1  2  1  0  0  0
  2  3  1  0  0  0
  3  4  1  0  0  0
  4  5  1  0  0  0
  5  6  1  0  0  0
  6  7  1  0  0  0
  4  8  1  0  0  0
  8  9  1  0  0  0
  9 10  2  0  0  0
  9 12  1  0  0  0
 12 13  2  0  0  0
 13 14  1  0  0  0
 14 15  2  0  0  0
 15 16  1  0  0  0
 16 17  2  0  0  0
 17 18  1  0  0  0
 18 19  2  0  0  0
 19 20  1  0  0  0
 20 21  2  0  0  0
 30 25  1  0  0  0
  7  1  1  0  0  0
 21 12  1  0  0  0
  6  3  1  0  0  0
 21 16  1  0  0  0
  8 11  1  0  0  0
M  END
> <minimizedAffinity>
12.74127

> <CNNscore>
0.4800567031

> <CNNaffinity>
7.5423860550

> <CNN_VS>
3.6207730770

> <CNNaffinity_variance>
1.7540998459

$$$$
[H]c1c([H])c(S(=O)(=O)N2C([H])([H])[C@@]3([H])C([H])([H])[C@@]([H])(N([H])C(=O)c4c([H])c([H])c([H])c5c([H])c([H])c([H])c([H])c45)[C@]3([H])C2([H])[H])c([H])c([H])c1OC([H])([H])[H]


 32 36  0  0  0  0  0  0  0  0999 V2000
    8.8505   42.5299  129.3810 N   0  0  0  0  0  0  0  0  0  0  0  0
    8.4841   43.7084  130.1930 C   0  0  0  0  0  0  0  0  0  0  0  0
    8.6575   44.7653  129.2225 C   0  0  0  0  0  0  0  0  0  0  0  0
    9.3358   46.0507  129.4286 C   0  0  0  0  0  0  0  0  0  0  0  0
   10.0915   45.6380  128.1654 C   0  0  0  0  0  0  0  0  0  0  0  0
   10.1136   44.3312  128.8260 C   0  0  0  0  0  0  0  0  0  0  0  0
    9.7208   43.0388  128.3154 C   0  0  0  0  0  0  0  0  0  0  0  0
    8.4325   47.1720  129.2726 N   0  0  0  0  0  0  0  0  0  0  0  0
    7.1014   47.1484  129.7739 C   0  0  0  0  0  0  0  0  0  0  0  0
    6.7123   46.1270  130.3598 O   0  0  0  0  0  0  0  0  0  0  0  0
    8.8060   47.9945  128.7737 H   0  0  0  0  0  0  0  0  0  0  0  0
    6.2739   48.3532  129.5536 C   0  0  0  0  0  0  0  0  0  0  0  0
    4.9901   48.2022  129.0403 C   0  0  0  0  0  0  0  0  0  0  0  0
    4.2200   49.2982  128.8349 C   0  0  0  0  0  0  0  0  0  0  0  0
    4.6987   50.5448  129.1291 C   0  0  0  0  0  0  0  0  0  0  0  0
    5.9930   50.7085  129.6474 C   0  0  0  0  0  0  0  0  0  0  0  0
    6.4427   51.9744  129.9351 C   0  0  0  0  0  0  0  0  0  0  0  0
    7.7108   52.1933  130.4505 C   0  0  0  0  0  0  0  0  0  0  0  0
    8.4821   51.0722  130.6532 C   0  0  0  0  0  0  0  0  0  0  0  0
    8.0740   49.7797  130.3796 C   0  0  0  0  0  0  0  0  0  0  0  0
    6.7922   49.5869  129.8617 C   0  0  0  0  0  0  0  0  0  0  0  0
    9.5856   41.3257  130.3382 S   0  0  0  0  0  0  0  0  0  0  0  0
   10.5533   40.5351  129.5191 O   0  0  0  0  0  0  0  0  0  0  0  0
    8.5270   40.4651  130.9357 O   0  0  0  0  0  0  0  0  0  0  0  0
   11.9142   43.4787  133.6409 C   0  0  0  0  0  0  0  0  0  0  0  0
   10.6362   43.0172  133.8526 C   0  0  0  0  0  0  0  0  0  0  0  0
    9.9193   42.3632  132.8676 C   0  0  0  0  0  0  0  0  0  0  0  0
   10.4606   42.1448  131.6211 C   0  0  0  0  0  0  0  0  0  0  0  0
   11.7531   42.6062  131.3927 C   0  0  0  0  0  0  0  0  0  0  0  0
   12.4647   43.2585  132.3799 C   0  0  0  0  0  0  0  0  0  0  0  0
   12.9051   45.4974  134.4897 C   0  0  0  0  0  0  0  0  0  0  0  0
   12.6121   44.1327  134.6451 O   0  0  0  0  0  0  0  0  0  0  0  0
 31 32  1  0  0  0
 32 25  1  0  0  0
 25 26  2  0  0  0
 26 27  1  0  0  0
 27 28  2  0  0  0
 28 29  1  0  0  0
 29 30  2  0  0  0
 28 22  1  0  0  0
 22 23  2  0  0  0
 22 24  2  0  0  0
 22  1  1  0  0  0
  1  2  1  0  0  0
  2  3  1  0  0  0
  3  4  1  0  0  0
  4  5  1  0  0  0
  5  6  1  0  0  0
  6  7  1  0  0  0
  4  8  1  0  0  0
  8  9  1  0  0  0
  9 10  2  0  0  0
  9 12  1  0  0  0
 12 13  2  0  0  0
 13 14  1  0  0  0
 14 15  2  0  0  0
 15 16  1  0  0  0
 16 17  2  0  0  0
 17 18  1  0  0  0
 18 19  2  0  0  0
 19 20  1  0  0  0
 20 21  2  0  0  0
 30 25  1  0  0  0
  7  1  1  0  0  0
 21 12  1  0  0  0
  6  3  1  0  0  0
 21 16  1  0  0  0
  8 11  1  0  0  0
M  END
> <minimizedAffinity>
13.28817

> <CNNscore>
0.4766837358

> <CNNaffinity>
7.2908287048

> <CNN_VS>
3.4754195213

> <CNNaffinity_variance>
1.6056725979

$$$$
[H]c1c([H])c(S(=O)(=O)N2C([H])([H])[C@@]3([H])C([H])([H])[C@@]([H])(N([H])C(=O)c4c([H])c([H])c([H])c5c([H])c([H])c([H])c([H])c45)[C@]3([H])C2([H])[H])c([H])c([H])c1OC([H])([H])[H]


 32 36  0  0  0  0  0  0  0  0999 V2000
    8.0782   47.3086  128.5433 N   0  0  0  0  0  0  0  0  0  0  0  0
    7.8572   46.8850  129.9412 C   0  0  0  0  0  0  0  0  0  0  0  0
    8.7023   45.7141  130.0019 C   0  0  0  0  0  0  0  0  0  0  0  0
    8.3610   44.4076  130.5777 C   0  0  0  0  0  0  0  0  0  0  0  0
    8.8399   43.8966  129.2188 C   0  0  0  0  0  0  0  0  0  0  0  0
    8.0807   45.0467  128.7235 C   0  0  0  0  0  0  0  0  0  0  0  0
    8.4925   46.0990  127.8243 C   0  0  0  0  0  0  0  0  0  0  0  0
    9.2105   44.0713  131.7014 N   0  0  0  0  0  0  0  0  0  0  0  0
   10.5048   44.6372  131.8693 C   0  0  0  0  0  0  0  0  0  0  0  0
   10.9090   45.4421  131.0168 O   0  0  0  0  0  0  0  0  0  0  0  0
    8.8268   43.3934  132.3783 H   0  0  0  0  0  0  0  0  0  0  0  0
   11.2785   44.2168  133.0564 C   0  0  0  0  0  0  0  0  0  0  0  0
   12.4539   43.4966  132.8721 C   0  0  0  0  0  0  0  0  0  0  0  0
   13.1740   43.1061  133.9517 C   0  0  0  0  0  0  0  0  0  0  0  0
   12.7505   43.4164  135.2144 C   0  0  0  0  0  0  0  0  0  0  0  0
   11.5656   44.1428  135.4117 C   0  0  0  0  0  0  0  0  0  0  0  0
   11.1696   44.4407  136.6931 C   0  0  0  0  0  0  0  0  0  0  0  0
   10.0099   45.1569  136.9452 C   0  0  0  0  0  0  0  0  0  0  0  0
    9.2883   45.5461  135.8404 C   0  0  0  0  0  0  0  0  0  0  0  0
    9.6458   45.2706  134.5334 C   0  0  0  0  0  0  0  0  0  0  0  0
   10.8185   44.5483  134.3071 C   0  0  0  0  0  0  0  0  0  0  0  0
    6.6819   48.0385  127.8920 S   0  0  0  0  0  0  0  0  0  0  0  0
    5.5675   47.0459  127.8187 O   0  0  0  0  0  0  0  0  0  0  0  0
    7.0091   48.6094  126.5560 O   0  0  0  0  0  0  0  0  0  0  0  0
    5.5270   51.4563  130.7116 C   0  0  0  0  0  0  0  0  0  0  0  0
    4.6668   50.4122  130.4651 C   0  0  0  0  0  0  0  0  0  0  0  0
    4.9997   49.3709  129.6184 C   0  0  0  0  0  0  0  0  0  0  0  0
    6.2188   49.3360  128.9803 C   0  0  0  0  0  0  0  0  0  0  0  0
    7.0994   50.3859  129.2206 C   0  0  0  0  0  0  0  0  0  0  0  0
    6.7619   51.4231  130.0671 C   0  0  0  0  0  0  0  0  0  0  0  0
    3.8155   52.8522  131.6602 C   0  0  0  0  0  0  0  0  0  0  0  0
    5.1689   52.4896  131.5643 O   0  0  0  0  0  0  0  0  0  0  0  0
 31 32  1  0  0  0
 32 25  1  0  0  0
 25 26  2  0  0  0
 26 27  1  0  0  0
 27 28  2  0  0  0
 28 29  1  0  0  0
 29 30  2  0  0  0
 28 22  1  0  0  0
 22 23  2  0  0  0
 22 24  2  0  0  0
 22  1  1  0  0  0
  1  2  1  0  0  0
  2  3  1  0  0  0
  3  4  1  0  0  0
  4  5  1  0  0  0
  5  6  1  0  0  0
  6  7  1  0  0  0
  4  8  1  0  0  0
  8  9  1  0  0  0
  9 10  2  0  0  0
  9 12  1  0  0  0
 12 13  2  0  0  0
 13 14  1  0  0  0
 14 15  2  0  0  0
 15 16  1  0  0  0
 16 17  2  0  0  0
 17 18  1  0  0  0
 18 19  2  0  0  0
 19 20  1  0  0  0
 20 21  2  0  0  0
 30 25  1  0  0  0
  7  1  1  0  0  0
 21 12  1  0  0  0
  6  3  1  0  0  0
 21 16  1  0  0  0
  8 11  1  0  0  0
M  END
> <minimizedAffinity>
25.42673

> <CNNscore>
0.4735045433

> <CNNaffinity>
7.3906006813

> <CNN_VS>
3.4994831085

> <CNNaffinity_variance>
2.6834149361

$$$$
