[H]c1oc2c([H])c([H])c([H])c(N([H])C(=O)c3c([H])n(C(=O)N([H])[H])c4c([H])c(O[C@@]([H])(C([H])([H])[H])C(F)(F)F)c([H])c([H])c34)c2c1C([H])([H])[H]


 35 38  0  0  0  0  0  0  0  0999 V2000
   13.3278   46.3578  134.7890 C   0  0  0  0  0  0  0  0  0  0  0  0
   13.3588   45.5673  133.6677 C   0  0  0  0  0  0  0  0  0  0  0  0
   12.1629   45.1547  133.0582 C   0  0  0  0  0  0  0  0  0  0  0  0
   10.9755   45.5501  133.5958 C   0  0  0  0  0  0  0  0  0  0  0  0
    9.6866   45.2822  133.1900 C   0  0  0  0  0  0  0  0  0  0  0  0
    8.8401   45.9167  134.0737 C   0  0  0  0  0  0  0  0  0  0  0  0
    9.5953   46.5630  135.0059 N   0  0  0  0  0  0  0  0  0  0  0  0
    9.0582   47.3256  136.0776 C   0  0  0  0  0  0  0  0  0  0  0  0
    7.6657   47.4641  136.2465 N   0  0  0  0  0  0  0  0  0  0  0  0
    9.7950   47.9008  136.9086 O   0  0  0  0  0  0  0  0  0  0  0  0
   10.8916   46.3415  134.7172 C   0  0  0  0  0  0  0  0  0  0  0  0
   12.0716   46.7325  135.2957 C   0  0  0  0  0  0  0  0  0  0  0  0
    7.1219   48.0241  135.5757 H   0  0  0  0  0  0  0  0  0  0  0  0
    7.1973   47.0054  137.0392 H   0  0  0  0  0  0  0  0  0  0  0  0
    9.2778   44.4689  132.0275 C   0  0  0  0  0  0  0  0  0  0  0  0
    8.1893   43.8865  132.1275 O   0  0  0  0  0  0  0  0  0  0  0  0
   10.1540   44.4308  130.9241 N   0  0  0  0  0  0  0  0  0  0  0  0
   11.0104   45.0262  131.0417 H   0  0  0  0  0  0  0  0  0  0  0  0
    9.9629   43.7258  129.7073 C   0  0  0  0  0  0  0  0  0  0  0  0
    9.5676   42.4079  129.6556 C   0  0  0  0  0  0  0  0  0  0  0  0
    9.3129   41.7213  128.4616 C   0  0  0  0  0  0  0  0  0  0  0  0
    9.4580   42.3743  127.2728 C   0  0  0  0  0  0  0  0  0  0  0  0
    9.8529   43.6932  127.2825 C   0  0  0  0  0  0  0  0  0  0  0  0
   10.0618   44.5198  126.2917 O   0  0  0  0  0  0  0  0  0  0  0  0
   10.4330   45.6870  126.7152 C   0  0  0  0  0  0  0  0  0  0  0  0
   10.4818   45.6551  128.1246 C   0  0  0  0  0  0  0  0  0  0  0  0
   10.8855   46.7847  128.9716 C   0  0  0  0  0  0  0  0  0  0  0  0
   10.1084   44.3820  128.4753 C   0  0  0  0  0  0  0  0  0  0  0  0
   14.4787   46.7776  135.4075 O   0  0  0  0  0  0  0  0  0  0  0  0
   13.5649   48.9336  135.9780 C   0  0  0  0  0  0  0  0  0  0  0  0
   14.7894   48.0268  135.8981 C   0  0  0  0  0  0  0  0  0  0  0  0
   15.2950   47.9431  137.3507 C   0  0  0  0  0  0  0  0  0  0  0  0
   15.4817   46.6110  137.6182 F   0  0  0  0  0  0  0  0  0  0  0  0
   16.5123   48.6091  137.3907 F   0  0  0  0  0  0  0  0  0  0  0  0
   14.4166   48.5249  138.2137 F   0  0  0  0  0  0  0  0  0  0  0  0
 30 31  1  0  0  0
 31 29  1  0  0  0
 29  1  1  0  0  0
  1  2  2  0  0  0
  2  3  1  0  0  0
  3  4  2  0  0  0
  4  5  1  0  0  0
  5  6  2  0  0  0
  6  7  1  0  0  0
  7  8  1  0  0  0
  8  9  1  0  0  0
  8 10  2  0  0  0
  7 11  1  0  0  0
 11 12  2  0  0  0
  5 15  1  0  0  0
 15 16  2  0  0  0
 15 17  1  0  0  0
 17 19  1  0  0  0
 19 20  2  0  0  0
 20 21  1  0  0  0
 21 22  2  0  0  0
 22 23  1  0  0  0
 23 24  1  0  0  0
 24 25  1  0  0  0
 25 26  2  0  0  0
 26 27  1  0  0  0
 26 28  1  0  0  0
 31 32  1  0  0  0
 32 33  1  0  0  0
 32 34  1  0  0  0
 32 35  1  0  0  0
 12  1  1  0  0  0
 28 19  1  0  0  0
 11  4  1  0  0  0
 28 23  2  0  0  0
  9 13  1  0  0  0
  9 14  1  0  0  0
 17 18  1  0  0  0
M  END
> <minimizedAffinity>
25.41754

> <CNNscore>
0.5410805345

> <CNNaffinity>
7.1822562218

> <CNN_VS>
3.8861789703

> <CNNaffinity_variance>
2.1684513092

$$$$
[H]c1oc2c([H])c([H])c([H])c(N([H])C(=O)c3c([H])n(C(=O)N([H])[H])c4c([H])c(O[C@@]([H])(C([H])([H])[H])C(F)(F)F)c([H])c([H])c34)c2c1C([H])([H])[H]


 35 38  0  0  0  0  0  0  0  0999 V2000
    9.9542   45.5325  127.8531 C   0  0  0  0  0  0  0  0  0  0  0  0
   10.5454   45.1139  129.0185 C   0  0  0  0  0  0  0  0  0  0  0  0
   10.2727   45.7730  130.2281 C   0  0  0  0  0  0  0  0  0  0  0  0
    9.4148   46.8311  130.2263 C   0  0  0  0  0  0  0  0  0  0  0  0
    8.9920   47.6302  131.2657 C   0  0  0  0  0  0  0  0  0  0  0  0
    8.1233   48.5612  130.7377 C   0  0  0  0  0  0  0  0  0  0  0  0
    8.0143   48.3382  129.3977 N   0  0  0  0  0  0  0  0  0  0  0  0
    7.2008   49.1094  128.5248 C   0  0  0  0  0  0  0  0  0  0  0  0
    6.4319   50.1872  129.0085 N   0  0  0  0  0  0  0  0  0  0  0  0
    7.1348   48.8641  127.3002 O   0  0  0  0  0  0  0  0  0  0  0  0
    8.7976   47.2885  129.0858 C   0  0  0  0  0  0  0  0  0  0  0  0
    9.0785   46.6300  127.9164 C   0  0  0  0  0  0  0  0  0  0  0  0
    5.6155   50.0051  129.6082 H   0  0  0  0  0  0  0  0  0  0  0  0
    6.6887   51.1521  128.7608 H   0  0  0  0  0  0  0  0  0  0  0  0
    9.3888   47.5186  132.6833 C   0  0  0  0  0  0  0  0  0  0  0  0
    9.6460   48.5834  133.2612 O   0  0  0  0  0  0  0  0  0  0  0  0
    9.4379   46.2254  133.2418 N   0  0  0  0  0  0  0  0  0  0  0  0
    9.1492   45.4654  132.5778 H   0  0  0  0  0  0  0  0  0  0  0  0
    9.7837   45.8848  134.5755 C   0  0  0  0  0  0  0  0  0  0  0  0
    9.3130   46.5701  135.6729 C   0  0  0  0  0  0  0  0  0  0  0  0
    9.5949   46.2035  136.9951 C   0  0  0  0  0  0  0  0  0  0  0  0
   10.3764   45.1109  137.2321 C   0  0  0  0  0  0  0  0  0  0  0  0
   10.8673   44.3995  136.1606 C   0  0  0  0  0  0  0  0  0  0  0  0
   11.6278   43.3368  136.1291 O   0  0  0  0  0  0  0  0  0  0  0  0
   11.8787   42.9663  134.9129 C   0  0  0  0  0  0  0  0  0  0  0  0
   11.2298   43.8573  134.0326 C   0  0  0  0  0  0  0  0  0  0  0  0
   11.2979   43.7811  132.5677 C   0  0  0  0  0  0  0  0  0  0  0  0
   10.5871   44.7643  134.8373 C   0  0  0  0  0  0  0  0  0  0  0  0
   10.2002   44.9095  126.6553 O   0  0  0  0  0  0  0  0  0  0  0  0
    9.6655   45.0588  124.3100 C   0  0  0  0  0  0  0  0  0  0  0  0
   10.5873   45.4654  125.4558 C   0  0  0  0  0  0  0  0  0  0  0  0
   10.4860   47.0018  125.4973 C   0  0  0  0  0  0  0  0  0  0  0  0
    9.1477   47.3011  125.4799 F   0  0  0  0  0  0  0  0  0  0  0  0
   11.0465   47.4084  126.7004 F   0  0  0  0  0  0  0  0  0  0  0  0
   11.1555   47.5692  124.4558 F   0  0  0  0  0  0  0  0  0  0  0  0
 30 31  1  0  0  0
 31 29  1  0  0  0
 29  1  1  0  0  0
  1  2  2  0  0  0
  2  3  1  0  0  0
  3  4  2  0  0  0
  4  5  1  0  0  0
  5  6  2  0  0  0
  6  7  1  0  0  0
  7  8  1  0  0  0
  8  9  1  0  0  0
  8 10  2  0  0  0
  7 11  1  0  0  0
 11 12  2  0  0  0
  5 15  1  0  0  0
 15 16  2  0  0  0
 15 17  1  0  0  0
 17 19  1  0  0  0
 19 20  2  0  0  0
 20 21  1  0  0  0
 21 22  2  0  0  0
 22 23  1  0  0  0
 23 24  1  0  0  0
 24 25  1  0  0  0
 25 26  2  0  0  0
 26 27  1  0  0  0
 26 28  1  0  0  0
 31 32  1  0  0  0
 32 33  1  0  0  0
 32 34  1  0  0  0
 32 35  1  0  0  0
 12  1  1  0  0  0
 28 19  1  0  0  0
 11  4  1  0  0  0
 28 23  2  0  0  0
  9 13  1  0  0  0
  9 14  1  0  0  0
 17 18  1  0  0  0
M  END
> <minimizedAffinity>
24.28776

> <CNNscore>
0.5150856376

> <CNNaffinity>
7.6096677780

> <CNN_VS>
3.9196305275

> <CNNaffinity_variance>
1.9582865238

$$$$
[H]c1oc2c([H])c([H])c([H])c(N([H])C(=O)c3c([H])n(C(=O)N([H])[H])c4c([H])c(O[C@@]([H])(C([H])([H])[H])C(F)(F)F)c([H])c([H])c34)c2c1C([H])([H])[H]


 35 38  0  0  0  0  0  0  0  0999 V2000
   11.6340   44.3910  132.3902 C   0  0  0  0  0  0  0  0  0  0  0  0
   10.6086   44.8791  131.6200 C   0  0  0  0  0  0  0  0  0  0  0  0
   10.1843   46.2098  131.7656 C   0  0  0  0  0  0  0  0  0  0  0  0
   10.8047   47.0058  132.6804 C   0  0  0  0  0  0  0  0  0  0  0  0
   10.5763   48.3245  133.0066 C   0  0  0  0  0  0  0  0  0  0  0  0
   11.4747   48.6620  133.9961 C   0  0  0  0  0  0  0  0  0  0  0  0
   12.2415   47.5701  134.2731 N   0  0  0  0  0  0  0  0  0  0  0  0
   13.2773   47.5492  135.2453 C   0  0  0  0  0  0  0  0  0  0  0  0
   13.5841   48.6948  136.0070 N   0  0  0  0  0  0  0  0  0  0  0  0
   13.9539   46.5200  135.4626 O   0  0  0  0  0  0  0  0  0  0  0  0
   11.8361   46.5640  133.4753 C   0  0  0  0  0  0  0  0  0  0  0  0
   12.2339   45.2615  133.3162 C   0  0  0  0  0  0  0  0  0  0  0  0
   14.0253   49.5072  135.5547 H   0  0  0  0  0  0  0  0  0  0  0  0
   13.3664   48.7155  137.0123 H   0  0  0  0  0  0  0  0  0  0  0  0
    9.5616   49.2180  132.4133 C   0  0  0  0  0  0  0  0  0  0  0  0
    9.4737   50.3480  132.9127 O   0  0  0  0  0  0  0  0  0  0  0  0
    8.7954   48.7083  131.3457 N   0  0  0  0  0  0  0  0  0  0  0  0
    9.0592   47.7327  131.0621 H   0  0  0  0  0  0  0  0  0  0  0  0
    7.7777   49.3870  130.6260 C   0  0  0  0  0  0  0  0  0  0  0  0
    7.7217   50.7582  130.5149 C   0  0  0  0  0  0  0  0  0  0  0  0
    6.7605   51.4356  129.7539 C   0  0  0  0  0  0  0  0  0  0  0  0
    5.8185   50.7177  129.0773 C   0  0  0  0  0  0  0  0  0  0  0  0
    5.8403   49.3439  129.1640 C   0  0  0  0  0  0  0  0  0  0  0  0
    5.0563   48.4504  128.6202 O   0  0  0  0  0  0  0  0  0  0  0  0
    5.4046   47.2467  128.9504 C   0  0  0  0  0  0  0  0  0  0  0  0
    6.5300   47.3247  129.7972 C   0  0  0  0  0  0  0  0  0  0  0  0
    7.2020   46.1671  130.4012 C   0  0  0  0  0  0  0  0  0  0  0  0
    6.8005   48.6641  129.9246 C   0  0  0  0  0  0  0  0  0  0  0  0
   12.0716   43.0957  132.2716 O   0  0  0  0  0  0  0  0  0  0  0  0
   10.2668   41.8465  133.2672 C   0  0  0  0  0  0  0  0  0  0  0  0
   11.3300   41.9386  132.1767 C   0  0  0  0  0  0  0  0  0  0  0  0
   10.5291   41.8984  130.8616 C   0  0  0  0  0  0  0  0  0  0  0  0
   10.5042   40.5859  130.4647 F   0  0  0  0  0  0  0  0  0  0  0  0
    9.2433   42.3268  131.1618 F   0  0  0  0  0  0  0  0  0  0  0  0
   11.0838   42.7119  129.9205 F   0  0  0  0  0  0  0  0  0  0  0  0
 30 31  1  0  0  0
 31 29  1  0  0  0
 29  1  1  0  0  0
  1  2  2  0  0  0
  2  3  1  0  0  0
  3  4  2  0  0  0
  4  5  1  0  0  0
  5  6  2  0  0  0
  6  7  1  0  0  0
  7  8  1  0  0  0
  8  9  1  0  0  0
  8 10  2  0  0  0
  7 11  1  0  0  0
 11 12  2  0  0  0
  5 15  1  0  0  0
 15 16  2  0  0  0
 15 17  1  0  0  0
 17 19  1  0  0  0
 19 20  2  0  0  0
 20 21  1  0  0  0
 21 22  2  0  0  0
 22 23  1  0  0  0
 23 24  1  0  0  0
 24 25  1  0  0  0
 25 26  2  0  0  0
 26 27  1  0  0  0
 26 28  1  0  0  0
 31 32  1  0  0  0
 32 33  1  0  0  0
 32 34  1  0  0  0
 32 35  1  0  0  0
 12  1  1  0  0  0
 28 19  1  0  0  0
 11  4  1  0  0  0
 28 23  2  0  0  0
  9 13  1  0  0  0
  9 14  1  0  0  0
 17 18  1  0  0  0
M  END
> <minimizedAffinity>
8.31976

> <CNNscore>
0.4975774884

> <CNNaffinity>
7.7897353172

> <CNN_VS>
3.8759968281

> <CNNaffinity_variance>
2.0177295208

$$$$
[H]c1oc2c([H])c([H])c([H])c(N([H])C(=O)c3c([H])n(C(=O)N([H])[H])c4c([H])c(O[C@@]([H])(C([H])([H])[H])C(F)(F)F)c([H])c([H])c34)c2c1C([H])([H])[H]


 35 38  0  0  0  0  0  0  0  0999 V2000
   11.2634   43.8853  132.2554 C   0  0  0  0  0  0  0  0  0  0  0  0
   10.4797   44.8825  132.7793 C   0  0  0  0  0  0  0  0  0  0  0  0
    9.4064   45.4034  132.0386 C   0  0  0  0  0  0  0  0  0  0  0  0
    9.1563   44.9048  130.7960 C   0  0  0  0  0  0  0  0  0  0  0  0
    8.1788   45.2430  129.8862 C   0  0  0  0  0  0  0  0  0  0  0  0
    8.3576   44.4427  128.7782 C   0  0  0  0  0  0  0  0  0  0  0  0
    9.4260   43.6272  129.0030 N   0  0  0  0  0  0  0  0  0  0  0  0
    9.9042   42.6652  128.0733 C   0  0  0  0  0  0  0  0  0  0  0  0
    9.2816   42.4908  126.8208 N   0  0  0  0  0  0  0  0  0  0  0  0
   10.8905   41.9394  128.3275 O   0  0  0  0  0  0  0  0  0  0  0  0
    9.9119   43.9064  130.2273 C   0  0  0  0  0  0  0  0  0  0  0  0
   10.9546   43.4129  130.9683 C   0  0  0  0  0  0  0  0  0  0  0  0
    8.3424   42.0729  126.7699 H   0  0  0  0  0  0  0  0  0  0  0  0
    9.7673   42.7815  125.9618 H   0  0  0  0  0  0  0  0  0  0  0  0
    7.1309   46.2691  130.0564 C   0  0  0  0  0  0  0  0  0  0  0  0
    6.2136   45.9846  130.8384 O   0  0  0  0  0  0  0  0  0  0  0  0
    7.2697   47.4639  129.3217 N   0  0  0  0  0  0  0  0  0  0  0  0
    8.1434   47.5060  128.7415 H   0  0  0  0  0  0  0  0  0  0  0  0
    6.3934   48.5802  129.3353 C   0  0  0  0  0  0  0  0  0  0  0  0
    5.0734   48.5049  128.9513 C   0  0  0  0  0  0  0  0  0  0  0  0
    4.1828   49.5836  129.0222 C   0  0  0  0  0  0  0  0  0  0  0  0
    4.6257   50.7842  129.4946 C   0  0  0  0  0  0  0  0  0  0  0  0
    5.9400   50.9002  129.8878 C   0  0  0  0  0  0  0  0  0  0  0  0
    6.5920   51.9284  130.3633 O   0  0  0  0  0  0  0  0  0  0  0  0
    7.8296   51.6346  130.6114 C   0  0  0  0  0  0  0  0  0  0  0  0
    8.0426   50.2814  130.2750 C   0  0  0  0  0  0  0  0  0  0  0  0
    9.3300   49.5848  130.3922 C   0  0  0  0  0  0  0  0  0  0  0  0
    6.8327   49.8228  129.8176 C   0  0  0  0  0  0  0  0  0  0  0  0
   12.3191   43.3555  132.9541 O   0  0  0  0  0  0  0  0  0  0  0  0
   13.2411   45.0617  134.3852 C   0  0  0  0  0  0  0  0  0  0  0  0
   12.7297   43.6315  134.2398 C   0  0  0  0  0  0  0  0  0  0  0  0
   11.5521   43.5472  135.2291 C   0  0  0  0  0  0  0  0  0  0  0  0
   11.0933   44.8291  135.3933 F   0  0  0  0  0  0  0  0  0  0  0  0
   10.5751   42.7684  134.6243 F   0  0  0  0  0  0  0  0  0  0  0  0
   11.9362   42.9816  136.4071 F   0  0  0  0  0  0  0  0  0  0  0  0
 30 31  1  0  0  0
 31 29  1  0  0  0
 29  1  1  0  0  0
  1  2  2  0  0  0
  2  3  1  0  0  0
  3  4  2  0  0  0
  4  5  1  0  0  0
  5  6  2  0  0  0
  6  7  1  0  0  0
  7  8  1  0  0  0
  8  9  1  0  0  0
  8 10  2  0  0  0
  7 11  1  0  0  0
 11 12  2  0  0  0
  5 15  1  0  0  0
 15 16  2  0  0  0
 15 17  1  0  0  0
 17 19  1  0  0  0
 19 20  2  0  0  0
 20 21  1  0  0  0
 21 22  2  0  0  0
 22 23  1  0  0  0
 23 24  1  0  0  0
 24 25  1  0  0  0
 25 26  2  0  0  0
 26 27  1  0  0  0
 26 28  1  0  0  0
 31 32  1  0  0  0
 32 33  1  0  0  0
 32 34  1  0  0  0
 32 35  1  0  0  0
 12  1  1  0  0  0
 28 19  1  0  0  0
 11  4  1  0  0  0
 28 23  2  0  0  0
  9 13  1  0  0  0
  9 14  1  0  0  0
 17 18  1  0  0  0
M  END
> <minimizedAffinity>
7.12073

> <CNNscore>
0.4849622846

> <CNNaffinity>
7.8160085678

> <CNN_VS>
3.7904694080

> <CNNaffinity_variance>
2.4083247185

$$$$
[H]c1oc2c([H])c([H])c([H])c(N([H])C(=O)c3c([H])n(C(=O)N([H])[H])c4c([H])c(O[C@@]([H])(C([H])([H])[H])C(F)(F)F)c([H])c([H])c34)c2c1C([H])([H])[H]


 35 38  0  0  0  0  0  0  0  0999 V2000
    8.5083   45.2942  129.4173 C   0  0  0  0  0  0  0  0  0  0  0  0
    9.5660   45.2893  130.2915 C   0  0  0  0  0  0  0  0  0  0  0  0
    9.8148   46.4035  131.1092 C   0  0  0  0  0  0  0  0  0  0  0  0
    8.9923   47.4856  131.0212 C   0  0  0  0  0  0  0  0  0  0  0  0
    9.0256   48.6812  131.7047 C   0  0  0  0  0  0  0  0  0  0  0  0
    7.9708   49.4422  131.2479 C   0  0  0  0  0  0  0  0  0  0  0  0
    7.3015   48.7271  130.3006 N   0  0  0  0  0  0  0  0  0  0  0  0
    6.1540   49.1990  129.6083 C   0  0  0  0  0  0  0  0  0  0  0  0
    5.6215   50.4779  129.8685 N   0  0  0  0  0  0  0  0  0  0  0  0
    5.5744   48.5029  128.7459 O   0  0  0  0  0  0  0  0  0  0  0  0
    7.9202   47.5393  130.1618 C   0  0  0  0  0  0  0  0  0  0  0  0
    7.6961   46.4404  129.3730 C   0  0  0  0  0  0  0  0  0  0  0  0
    5.1563   50.6655  130.7672 H   0  0  0  0  0  0  0  0  0  0  0  0
    5.6994   51.2196  129.1599 H   0  0  0  0  0  0  0  0  0  0  0  0
   10.0035   49.0822  132.7355 C   0  0  0  0  0  0  0  0  0  0  0  0
    9.9891   50.2766  133.0630 O   0  0  0  0  0  0  0  0  0  0  0  0
   10.8535   48.0804  133.2458 N   0  0  0  0  0  0  0  0  0  0  0  0
   10.6717   47.1264  132.8474 H   0  0  0  0  0  0  0  0  0  0  0  0
   11.8554   48.2362  134.2388 C   0  0  0  0  0  0  0  0  0  0  0  0
   11.9619   49.3578  135.0303 C   0  0  0  0  0  0  0  0  0  0  0  0
   12.9051   49.4954  136.0567 C   0  0  0  0  0  0  0  0  0  0  0  0
   13.7758   48.4748  136.3036 C   0  0  0  0  0  0  0  0  0  0  0  0
   13.7018   47.3364  135.5328 C   0  0  0  0  0  0  0  0  0  0  0  0
   14.4152   46.2419  135.5717 O   0  0  0  0  0  0  0  0  0  0  0  0
   14.0367   45.3940  134.6678 C   0  0  0  0  0  0  0  0  0  0  0  0
   12.9662   45.9610  133.9451 C   0  0  0  0  0  0  0  0  0  0  0  0
   12.2825   45.3119  132.8192 C   0  0  0  0  0  0  0  0  0  0  0  0
   12.7596   47.1966  134.5055 C   0  0  0  0  0  0  0  0  0  0  0  0
    8.2388   44.2212  128.6053 O   0  0  0  0  0  0  0  0  0  0  0  0
   10.4028   43.4387  127.8887 C   0  0  0  0  0  0  0  0  0  0  0  0
    9.0000   43.0952  128.3806 C   0  0  0  0  0  0  0  0  0  0  0  0
    9.2365   42.3148  129.6874 C   0  0  0  0  0  0  0  0  0  0  0  0
    8.0951   42.4575  130.4342 F   0  0  0  0  0  0  0  0  0  0  0  0
    9.4079   40.9834  129.3340 F   0  0  0  0  0  0  0  0  0  0  0  0
   10.3414   42.7696  130.3411 F   0  0  0  0  0  0  0  0  0  0  0  0
 30 31  1  0  0  0
 31 29  1  0  0  0
 29  1  1  0  0  0
  1  2  2  0  0  0
  2  3  1  0  0  0
  3  4  2  0  0  0
  4  5  1  0  0  0
  5  6  2  0  0  0
  6  7  1  0  0  0
  7  8  1  0  0  0
  8  9  1  0  0  0
  8 10  2  0  0  0
  7 11  1  0  0  0
 11 12  2  0  0  0
  5 15  1  0  0  0
 15 16  2  0  0  0
 15 17  1  0  0  0
 17 19  1  0  0  0
 19 20  2  0  0  0
 20 21  1  0  0  0
 21 22  2  0  0  0
 22 23  1  0  0  0
 23 24  1  0  0  0
 24 25  1  0  0  0
 25 26  2  0  0  0
 26 27  1  0  0  0
 26 28  1  0  0  0
 31 32  1  0  0  0
 32 33  1  0  0  0
 32 34  1  0  0  0
 32 35  1  0  0  0
 12  1  1  0  0  0
 28 19  1  0  0  0
 11  4  1  0  0  0
 28 23  2  0  0  0
  9 13  1  0  0  0
  9 14  1  0  0  0
 17 18  1  0  0  0
M  END
> <minimizedAffinity>
15.01487

> <CNNscore>
0.4846957326

> <CNNaffinity>
7.4581041336

> <CNN_VS>
3.6149113178

> <CNNaffinity_variance>
0.9394251108

$$$$
[H]c1oc2c([H])c([H])c([H])c(N([H])C(=O)c3c([H])n(C(=O)N([H])[H])c4c([H])c(O[C@@]([H])(C([H])([H])[H])C(F)(F)F)c([H])c([H])c34)c2c1C([H])([H])[H]


 35 38  0  0  0  0  0  0  0  0999 V2000
    9.9083   44.1683  133.3766 C   0  0  0  0  0  0  0  0  0  0  0  0
    9.3440   45.4179  133.3197 C   0  0  0  0  0  0  0  0  0  0  0  0
    8.8685   45.9259  132.0999 C   0  0  0  0  0  0  0  0  0  0  0  0
    8.9760   45.1614  130.9778 C   0  0  0  0  0  0  0  0  0  0  0  0
    8.5910   45.4301  129.6827 C   0  0  0  0  0  0  0  0  0  0  0  0
    8.9215   44.3293  128.9216 C   0  0  0  0  0  0  0  0  0  0  0  0
    9.4992   43.4007  129.7345 N   0  0  0  0  0  0  0  0  0  0  0  0
    9.9681   42.1347  129.2915 C   0  0  0  0  0  0  0  0  0  0  0  0
    9.8602   41.7507  127.9397 N   0  0  0  0  0  0  0  0  0  0  0  0
   10.4920   41.3159  130.0785 O   0  0  0  0  0  0  0  0  0  0  0  0
    9.5331   43.9041  130.9828 C   0  0  0  0  0  0  0  0  0  0  0  0
    9.9906   43.4283  132.1846 C   0  0  0  0  0  0  0  0  0  0  0  0
    8.9347   41.5485  127.5372 H   0  0  0  0  0  0  0  0  0  0  0  0
   10.7061   41.6736  127.3594 H   0  0  0  0  0  0  0  0  0  0  0  0
    7.9446   46.6633  129.1915 C   0  0  0  0  0  0  0  0  0  0  0  0
    8.3526   47.0949  128.1046 O   0  0  0  0  0  0  0  0  0  0  0  0
    6.9346   47.2290  129.9955 N   0  0  0  0  0  0  0  0  0  0  0  0
    6.7264   46.6786  130.8647 H   0  0  0  0  0  0  0  0  0  0  0  0
    6.1797   48.3987  129.7194 C   0  0  0  0  0  0  0  0  0  0  0  0
    4.8764   48.3657  129.2767 C   0  0  0  0  0  0  0  0  0  0  0  0
    4.1010   49.5125  129.0636 C   0  0  0  0  0  0  0  0  0  0  0  0
    4.6464   50.7400  129.3011 C   0  0  0  0  0  0  0  0  0  0  0  0
    5.9479   50.8150  129.7439 C   0  0  0  0  0  0  0  0  0  0  0  0
    6.6830   51.8562  130.0338 O   0  0  0  0  0  0  0  0  0  0  0  0
    7.8716   51.5088  130.4158 C   0  0  0  0  0  0  0  0  0  0  0  0
    7.9563   50.1011  130.3845 C   0  0  0  0  0  0  0  0  0  0  0  0
    9.1579   49.3293  130.7263 C   0  0  0  0  0  0  0  0  0  0  0  0
    6.7255   49.6695  129.9576 C   0  0  0  0  0  0  0  0  0  0  0  0
   10.3819   43.6438  134.5529 O   0  0  0  0  0  0  0  0  0  0  0  0
   11.8545   42.9907  136.3457 C   0  0  0  0  0  0  0  0  0  0  0  0
   11.4834   44.0251  135.2872 C   0  0  0  0  0  0  0  0  0  0  0  0
   12.7369   44.1241  134.3975 C   0  0  0  0  0  0  0  0  0  0  0  0
   12.8255   45.4337  133.9999 F   0  0  0  0  0  0  0  0  0  0  0  0
   13.8234   43.7976  135.1974 F   0  0  0  0  0  0  0  0  0  0  0  0
   12.6616   43.2678  133.3411 F   0  0  0  0  0  0  0  0  0  0  0  0
 30 31  1  0  0  0
 31 29  1  0  0  0
 29  1  1  0  0  0
  1  2  2  0  0  0
  2  3  1  0  0  0
  3  4  2  0  0  0
  4  5  1  0  0  0
  5  6  2  0  0  0
  6  7  1  0  0  0
  7  8  1  0  0  0
  8  9  1  0  0  0
  8 10  2  0  0  0
  7 11  1  0  0  0
 11 12  2  0  0  0
  5 15  1  0  0  0
 15 16  2  0  0  0
 15 17  1  0  0  0
 17 19  1  0  0  0
 19 20  2  0  0  0
 20 21  1  0  0  0
 21 22  2  0  0  0
 22 23  1  0  0  0
 23 24  1  0  0  0
 24 25  1  0  0  0
 25 26  2  0  0  0
 26 27  1  0  0  0
 26 28  1  0  0  0
 31 32  1  0  0  0
 32 33  1  0  0  0
 32 34  1  0  0  0
 32 35  1  0  0  0
 12  1  1  0  0  0
 28 19  1  0  0  0
 11  4  1  0  0  0
 28 23  2  0  0  0
  9 13  1  0  0  0
  9 14  1  0  0  0
 17 18  1  0  0  0
M  END
> <minimizedAffinity>
7.54960

> <CNNscore>
0.4771619737

> <CNNaffinity>
7.7640357018

> <CNN_VS>
3.7047026157

> <CNNaffinity_variance>
1.8028608561

$$$$
[H]c1oc2c([H])c([H])c([H])c(N([H])C(=O)c3c([H])n(C(=O)N([H])[H])c4c([H])c(O[C@@]([H])(C([H])([H])[H])C(F)(F)F)c([H])c([H])c34)c2c1C([H])([H])[H]


 35 38  0  0  0  0  0  0  0  0999 V2000
   10.9950   43.6812  133.3160 C   0  0  0  0  0  0  0  0  0  0  0  0
    9.7969   44.3153  133.1026 C   0  0  0  0  0  0  0  0  0  0  0  0
    9.5576   44.9901  131.8945 C   0  0  0  0  0  0  0  0  0  0  0  0
   10.5303   45.0053  130.9411 C   0  0  0  0  0  0  0  0  0  0  0  0
   10.5383   45.5887  129.6933 C   0  0  0  0  0  0  0  0  0  0  0  0
   11.7617   45.3128  129.1213 C   0  0  0  0  0  0  0  0  0  0  0  0
   12.4925   44.5730  130.0019 N   0  0  0  0  0  0  0  0  0  0  0  0
   13.8100   44.1051  129.7492 C   0  0  0  0  0  0  0  0  0  0  0  0
   14.4619   44.3874  128.5317 N   0  0  0  0  0  0  0  0  0  0  0  0
   14.4399   43.4282  130.5915 O   0  0  0  0  0  0  0  0  0  0  0  0
   11.7465   44.3855  131.1070 C   0  0  0  0  0  0  0  0  0  0  0  0
   11.9584   43.7327  132.2941 C   0  0  0  0  0  0  0  0  0  0  0  0
   14.1373   43.9427  127.6621 H   0  0  0  0  0  0  0  0  0  0  0  0
   15.2597   45.0366  128.5159 H   0  0  0  0  0  0  0  0  0  0  0  0
    9.4460   46.3661  129.0749 C   0  0  0  0  0  0  0  0  0  0  0  0
    9.4968   46.4904  127.8436 O   0  0  0  0  0  0  0  0  0  0  0  0
    8.4576   46.8891  129.9330 N   0  0  0  0  0  0  0  0  0  0  0  0
    8.5945   46.6351  130.9422 H   0  0  0  0  0  0  0  0  0  0  0  0
    7.3223   47.6545  129.5597 C   0  0  0  0  0  0  0  0  0  0  0  0
    6.2005   47.1035  128.9820 C   0  0  0  0  0  0  0  0  0  0  0  0
    5.0494   47.8378  128.6696 C   0  0  0  0  0  0  0  0  0  0  0  0
    5.0155   49.1736  128.9439 C   0  0  0  0  0  0  0  0  0  0  0  0
    6.1183   49.7621  129.5209 C   0  0  0  0  0  0  0  0  0  0  0  0
    6.3273   51.0042  129.8704 O   0  0  0  0  0  0  0  0  0  0  0  0
    7.5074   51.1631  130.3818 C   0  0  0  0  0  0  0  0  0  0  0  0
    8.1649   49.9151  130.3821 C   0  0  0  0  0  0  0  0  0  0  0  0
    9.5351   49.6936  130.8617 C   0  0  0  0  0  0  0  0  0  0  0  0
    7.2708   49.0298  129.8341 C   0  0  0  0  0  0  0  0  0  0  0  0
   11.2592   43.0133  134.4854 O   0  0  0  0  0  0  0  0  0  0  0  0
   11.9275   43.0871  136.7999 C   0  0  0  0  0  0  0  0  0  0  0  0
   10.8304   43.3038  135.7620 C   0  0  0  0  0  0  0  0  0  0  0  0
   10.4664   44.7941  135.9000 C   0  0  0  0  0  0  0  0  0  0  0  0
   10.4369   45.0613  137.2449 F   0  0  0  0  0  0  0  0  0  0  0  0
   11.4882   45.5141  135.2964 F   0  0  0  0  0  0  0  0  0  0  0  0
    9.2791   45.0708  135.2926 F   0  0  0  0  0  0  0  0  0  0  0  0
 30 31  1  0  0  0
 31 29  1  0  0  0
 29  1  1  0  0  0
  1  2  2  0  0  0
  2  3  1  0  0  0
  3  4  2  0  0  0
  4  5  1  0  0  0
  5  6  2  0  0  0
  6  7  1  0  0  0
  7  8  1  0  0  0
  8  9  1  0  0  0
  8 10  2  0  0  0
  7 11  1  0  0  0
 11 12  2  0  0  0
  5 15  1  0  0  0
 15 16  2  0  0  0
 15 17  1  0  0  0
 17 19  1  0  0  0
 19 20  2  0  0  0
 20 21  1  0  0  0
 21 22  2  0  0  0
 22 23  1  0  0  0
 23 24  1  0  0  0
 24 25  1  0  0  0
 25 26  2  0  0  0
 26 27  1  0  0  0
 26 28  1  0  0  0
 31 32  1  0  0  0
 32 33  1  0  0  0
 32 34  1  0  0  0
 32 35  1  0  0  0
 12  1  1  0  0  0
 28 19  1  0  0  0
 11  4  1  0  0  0
 28 23  2  0  0  0
  9 13  1  0  0  0
  9 14  1  0  0  0
 17 18  1  0  0  0
M  END
> <minimizedAffinity>
4.07815

> <CNNscore>
0.4746938348

> <CNNaffinity>
7.8457617760

> <CNN_VS>
3.7243347168

> <CNNaffinity_variance>
1.8361423016

$$$$
[H]c1oc2c([H])c([H])c([H])c(N([H])C(=O)c3c([H])n(C(=O)N([H])[H])c4c([H])c(O[C@@]([H])(C([H])([H])[H])C(F)(F)F)c([H])c([H])c34)c2c1C([H])([H])[H]


 35 38  0  0  0  0  0  0  0  0999 V2000
    9.9129   46.0342  128.4482 C   0  0  0  0  0  0  0  0  0  0  0  0
   10.3478   45.5013  129.6356 C   0  0  0  0  0  0  0  0  0  0  0  0
   10.0346   46.1300  130.8516 C   0  0  0  0  0  0  0  0  0  0  0  0
    9.2948   47.2736  130.8339 C   0  0  0  0  0  0  0  0  0  0  0  0
    8.8632   48.0654  131.8752 C   0  0  0  0  0  0  0  0  0  0  0  0
    8.1479   49.1080  131.3262 C   0  0  0  0  0  0  0  0  0  0  0  0
    8.1402   48.9596  129.9716 N   0  0  0  0  0  0  0  0  0  0  0  0
    7.4947   49.8533  129.0753 C   0  0  0  0  0  0  0  0  0  0  0  0
    6.8004   50.9847  129.5493 N   0  0  0  0  0  0  0  0  0  0  0  0
    7.5166   49.6728  127.8379 O   0  0  0  0  0  0  0  0  0  0  0  0
    8.8359   47.8467  129.6711 C   0  0  0  0  0  0  0  0  0  0  0  0
    9.1535   47.2158  128.4959 C   0  0  0  0  0  0  0  0  0  0  0  0
    5.9179   50.8647  130.0652 H   0  0  0  0  0  0  0  0  0  0  0  0
    7.1775   51.9264  129.3785 H   0  0  0  0  0  0  0  0  0  0  0  0
    9.1142   47.8468  133.3136 C   0  0  0  0  0  0  0  0  0  0  0  0
    8.9702   48.8347  134.0467 O   0  0  0  0  0  0  0  0  0  0  0  0
    9.4903   46.5491  133.7151 N   0  0  0  0  0  0  0  0  0  0  0  0
    9.5217   45.8543  132.9289 H   0  0  0  0  0  0  0  0  0  0  0  0
    9.7718   46.1130  135.0360 C   0  0  0  0  0  0  0  0  0  0  0  0
    9.2734   46.7382  136.1568 C   0  0  0  0  0  0  0  0  0  0  0  0
    9.4908   46.2786  137.4620 C   0  0  0  0  0  0  0  0  0  0  0  0
   10.2341   45.1516  137.6571 C   0  0  0  0  0  0  0  0  0  0  0  0
   10.7511   44.4981  136.5611 C   0  0  0  0  0  0  0  0  0  0  0  0
   11.4853   43.4190  136.4896 O   0  0  0  0  0  0  0  0  0  0  0  0
   11.7771   43.1217  135.2625 C   0  0  0  0  0  0  0  0  0  0  0  0
   11.1879   44.0858  134.4180 C   0  0  0  0  0  0  0  0  0  0  0  0
   11.3148   44.1032  132.9551 C   0  0  0  0  0  0  0  0  0  0  0  0
   10.5353   44.9559  135.2548 C   0  0  0  0  0  0  0  0  0  0  0  0
   10.2021   45.4436  127.2437 O   0  0  0  0  0  0  0  0  0  0  0  0
   12.0679   43.9440  127.5254 C   0  0  0  0  0  0  0  0  0  0  0  0
   10.6549   44.1666  126.9944 C   0  0  0  0  0  0  0  0  0  0  0  0
    9.8017   43.1201  127.7356 C   0  0  0  0  0  0  0  0  0  0  0  0
    9.8775   41.9670  126.9971 F   0  0  0  0  0  0  0  0  0  0  0  0
   10.3925   42.9272  128.9768 F   0  0  0  0  0  0  0  0  0  0  0  0
    8.5187   43.5498  127.8917 F   0  0  0  0  0  0  0  0  0  0  0  0
 30 31  1  0  0  0
 31 29  1  0  0  0
 29  1  1  0  0  0
  1  2  2  0  0  0
  2  3  1  0  0  0
  3  4  2  0  0  0
  4  5  1  0  0  0
  5  6  2  0  0  0
  6  7  1  0  0  0
  7  8  1  0  0  0
  8  9  1  0  0  0
  8 10  2  0  0  0
  7 11  1  0  0  0
 11 12  2  0  0  0
  5 15  1  0  0  0
 15 16  2  0  0  0
 15 17  1  0  0  0
 17 19  1  0  0  0
 19 20  2  0  0  0
 20 21  1  0  0  0
 21 22  2  0  0  0
 22 23  1  0  0  0
 23 24  1  0  0  0
 24 25  1  0  0  0
 25 26  2  0  0  0
 26 27  1  0  0  0
 26 28  1  0  0  0
 31 32  1  0  0  0
 32 33  1  0  0  0
 32 34  1  0  0  0
 32 35  1  0  0  0
 12  1  1  0  0  0
 28 19  1  0  0  0
 11  4  1  0  0  0
 28 23  2  0  0  0
  9 13  1  0  0  0
  9 14  1  0  0  0
 17 18  1  0  0  0
M  END
> <minimizedAffinity>
11.02021

> <CNNscore>
0.4649109840

> <CNNaffinity>
7.6209654808

> <CNN_VS>
3.5430705547

> <CNNaffinity_variance>
2.0419917107

$$$$
[H]c1oc2c([H])c([H])c([H])c(N([H])C(=O)c3c([H])n(C(=O)N([H])[H])c4c([H])c(O[C@@]([H])(C([H])([H])[H])C(F)(F)F)c([H])c([H])c34)c2c1C([H])([H])[H]


 35 38  0  0  0  0  0  0  0  0999 V2000
   10.2141   44.3142  128.4164 C   0  0  0  0  0  0  0  0  0  0  0  0
   10.4261   43.8489  129.6898 C   0  0  0  0  0  0  0  0  0  0  0  0
    9.8318   44.4923  130.7875 C   0  0  0  0  0  0  0  0  0  0  0  0
    9.0442   45.5818  130.5690 C   0  0  0  0  0  0  0  0  0  0  0  0
    8.3603   46.3743  131.4645 C   0  0  0  0  0  0  0  0  0  0  0  0
    7.7123   47.3485  130.7357 C   0  0  0  0  0  0  0  0  0  0  0  0
    7.9929   47.1582  129.4159 N   0  0  0  0  0  0  0  0  0  0  0  0
    7.4935   47.9778  128.3683 C   0  0  0  0  0  0  0  0  0  0  0  0
    6.6497   49.0735  128.6405 N   0  0  0  0  0  0  0  0  0  0  0  0
    7.7809   47.7611  127.1706 O   0  0  0  0  0  0  0  0  0  0  0  0
    8.8012   46.0863  129.3130 C   0  0  0  0  0  0  0  0  0  0  0  0
    9.3916   45.4424  128.2561 C   0  0  0  0  0  0  0  0  0  0  0  0
    5.6886   48.9100  128.9705 H   0  0  0  0  0  0  0  0  0  0  0  0
    6.9966   50.0330  128.5086 H   0  0  0  0  0  0  0  0  0  0  0  0
    8.3221   46.2179  132.9321 C   0  0  0  0  0  0  0  0  0  0  0  0
    7.1957   46.1413  133.4414 O   0  0  0  0  0  0  0  0  0  0  0  0
    9.5568   46.1706  133.6103 N   0  0  0  0  0  0  0  0  0  0  0  0
   10.3914   46.2227  132.9759 H   0  0  0  0  0  0  0  0  0  0  0  0
    9.7574   46.0194  135.0071 C   0  0  0  0  0  0  0  0  0  0  0  0
    9.2174   46.8744  135.9415 C   0  0  0  0  0  0  0  0  0  0  0  0
    9.3542   46.6979  137.3242 C   0  0  0  0  0  0  0  0  0  0  0  0
   10.0568   45.6270  137.7936 C   0  0  0  0  0  0  0  0  0  0  0  0
   10.6133   44.7493  136.8905 C   0  0  0  0  0  0  0  0  0  0  0  0
   11.3219   43.6690  137.0891 O   0  0  0  0  0  0  0  0  0  0  0  0
   11.6696   43.1150  135.9704 C   0  0  0  0  0  0  0  0  0  0  0  0
   11.1507   43.8873  134.9102 C   0  0  0  0  0  0  0  0  0  0  0  0
   11.3543   43.5935  133.4859 C   0  0  0  0  0  0  0  0  0  0  0  0
   10.4780   44.9239  135.5072 C   0  0  0  0  0  0  0  0  0  0  0  0
   10.7804   43.7076  127.3234 O   0  0  0  0  0  0  0  0  0  0  0  0
   12.6190   43.8210  125.7691 C   0  0  0  0  0  0  0  0  0  0  0  0
   12.0939   43.3453  127.1204 C   0  0  0  0  0  0  0  0  0  0  0  0
   13.0217   44.0214  128.1474 C   0  0  0  0  0  0  0  0  0  0  0  0
   12.5796   43.6281  129.3846 F   0  0  0  0  0  0  0  0  0  0  0  0
   14.2987   43.5261  127.9214 F   0  0  0  0  0  0  0  0  0  0  0  0
   13.0145   45.3756  128.0030 F   0  0  0  0  0  0  0  0  0  0  0  0
 30 31  1  0  0  0
 31 29  1  0  0  0
 29  1  1  0  0  0
  1  2  2  0  0  0
  2  3  1  0  0  0
  3  4  2  0  0  0
  4  5  1  0  0  0
  5  6  2  0  0  0
  6  7  1  0  0  0
  7  8  1  0  0  0
  8  9  1  0  0  0
  8 10  2  0  0  0
  7 11  1  0  0  0
 11 12  2  0  0  0
  5 15  1  0  0  0
 15 16  2  0  0  0
 15 17  1  0  0  0
 17 19  1  0  0  0
 19 20  2  0  0  0
 20 21  1  0  0  0
 21 22  2  0  0  0
 22 23  1  0  0  0
 23 24  1  0  0  0
 24 25  1  0  0  0
 25 26  2  0  0  0
 26 27  1  0  0  0
 26 28  1  0  0  0
 31 32  1  0  0  0
 32 33  1  0  0  0
 32 34  1  0  0  0
 32 35  1  0  0  0
 12  1  1  0  0  0
 28 19  1  0  0  0
 11  4  1  0  0  0
 28 23  2  0  0  0
  9 13  1  0  0  0
  9 14  1  0  0  0
 17 18  1  0  0  0
M  END
> <minimizedAffinity>
24.57816

> <CNNscore>
0.4557327628

> <CNNaffinity>
7.6144056320

> <CNN_VS>
3.4701340199

> <CNNaffinity_variance>
2.3099291325

$$$$
[H]/C(=C(/[H])c1c([H])c([H])c([H])c2c(C([H])([H])N(C([H])([H])C([H])([H])C([H])([H])[H])C([H])([H])C([H])([H])C([H])([H])[H])c(-c3nc([H])c([H])c([H])c3[H])sc12)c1c([H])c([H])c(Cl)c([H])c1Cl


 33 36  0  0  0  0  0  0  0  0999 V2000
   11.5143   45.3434  132.5500 C   0  0  0  0  0  0  0  0  0  0  0  0
   11.8373   45.5989  131.1966 C   0  0  0  0  0  0  0  0  0  0  0  0
   10.8711   46.9252  130.8024 S   0  0  0  0  0  0  0  0  0  0  0  0
   10.0657   47.1757  132.2770 C   0  0  0  0  0  0  0  0  0  0  0  0
    9.0973   48.0888  132.6459 C   0  0  0  0  0  0  0  0  0  0  0  0
    8.5710   48.0189  133.9569 C   0  0  0  0  0  0  0  0  0  0  0  0
    9.0692   47.0410  134.7626 C   0  0  0  0  0  0  0  0  0  0  0  0
   10.0319   46.1495  134.3677 C   0  0  0  0  0  0  0  0  0  0  0  0
   10.5860   46.1850  133.0730 C   0  0  0  0  0  0  0  0  0  0  0  0
   12.7659   44.9056  130.3102 C   0  0  0  0  0  0  0  0  0  0  0  0
   12.3404   44.6276  129.0142 C   0  0  0  0  0  0  0  0  0  0  0  0
   13.1371   43.9690  128.1120 C   0  0  0  0  0  0  0  0  0  0  0  0
   14.3949   43.5687  128.4921 C   0  0  0  0  0  0  0  0  0  0  0  0
   14.8136   43.8488  129.7853 C   0  0  0  0  0  0  0  0  0  0  0  0
   13.9851   44.4977  130.6223 N   0  0  0  0  0  0  0  0  0  0  0  0
    8.6202   49.1044  131.7564 C   0  0  0  0  0  0  0  0  0  0  0  0
    7.8397   49.0431  130.7235 C   0  0  0  0  0  0  0  0  0  0  0  0
    7.4940   50.2508  129.9652 C   0  0  0  0  0  0  0  0  0  0  0  0
    7.2861   51.4841  130.4911 C   0  0  0  0  0  0  0  0  0  0  0  0
    6.9576   52.5930  129.6984 C   0  0  0  0  0  0  0  0  0  0  0  0
    6.8316   52.4728  128.3404 C   0  0  0  0  0  0  0  0  0  0  0  0
    6.4214   53.8442  127.3266 Cl  0  0  0  0  0  0  0  0  0  0  0  0
    7.0422   51.2190  127.7993 C   0  0  0  0  0  0  0  0  0  0  0  0
    7.3646   50.1298  128.5751 C   0  0  0  0  0  0  0  0  0  0  0  0
    7.6169   48.5788  127.8307 Cl  0  0  0  0  0  0  0  0  0  0  0  0
   12.2369   44.1787  133.1552 C   0  0  0  0  0  0  0  0  0  0  0  0
   11.5374   42.9576  133.3712 N   0  0  0  0  0  0  0  0  0  0  0  0
   10.6254   43.1012  134.5187 C   0  0  0  0  0  0  0  0  0  0  0  0
   10.4563   44.3278  136.6082 C   0  0  0  0  0  0  0  0  0  0  0  0
   11.3134   43.3307  135.8208 C   0  0  0  0  0  0  0  0  0  0  0  0
   10.6811   42.6865  132.1777 C   0  0  0  0  0  0  0  0  0  0  0  0
    9.2716   43.0391  132.5289 C   0  0  0  0  0  0  0  0  0  0  0  0
    8.3472   42.6414  131.3784 C   0  0  0  0  0  0  0  0  0  0  0  0
 29 30  1  0  0  0
 30 28  1  0  0  0
 28 27  1  0  0  0
 27 31  1  0  0  0
 31 32  1  0  0  0
 32 33  1  0  0  0
 27 26  1  0  0  0
 26  1  1  0  0  0
  1  2  2  0  0  0
  2  3  1  0  0  0
  3  4  1  0  0  0
  4  5  2  0  0  0
  5 16  1  0  0  0
 16 17  2  0  0  0
 17 18  1  0  0  0
 18 19  2  0  0  0
 19 20  1  0  0  0
 20 21  2  0  0  0
 21 22  1  0  0  0
 21 23  1  0  0  0
 23 24  2  0  0  0
 24 25  1  0  0  0
  5  6  1  0  0  0
  6  7  2  0  0  0
  7  8  1  0  0  0
  8  9  2  0  0  0
  2 10  1  0  0  0
 10 11  2  0  0  0
 11 12  1  0  0  0
 12 13  2  0  0  0
 13 14  1  0  0  0
 14 15  2  0  0  0
  9  1  1  0  0  0
 15 10  1  0  0  0
  9  4  1  0  0  0
 24 18  1  0  0  0
M  END
> <minimizedAffinity>
10.45055

> <CNNscore>
0.2539223433

> <CNNaffinity>
7.6531310081

> <CNN_VS>
1.9433009624

> <CNNaffinity_variance>
0.4984371066

$$$$
[H]/C(=C(/[H])c1c([H])c([H])c([H])c2c(C([H])([H])N(C([H])([H])C([H])([H])C([H])([H])[H])C([H])([H])C([H])([H])C([H])([H])[H])c(-c3nc([H])c([H])c([H])c3[H])sc12)c1c([H])c([H])c(Cl)c([H])c1Cl


 33 36  0  0  0  0  0  0  0  0999 V2000
    8.1701   47.3030  130.5342 C   0  0  0  0  0  0  0  0  0  0  0  0
    8.7823   46.9143  129.3195 C   0  0  0  0  0  0  0  0  0  0  0  0
    8.5770   48.2612  128.3237 S   0  0  0  0  0  0  0  0  0  0  0  0
    7.7430   49.3037  129.3743 C   0  0  0  0  0  0  0  0  0  0  0  0
    7.2325   50.5733  129.1871 C   0  0  0  0  0  0  0  0  0  0  0  0
    6.5295   51.1800  130.2540 C   0  0  0  0  0  0  0  0  0  0  0  0
    6.4101   50.4514  131.3980 C   0  0  0  0  0  0  0  0  0  0  0  0
    6.9292   49.1930  131.5539 C   0  0  0  0  0  0  0  0  0  0  0  0
    7.6391   48.5526  130.5192 C   0  0  0  0  0  0  0  0  0  0  0  0
    9.4365   45.6602  128.9618 C   0  0  0  0  0  0  0  0  0  0  0  0
   10.8280   45.6264  128.9798 C   0  0  0  0  0  0  0  0  0  0  0  0
   11.5331   44.4974  128.6470 C   0  0  0  0  0  0  0  0  0  0  0  0
   10.8516   43.3614  128.2840 C   0  0  0  0  0  0  0  0  0  0  0  0
    9.4644   43.4012  128.2681 C   0  0  0  0  0  0  0  0  0  0  0  0
    8.8318   44.5389  128.6049 N   0  0  0  0  0  0  0  0  0  0  0  0
    7.4004   51.2961  127.9626 C   0  0  0  0  0  0  0  0  0  0  0  0
    7.2819   52.5570  127.6871 C   0  0  0  0  0  0  0  0  0  0  0  0
    7.5124   53.0581  126.3273 C   0  0  0  0  0  0  0  0  0  0  0  0
    8.4059   52.5556  125.4386 C   0  0  0  0  0  0  0  0  0  0  0  0
    8.5689   53.0910  124.1530 C   0  0  0  0  0  0  0  0  0  0  0  0
    7.8204   54.1595  123.7374 C   0  0  0  0  0  0  0  0  0  0  0  0
    8.0052   54.8480  122.1346 Cl  0  0  0  0  0  0  0  0  0  0  0  0
    6.9088   54.6754  124.6383 C   0  0  0  0  0  0  0  0  0  0  0  0
    6.7472   54.1516  125.8999 C   0  0  0  0  0  0  0  0  0  0  0  0
    5.5814   54.8483  126.9857 Cl  0  0  0  0  0  0  0  0  0  0  0  0
    8.1982   46.2599  131.6093 C   0  0  0  0  0  0  0  0  0  0  0  0
    9.2299   46.2940  132.5898 N   0  0  0  0  0  0  0  0  0  0  0  0
    8.7647   47.0289  133.7783 C   0  0  0  0  0  0  0  0  0  0  0  0
   11.1137   47.1508  134.3844 C   0  0  0  0  0  0  0  0  0  0  0  0
    9.6972   46.9655  134.9394 C   0  0  0  0  0  0  0  0  0  0  0  0
    9.5049   44.8948  133.0347 C   0  0  0  0  0  0  0  0  0  0  0  0
    8.7703   43.9658  132.1228 C   0  0  0  0  0  0  0  0  0  0  0  0
    9.6010   42.7002  131.9111 C   0  0  0  0  0  0  0  0  0  0  0  0
 29 30  1  0  0  0
 30 28  1  0  0  0
 28 27  1  0  0  0
 27 31  1  0  0  0
 31 32  1  0  0  0
 32 33  1  0  0  0
 27 26  1  0  0  0
 26  1  1  0  0  0
  1  2  2  0  0  0
  2  3  1  0  0  0
  3  4  1  0  0  0
  4  5  2  0  0  0
  5 16  1  0  0  0
 16 17  2  0  0  0
 17 18  1  0  0  0
 18 19  2  0  0  0
 19 20  1  0  0  0
 20 21  2  0  0  0
 21 22  1  0  0  0
 21 23  1  0  0  0
 23 24  2  0  0  0
 24 25  1  0  0  0
  5  6  1  0  0  0
  6  7  2  0  0  0
  7  8  1  0  0  0
  8  9  2  0  0  0
  2 10  1  0  0  0
 10 11  2  0  0  0
 11 12  1  0  0  0
 12 13  2  0  0  0
 13 14  1  0  0  0
 14 15  2  0  0  0
  9  1  1  0  0  0
 15 10  1  0  0  0
  9  4  1  0  0  0
 24 18  1  0  0  0
M  END
> <minimizedAffinity>
6.12157

> <CNNscore>
0.2359351963

> <CNNaffinity>
7.4429855347

> <CNN_VS>
1.7560622692

> <CNNaffinity_variance>
0.0951678008

$$$$
[H]/C(=C(/[H])c1c([H])c([H])c([H])c2c(C([H])([H])N(C([H])([H])C([H])([H])C([H])([H])[H])C([H])([H])C([H])([H])C([H])([H])[H])c(-c3nc([H])c([H])c([H])c3[H])sc12)c1c([H])c([H])c(Cl)c([H])c1Cl


 33 36  0  0  0  0  0  0  0  0999 V2000
    9.4081   44.9117  132.0829 C   0  0  0  0  0  0  0  0  0  0  0  0
    9.3083   44.8551  130.6729 C   0  0  0  0  0  0  0  0  0  0  0  0
    8.9131   46.4377  130.2400 S   0  0  0  0  0  0  0  0  0  0  0  0
    8.8624   47.1774  131.7685 C   0  0  0  0  0  0  0  0  0  0  0  0
    8.5618   48.4708  132.1484 C   0  0  0  0  0  0  0  0  0  0  0  0
    8.5537   48.7824  133.5281 C   0  0  0  0  0  0  0  0  0  0  0  0
    8.8471   47.7654  134.3845 C   0  0  0  0  0  0  0  0  0  0  0  0
    9.1428   46.4912  133.9766 C   0  0  0  0  0  0  0  0  0  0  0  0
    9.1656   46.1379  132.6131 C   0  0  0  0  0  0  0  0  0  0  0  0
    9.4849   43.7246  129.7678 C   0  0  0  0  0  0  0  0  0  0  0  0
    9.8779   43.9958  128.4602 C   0  0  0  0  0  0  0  0  0  0  0  0
   10.0576   43.0006  127.5329 C   0  0  0  0  0  0  0  0  0  0  0  0
    9.8450   41.6938  127.8989 C   0  0  0  0  0  0  0  0  0  0  0  0
    9.4535   41.4297  129.2039 C   0  0  0  0  0  0  0  0  0  0  0  0
    9.2944   42.4496  130.0655 N   0  0  0  0  0  0  0  0  0  0  0  0
    8.2722   49.5028  131.1991 C   0  0  0  0  0  0  0  0  0  0  0  0
    7.1638   49.8580  130.6288 C   0  0  0  0  0  0  0  0  0  0  0  0
    7.1287   50.9711  129.6733 C   0  0  0  0  0  0  0  0  0  0  0  0
    7.0169   52.2852  129.9916 C   0  0  0  0  0  0  0  0  0  0  0  0
    6.9901   53.2941  129.0182 C   0  0  0  0  0  0  0  0  0  0  0  0
    7.0770   52.9876  127.6867 C   0  0  0  0  0  0  0  0  0  0  0  0
    7.0456   54.2308  126.4495 Cl  0  0  0  0  0  0  0  0  0  0  0  0
    7.1911   51.6508  127.3567 C   0  0  0  0  0  0  0  0  0  0  0  0
    7.2177   50.6595  128.3099 C   0  0  0  0  0  0  0  0  0  0  0  0
    7.3633   48.9954  127.8271 Cl  0  0  0  0  0  0  0  0  0  0  0  0
    9.7410   43.6060  132.7381 C   0  0  0  0  0  0  0  0  0  0  0  0
   11.1026   43.2807  132.9970 N   0  0  0  0  0  0  0  0  0  0  0  0
   11.9827   44.1167  132.1628 C   0  0  0  0  0  0  0  0  0  0  0  0
   13.0266   44.4356  129.9931 C   0  0  0  0  0  0  0  0  0  0  0  0
   12.6332   43.3861  131.0383 C   0  0  0  0  0  0  0  0  0  0  0  0
   11.4086   43.6257  134.4178 C   0  0  0  0  0  0  0  0  0  0  0  0
   12.6921   44.3914  134.4426 C   0  0  0  0  0  0  0  0  0  0  0  0
   12.3899   45.8896  134.4177 C   0  0  0  0  0  0  0  0  0  0  0  0
 29 30  1  0  0  0
 30 28  1  0  0  0
 28 27  1  0  0  0
 27 31  1  0  0  0
 31 32  1  0  0  0
 32 33  1  0  0  0
 27 26  1  0  0  0
 26  1  1  0  0  0
  1  2  2  0  0  0
  2  3  1  0  0  0
  3  4  1  0  0  0
  4  5  2  0  0  0
  5 16  1  0  0  0
 16 17  2  0  0  0
 17 18  1  0  0  0
 18 19  2  0  0  0
 19 20  1  0  0  0
 20 21  2  0  0  0
 21 22  1  0  0  0
 21 23  1  0  0  0
 23 24  2  0  0  0
 24 25  1  0  0  0
  5  6  1  0  0  0
  6  7  2  0  0  0
  7  8  1  0  0  0
  8  9  2  0  0  0
  2 10  1  0  0  0
 10 11  2  0  0  0
 11 12  1  0  0  0
 12 13  2  0  0  0
 13 14  1  0  0  0
 14 15  2  0  0  0
  9  1  1  0  0  0
 15 10  1  0  0  0
  9  4  1  0  0  0
 24 18  1  0  0  0
M  END
> <minimizedAffinity>
7.23078

> <CNNscore>
0.0699998364

> <CNNaffinity>
7.5927491188

> <CNN_VS>
0.5314912200

> <CNNaffinity_variance>
0.1929847896

$$$$
[H]/C(=C(/[H])c1c([H])c([H])c([H])c2c(C([H])([H])N(C([H])([H])C([H])([H])C([H])([H])[H])C([H])([H])C([H])([H])C([H])([H])[H])c(-c3nc([H])c([H])c([H])c3[H])sc12)c1c([H])c([H])c(Cl)c([H])c1Cl


 33 36  0  0  0  0  0  0  0  0999 V2000
    9.3988   45.4374  131.8163 C   0  0  0  0  0  0  0  0  0  0  0  0
    9.3152   45.3330  130.4079 C   0  0  0  0  0  0  0  0  0  0  0  0
    8.9260   46.9001  129.9171 S   0  0  0  0  0  0  0  0  0  0  0  0
    8.8583   47.6913  131.4189 C   0  0  0  0  0  0  0  0  0  0  0  0
    8.5542   48.9969  131.7512 C   0  0  0  0  0  0  0  0  0  0  0  0
    8.5305   49.3551  133.1194 C   0  0  0  0  0  0  0  0  0  0  0  0
    8.8134   48.3678  134.0131 C   0  0  0  0  0  0  0  0  0  0  0  0
    9.1129   47.0803  133.6521 C   0  0  0  0  0  0  0  0  0  0  0  0
    9.1511   46.6809  132.3017 C   0  0  0  0  0  0  0  0  0  0  0  0
    9.5013   44.1723  129.5438 C   0  0  0  0  0  0  0  0  0  0  0  0
   10.2070   44.3533  128.3576 C   0  0  0  0  0  0  0  0  0  0  0  0
   10.4225   43.3254  127.4747 C   0  0  0  0  0  0  0  0  0  0  0  0
    9.9299   42.0761  127.7637 C   0  0  0  0  0  0  0  0  0  0  0  0
    9.2273   41.9018  128.9478 C   0  0  0  0  0  0  0  0  0  0  0  0
    9.0498   42.9497  129.7714 N   0  0  0  0  0  0  0  0  0  0  0  0
    8.2762   49.9962  130.7641 C   0  0  0  0  0  0  0  0  0  0  0  0
    7.1657   50.5554  130.3981 C   0  0  0  0  0  0  0  0  0  0  0  0
    7.1451   51.5741  129.3422 C   0  0  0  0  0  0  0  0  0  0  0  0
    7.0711   52.9149  129.5361 C   0  0  0  0  0  0  0  0  0  0  0  0
    7.0558   53.8280  128.4721 C   0  0  0  0  0  0  0  0  0  0  0  0
    7.1160   53.3952  127.1746 C   0  0  0  0  0  0  0  0  0  0  0  0
    7.0982   54.5167  125.8259 Cl  0  0  0  0  0  0  0  0  0  0  0  0
    7.1915   52.0307  126.9711 C   0  0  0  0  0  0  0  0  0  0  0  0
    7.2066   51.1332  128.0134 C   0  0  0  0  0  0  0  0  0  0  0  0
    7.3032   49.4278  127.6883 Cl  0  0  0  0  0  0  0  0  0  0  0  0
    9.7233   44.1546  132.5191 C   0  0  0  0  0  0  0  0  0  0  0  0
   11.0710   43.8807  132.8876 N   0  0  0  0  0  0  0  0  0  0  0  0
   11.1341   43.5143  134.3127 C   0  0  0  0  0  0  0  0  0  0  0  0
   12.2290   45.6803  134.4080 C   0  0  0  0  0  0  0  0  0  0  0  0
   11.4344   44.6548  135.2240 C   0  0  0  0  0  0  0  0  0  0  0  0
   11.5372   42.6873  132.1197 C   0  0  0  0  0  0  0  0  0  0  0  0
   12.4045   43.1662  131.0005 C   0  0  0  0  0  0  0  0  0  0  0  0
   12.8327   44.6083  131.2716 C   0  0  0  0  0  0  0  0  0  0  0  0
 29 30  1  0  0  0
 30 28  1  0  0  0
 28 27  1  0  0  0
 27 31  1  0  0  0
 31 32  1  0  0  0
 32 33  1  0  0  0
 27 26  1  0  0  0
 26  1  1  0  0  0
  1  2  2  0  0  0
  2  3  1  0  0  0
  3  4  1  0  0  0
  4  5  2  0  0  0
  5 16  1  0  0  0
 16 17  2  0  0  0
 17 18  1  0  0  0
 18 19  2  0  0  0
 19 20  1  0  0  0
 20 21  2  0  0  0
 21 22  1  0  0  0
 21 23  1  0  0  0
 23 24  2  0  0  0
 24 25  1  0  0  0
  5  6  1  0  0  0
  6  7  2  0  0  0
  7  8  1  0  0  0
  8  9  2  0  0  0
  2 10  1  0  0  0
 10 11  2  0  0  0
 11 12  1  0  0  0
 12 13  2  0  0  0
 13 14  1  0  0  0
 14 15  2  0  0  0
  9  1  1  0  0  0
 15 10  1  0  0  0
  9  4  1  0  0  0
 24 18  1  0  0  0
M  END
> <minimizedAffinity>
8.53179

> <CNNscore>
0.0480037965

> <CNNaffinity>
7.4257240295

> <CNN_VS>
0.3564629555

> <CNNaffinity_variance>
0.1410630643

$$$$
[H]/C(=C(/[H])c1c([H])c([H])c([H])c2c(C([H])([H])N(C([H])([H])C([H])([H])C([H])([H])[H])C([H])([H])C([H])([H])C([H])([H])[H])c(-c3nc([H])c([H])c([H])c3[H])sc12)c1c([H])c([H])c(Cl)c([H])c1Cl


 33 36  0  0  0  0  0  0  0  0999 V2000
   10.2665   46.2253  131.7045 C   0  0  0  0  0  0  0  0  0  0  0  0
    9.8736   45.9827  130.3672 C   0  0  0  0  0  0  0  0  0  0  0  0
    9.3511   47.4940  129.8277 S   0  0  0  0  0  0  0  0  0  0  0  0
    9.6025   48.4294  131.2234 C   0  0  0  0  0  0  0  0  0  0  0  0
    9.3520   49.7615  131.4882 C   0  0  0  0  0  0  0  0  0  0  0  0
    9.6258   50.2527  132.7860 C   0  0  0  0  0  0  0  0  0  0  0  0
   10.1219   49.3581  133.6845 C   0  0  0  0  0  0  0  0  0  0  0  0
   10.3612   48.0412  133.3911 C   0  0  0  0  0  0  0  0  0  0  0  0
   10.1063   47.5108  132.1112 C   0  0  0  0  0  0  0  0  0  0  0  0
    9.8877   44.7425  129.5990 C   0  0  0  0  0  0  0  0  0  0  0  0
   10.8327   44.6186  128.5845 C   0  0  0  0  0  0  0  0  0  0  0  0
   10.9156   43.4960  127.8000 C   0  0  0  0  0  0  0  0  0  0  0  0
   10.0425   42.4579  128.0169 C   0  0  0  0  0  0  0  0  0  0  0  0
    9.1027   42.5872  129.0299 C   0  0  0  0  0  0  0  0  0  0  0  0
    9.0727   43.7134  129.7639 N   0  0  0  0  0  0  0  0  0  0  0  0
    8.8396   50.6588  130.4970 C   0  0  0  0  0  0  0  0  0  0  0  0
    7.6256   50.9575  130.1551 C   0  0  0  0  0  0  0  0  0  0  0  0
    7.3586   51.9283  129.0877 C   0  0  0  0  0  0  0  0  0  0  0  0
    7.2936   53.2749  129.2395 C   0  0  0  0  0  0  0  0  0  0  0  0
    7.0327   54.1400  128.1673 C   0  0  0  0  0  0  0  0  0  0  0  0
    6.8300   53.6516  126.9044 C   0  0  0  0  0  0  0  0  0  0  0  0
    6.5018   54.7122  125.5464 Cl  0  0  0  0  0  0  0  0  0  0  0  0
    6.8951   52.2808  126.7438 C   0  0  0  0  0  0  0  0  0  0  0  0
    7.1509   51.4304  127.7943 C   0  0  0  0  0  0  0  0  0  0  0  0
    7.2195   49.7141  127.5240 Cl  0  0  0  0  0  0  0  0  0  0  0  0
   10.7670   45.0178  132.4369 C   0  0  0  0  0  0  0  0  0  0  0  0
    9.8851   44.3088  133.3008 N   0  0  0  0  0  0  0  0  0  0  0  0
   10.1499   42.8630  133.2069 C   0  0  0  0  0  0  0  0  0  0  0  0
   12.4734   42.8238  132.5003 C   0  0  0  0  0  0  0  0  0  0  0  0
   11.0418   42.4775  132.0767 C   0  0  0  0  0  0  0  0  0  0  0  0
   10.1835   44.7059  134.7095 C   0  0  0  0  0  0  0  0  0  0  0  0
    9.2474   45.8079  135.0885 C   0  0  0  0  0  0  0  0  0  0  0  0
    7.8971   45.5833  134.4083 C   0  0  0  0  0  0  0  0  0  0  0  0
 29 30  1  0  0  0
 30 28  1  0  0  0
 28 27  1  0  0  0
 27 31  1  0  0  0
 31 32  1  0  0  0
 32 33  1  0  0  0
 27 26  1  0  0  0
 26  1  1  0  0  0
  1  2  2  0  0  0
  2  3  1  0  0  0
  3  4  1  0  0  0
  4  5  2  0  0  0
  5 16  1  0  0  0
 16 17  2  0  0  0
 17 18  1  0  0  0
 18 19  2  0  0  0
 19 20  1  0  0  0
 20 21  2  0  0  0
 21 22  1  0  0  0
 21 23  1  0  0  0
 23 24  2  0  0  0
 24 25  1  0  0  0
  5  6  1  0  0  0
  6  7  2  0  0  0
  7  8  1  0  0  0
  8  9  2  0  0  0
  2 10  1  0  0  0
 10 11  2  0  0  0
 11 12  1  0  0  0
 12 13  2  0  0  0
 13 14  1  0  0  0
 14 15  2  0  0  0
  9  1  1  0  0  0
 15 10  1  0  0  0
  9  4  1  0  0  0
 24 18  1  0  0  0
M  END
> <minimizedAffinity>
8.37667

> <CNNscore>
0.0443537459

> <CNNaffinity>
7.3761062622

> <CNN_VS>
0.3271579444

> <CNNaffinity_variance>
0.1197309271

$$$$
[H]/C(=C(/[H])c1c([H])c([H])c([H])c2c(C([H])([H])N(C([H])([H])C([H])([H])C([H])([H])[H])C([H])([H])C([H])([H])C([H])([H])[H])c(-c3nc([H])c([H])c([H])c3[H])sc12)c1c([H])c([H])c(Cl)c([H])c1Cl


 33 36  0  0  0  0  0  0  0  0999 V2000
   10.2790   46.5450  131.2547 C   0  0  0  0  0  0  0  0  0  0  0  0
    9.4637   45.8451  130.3346 C   0  0  0  0  0  0  0  0  0  0  0  0
    8.2930   46.9801  129.8996 S   0  0  0  0  0  0  0  0  0  0  0  0
    8.7834   48.3106  130.8352 C   0  0  0  0  0  0  0  0  0  0  0  0
    8.2413   49.5720  130.9852 C   0  0  0  0  0  0  0  0  0  0  0  0
    8.8569   50.4657  131.8924 C   0  0  0  0  0  0  0  0  0  0  0  0
    9.9519   50.0027  132.5559 C   0  0  0  0  0  0  0  0  0  0  0  0
   10.4675   48.7448  132.3846 C   0  0  0  0  0  0  0  0  0  0  0  0
    9.8884   47.8240  131.4894 C   0  0  0  0  0  0  0  0  0  0  0  0
    9.5633   44.4711  129.8540 C   0  0  0  0  0  0  0  0  0  0  0  0
   10.2942   44.2419  128.6916 C   0  0  0  0  0  0  0  0  0  0  0  0
   10.4342   42.9868  128.1554 C   0  0  0  0  0  0  0  0  0  0  0  0
    9.8378   41.9184  128.7796 C   0  0  0  0  0  0  0  0  0  0  0  0
    9.1106   42.1531  129.9381 C   0  0  0  0  0  0  0  0  0  0  0  0
    9.0107   43.4070  130.4132 N   0  0  0  0  0  0  0  0  0  0  0  0
    7.0925   50.0070  130.2495 C   0  0  0  0  0  0  0  0  0  0  0  0
    6.0334   49.3712  129.8569 C   0  0  0  0  0  0  0  0  0  0  0  0
    4.9771   50.0562  129.1032 C   0  0  0  0  0  0  0  0  0  0  0  0
    3.6844   49.6555  129.0083 C   0  0  0  0  0  0  0  0  0  0  0  0
    2.7303   50.3660  128.2659 C   0  0  0  0  0  0  0  0  0  0  0  0
    3.0715   51.5107  127.5968 C   0  0  0  0  0  0  0  0  0  0  0  0
    1.8972   52.4176  126.6611 Cl  0  0  0  0  0  0  0  0  0  0  0  0
    4.3868   51.9235  127.6899 C   0  0  0  0  0  0  0  0  0  0  0  0
    5.3243   51.2281  128.4177 C   0  0  0  0  0  0  0  0  0  0  0  0
    6.9637   51.8025  128.4941 Cl  0  0  0  0  0  0  0  0  0  0  0  0
   11.4116   45.7437  131.8204 C   0  0  0  0  0  0  0  0  0  0  0  0
   11.4486   45.4755  133.2181 N   0  0  0  0  0  0  0  0  0  0  0  0
   10.0848   45.2245  133.7144 C   0  0  0  0  0  0  0  0  0  0  0  0
    8.4077   46.7300  134.6202 C   0  0  0  0  0  0  0  0  0  0  0  0
    9.7234   46.0076  134.9300 C   0  0  0  0  0  0  0  0  0  0  0  0
   12.2202   44.2153  133.4369 C   0  0  0  0  0  0  0  0  0  0  0  0
   12.3014   43.4894  132.1327 C   0  0  0  0  0  0  0  0  0  0  0  0
   11.5780   42.1482  132.2525 C   0  0  0  0  0  0  0  0  0  0  0  0
 29 30  1  0  0  0
 30 28  1  0  0  0
 28 27  1  0  0  0
 27 31  1  0  0  0
 31 32  1  0  0  0
 32 33  1  0  0  0
 27 26  1  0  0  0
 26  1  1  0  0  0
  1  2  2  0  0  0
  2  3  1  0  0  0
  3  4  1  0  0  0
  4  5  2  0  0  0
  5 16  1  0  0  0
 16 17  2  0  0  0
 17 18  1  0  0  0
 18 19  2  0  0  0
 19 20  1  0  0  0
 20 21  2  0  0  0
 21 22  1  0  0  0
 21 23  1  0  0  0
 23 24  2  0  0  0
 24 25  1  0  0  0
  5  6  1  0  0  0
  6  7  2  0  0  0
  7  8  1  0  0  0
  8  9  2  0  0  0
  2 10  1  0  0  0
 10 11  2  0  0  0
 11 12  1  0  0  0
 12 13  2  0  0  0
 13 14  1  0  0  0
 14 15  2  0  0  0
  9  1  1  0  0  0
 15 10  1  0  0  0
  9  4  1  0  0  0
 24 18  1  0  0  0
M  END
> <minimizedAffinity>
12.34075

> <CNNscore>
0.0379456580

> <CNNaffinity>
7.6361198425

> <CNN_VS>
0.2897575796

> <CNNaffinity_variance>
0.1738021225

$$$$
[H]/C(=C(/[H])c1c([H])c([H])c([H])c2c(C([H])([H])N(C([H])([H])C([H])([H])C([H])([H])[H])C([H])([H])C([H])([H])C([H])([H])[H])c(-c3nc([H])c([H])c([H])c3[H])sc12)c1c([H])c([H])c(Cl)c([H])c1Cl


 33 36  0  0  0  0  0  0  0  0999 V2000
    9.7051   46.2650  129.5094 C   0  0  0  0  0  0  0  0  0  0  0  0
    8.4726   45.7829  130.0091 C   0  0  0  0  0  0  0  0  0  0  0  0
    7.5377   47.1785  130.1711 S   0  0  0  0  0  0  0  0  0  0  0  0
    8.6386   48.3570  129.6371 C   0  0  0  0  0  0  0  0  0  0  0  0
    8.5328   49.7309  129.5433 C   0  0  0  0  0  0  0  0  0  0  0  0
    9.6583   50.4639  129.1001 C   0  0  0  0  0  0  0  0  0  0  0  0
   10.7738   49.7445  128.7973 C   0  0  0  0  0  0  0  0  0  0  0  0
   10.8479   48.3801  128.8995 C   0  0  0  0  0  0  0  0  0  0  0  0
    9.7504   47.6105  129.3331 C   0  0  0  0  0  0  0  0  0  0  0  0
    8.0636   44.4201  130.3322 C   0  0  0  0  0  0  0  0  0  0  0  0
    7.7928   43.5563  129.2747 C   0  0  0  0  0  0  0  0  0  0  0  0
    7.3899   42.2606  129.4782 C   0  0  0  0  0  0  0  0  0  0  0  0
    7.2473   41.7943  130.7624 C   0  0  0  0  0  0  0  0  0  0  0  0
    7.5188   42.6602  131.8124 C   0  0  0  0  0  0  0  0  0  0  0  0
    7.9100   43.9189  131.5469 N   0  0  0  0  0  0  0  0  0  0  0  0
    7.3268   50.4324  129.8654 C   0  0  0  0  0  0  0  0  0  0  0  0
    6.0877   50.0523  129.8689 C   0  0  0  0  0  0  0  0  0  0  0  0
    5.0144   50.9789  130.2466 C   0  0  0  0  0  0  0  0  0  0  0  0
    5.1291   52.3274  130.3425 C   0  0  0  0  0  0  0  0  0  0  0  0
    4.0539   53.1484  130.7112 C   0  0  0  0  0  0  0  0  0  0  0  0
    2.8260   52.6126  130.9935 C   0  0  0  0  0  0  0  0  0  0  0  0
    1.4651   53.6175  131.4572 Cl  0  0  0  0  0  0  0  0  0  0  0  0
    2.7034   51.2397  130.8975 C   0  0  0  0  0  0  0  0  0  0  0  0
    3.7568   50.4325  130.5359 C   0  0  0  0  0  0  0  0  0  0  0  0
    3.5352   48.7109  130.4337 Cl  0  0  0  0  0  0  0  0  0  0  0  0
   10.7442   45.2090  129.2860 C   0  0  0  0  0  0  0  0  0  0  0  0
   11.5806   45.2832  128.1362 N   0  0  0  0  0  0  0  0  0  0  0  0
   10.8708   44.7373  126.9668 C   0  0  0  0  0  0  0  0  0  0  0  0
    9.4474   45.2964  125.0798 C   0  0  0  0  0  0  0  0  0  0  0  0
   10.7130   45.7030  125.8425 C   0  0  0  0  0  0  0  0  0  0  0  0
   11.8478   46.7224  127.8388 C   0  0  0  0  0  0  0  0  0  0  0  0
   12.6554   47.2858  128.9634 C   0  0  0  0  0  0  0  0  0  0  0  0
   12.4096   46.4619  130.2272 C   0  0  0  0  0  0  0  0  0  0  0  0
 29 30  1  0  0  0
 30 28  1  0  0  0
 28 27  1  0  0  0
 27 31  1  0  0  0
 31 32  1  0  0  0
 32 33  1  0  0  0
 27 26  1  0  0  0
 26  1  1  0  0  0
  1  2  2  0  0  0
  2  3  1  0  0  0
  3  4  1  0  0  0
  4  5  2  0  0  0
  5 16  1  0  0  0
 16 17  2  0  0  0
 17 18  1  0  0  0
 18 19  2  0  0  0
 19 20  1  0  0  0
 20 21  2  0  0  0
 21 22  1  0  0  0
 21 23  1  0  0  0
 23 24  2  0  0  0
 24 25  1  0  0  0
  5  6  1  0  0  0
  6  7  2  0  0  0
  7  8  1  0  0  0
  8  9  2  0  0  0
  2 10  1  0  0  0
 10 11  2  0  0  0
 11 12  1  0  0  0
 12 13  2  0  0  0
 13 14  1  0  0  0
 14 15  2  0  0  0
  9  1  1  0  0  0
 15 10  1  0  0  0
  9  4  1  0  0  0
 24 18  1  0  0  0
M  END
> <minimizedAffinity>
82.19440

> <CNNscore>
0.0008483535

> <CNNaffinity>
6.0187311172

> <CNN_VS>
0.0051060114

> <CNNaffinity_variance>
0.7219231129

$$$$
[H]c1c([H])c([H])c(N([H])N([H])C(=O)c2c([H])c([H])c(OC(=O)C([H])([H])[H])c(-c3c([H])c(Cl)c([H])c([H])c3Cl)c2[H])c([H])c1[H]


 30 32  0  0  0  0  0  0  0  0999 V2000
    7.8151   46.6467  129.9590 C   0  0  0  0  0  0  0  0  0  0  0  0
    7.0420   47.0311  128.8690 C   0  0  0  0  0  0  0  0  0  0  0  0
    6.7463   48.3540  128.6050 C   0  0  0  0  0  0  0  0  0  0  0  0
    7.2128   49.3521  129.4233 C   0  0  0  0  0  0  0  0  0  0  0  0
    7.9786   48.9627  130.5027 C   0  0  0  0  0  0  0  0  0  0  0  0
    8.2858   47.6510  130.7845 C   0  0  0  0  0  0  0  0  0  0  0  0
    9.0893   47.2386  131.9314 C   0  0  0  0  0  0  0  0  0  0  0  0
    9.1344   45.9115  132.2954 C   0  0  0  0  0  0  0  0  0  0  0  0
    9.8856   45.5393  133.3832 C   0  0  0  0  0  0  0  0  0  0  0  0
    9.9297   43.8566  133.8269 Cl  0  0  0  0  0  0  0  0  0  0  0  0
   10.6042   46.4390  134.1364 C   0  0  0  0  0  0  0  0  0  0  0  0
   10.5703   47.7723  133.7861 C   0  0  0  0  0  0  0  0  0  0  0  0
    9.8102   48.1539  132.6839 C   0  0  0  0  0  0  0  0  0  0  0  0
    9.7999   49.8582  132.2636 Cl  0  0  0  0  0  0  0  0  0  0  0  0
    6.9403   50.7772  129.2028 C   0  0  0  0  0  0  0  0  0  0  0  0
    6.3116   51.4117  130.0737 O   0  0  0  0  0  0  0  0  0  0  0  0
    7.3665   51.4482  128.0396 N   0  0  0  0  0  0  0  0  0  0  0  0
    7.9051   50.9613  127.2638 H   0  0  0  0  0  0  0  0  0  0  0  0
    7.0875   52.8031  127.8700 N   0  0  0  0  0  0  0  0  0  0  0  0
    6.8042   53.4040  128.6758 H   0  0  0  0  0  0  0  0  0  0  0  0
    7.1757   53.4257  126.5984 C   0  0  0  0  0  0  0  0  0  0  0  0
    8.3525   53.4370  125.8819 C   0  0  0  0  0  0  0  0  0  0  0  0
    8.4350   54.0452  124.6423 C   0  0  0  0  0  0  0  0  0  0  0  0
    7.3239   54.6612  124.0915 C   0  0  0  0  0  0  0  0  0  0  0  0
    6.1305   54.6612  124.7961 C   0  0  0  0  0  0  0  0  0  0  0  0
    6.0666   54.0523  126.0263 C   0  0  0  0  0  0  0  0  0  0  0  0
    8.0965   45.2957  130.1963 O   0  0  0  0  0  0  0  0  0  0  0  0
   10.1864   45.1651  128.7880 C   0  0  0  0  0  0  0  0  0  0  0  0
    8.9047   44.5925  129.3133 C   0  0  0  0  0  0  0  0  0  0  0  0
    8.5090   43.4468  128.9733 O   0  0  0  0  0  0  0  0  0  0  0  0
 28 29  1  0  0  0
 29 30  2  0  0  0
 29 27  1  0  0  0
 27  1  1  0  0  0
  1  2  2  0  0  0
  2  3  1  0  0  0
  3  4  2  0  0  0
  4  5  1  0  0  0
  5  6  2  0  0  0
  6  7  1  0  0  0
  7  8  2  0  0  0
  8  9  1  0  0  0
  9 10  1  0  0  0
  9 11  2  0  0  0
 11 12  1  0  0  0
 12 13  2  0  0  0
 13 14  1  0  0  0
  4 15  1  0  0  0
 15 16  2  0  0  0
 15 17  1  0  0  0
 17 19  1  0  0  0
 19 21  1  0  0  0
 21 22  2  0  0  0
 22 23  1  0  0  0
 23 24  2  0  0  0
 24 25  1  0  0  0
 25 26  2  0  0  0
  6  1  1  0  0  0
 13  7  1  0  0  0
 26 21  1  0  0  0
 17 18  1  0  0  0
 19 20  1  0  0  0
M  END
> <minimizedAffinity>
-5.41477

> <CNNscore>
0.6522510648

> <CNNaffinity>
7.3473753929

> <CNN_VS>
4.7923336029

> <CNNaffinity_variance>
0.3301629424

$$$$
[H]c1c([H])c([H])c(N([H])N([H])C(=O)c2c([H])c([H])c(OC(=O)C([H])([H])[H])c(-c3c([H])c(Cl)c([H])c([H])c3Cl)c2[H])c([H])c1[H]


 30 32  0  0  0  0  0  0  0  0999 V2000
    7.3427   46.7260  130.1100 C   0  0  0  0  0  0  0  0  0  0  0  0
    6.3941   47.2306  129.2275 C   0  0  0  0  0  0  0  0  0  0  0  0
    6.2698   48.5822  128.9726 C   0  0  0  0  0  0  0  0  0  0  0  0
    7.0919   49.4897  129.5923 C   0  0  0  0  0  0  0  0  0  0  0  0
    8.0301   48.9813  130.4667 C   0  0  0  0  0  0  0  0  0  0  0  0
    8.1718   47.6388  130.7352 C   0  0  0  0  0  0  0  0  0  0  0  0
    9.1592   47.1018  131.6669 C   0  0  0  0  0  0  0  0  0  0  0  0
    8.8527   46.9957  133.0050 C   0  0  0  0  0  0  0  0  0  0  0  0
    9.7950   46.4990  133.8718 C   0  0  0  0  0  0  0  0  0  0  0  0
    9.3878   46.3725  135.5596 Cl  0  0  0  0  0  0  0  0  0  0  0  0
   11.0460   46.0975  133.4633 C   0  0  0  0  0  0  0  0  0  0  0  0
   11.3700   46.1969  132.1266 C   0  0  0  0  0  0  0  0  0  0  0  0
   10.4175   46.6997  131.2445 C   0  0  0  0  0  0  0  0  0  0  0  0
   10.8637   46.8019  129.5497 Cl  0  0  0  0  0  0  0  0  0  0  0  0
    7.0182   50.9382  129.3681 C   0  0  0  0  0  0  0  0  0  0  0  0
    6.8170   51.6889  130.3439 O   0  0  0  0  0  0  0  0  0  0  0  0
    7.1673   51.5045  128.0867 N   0  0  0  0  0  0  0  0  0  0  0  0
    7.3402   50.9166  127.2186 H   0  0  0  0  0  0  0  0  0  0  0  0
    7.0911   52.8857  127.9177 N   0  0  0  0  0  0  0  0  0  0  0  0
    6.9388   53.5244  128.7298 H   0  0  0  0  0  0  0  0  0  0  0  0
    7.2172   53.4851  126.6382 C   0  0  0  0  0  0  0  0  0  0  0  0
    6.1409   54.0700  126.0074 C   0  0  0  0  0  0  0  0  0  0  0  0
    6.2674   54.6534  124.7596 C   0  0  0  0  0  0  0  0  0  0  0  0
    7.4920   54.6610  124.1133 C   0  0  0  0  0  0  0  0  0  0  0  0
    8.5873   54.0778  124.7305 C   0  0  0  0  0  0  0  0  0  0  0  0
    8.4434   53.5027  125.9702 C   0  0  0  0  0  0  0  0  0  0  0  0
    7.4419   45.3490  130.3441 O   0  0  0  0  0  0  0  0  0  0  0  0
    8.9233   43.3152  130.1523 C   0  0  0  0  0  0  0  0  0  0  0  0
    8.3414   44.5863  129.6117 C   0  0  0  0  0  0  0  0  0  0  0  0
    8.6465   45.0139  128.4676 O   0  0  0  0  0  0  0  0  0  0  0  0
 28 29  1  0  0  0
 29 30  2  0  0  0
 29 27  1  0  0  0
 27  1  1  0  0  0
  1  2  2  0  0  0
  2  3  1  0  0  0
  3  4  2  0  0  0
  4  5  1  0  0  0
  5  6  2  0  0  0
  6  7  1  0  0  0
  7  8  2  0  0  0
  8  9  1  0  0  0
  9 10  1  0  0  0
  9 11  2  0  0  0
 11 12  1  0  0  0
 12 13  2  0  0  0
 13 14  1  0  0  0
  4 15  1  0  0  0
 15 16  2  0  0  0
 15 17  1  0  0  0
 17 19  1  0  0  0
 19 21  1  0  0  0
 21 22  2  0  0  0
 22 23  1  0  0  0
 23 24  2  0  0  0
 24 25  1  0  0  0
 25 26  2  0  0  0
  6  1  1  0  0  0
 13  7  1  0  0  0
 26 21  1  0  0  0
 17 18  1  0  0  0
 19 20  1  0  0  0
M  END
> <minimizedAffinity>
-4.59905

> <CNNscore>
0.6203368902

> <CNNaffinity>
7.2302598953

> <CNN_VS>
4.4851970673

> <CNNaffinity_variance>
0.3423419297

$$$$
[H]c1c([H])c([H])c(N([H])N([H])C(=O)c2c([H])c([H])c(OC(=O)C([H])([H])[H])c(-c3c([H])c(Cl)c([H])c([H])c3Cl)c2[H])c([H])c1[H]


 30 32  0  0  0  0  0  0  0  0999 V2000
   10.2090   43.5278  130.3417 C   0  0  0  0  0  0  0  0  0  0  0  0
    9.4793   43.4228  129.1629 C   0  0  0  0  0  0  0  0  0  0  0  0
    8.7086   44.4613  128.6781 C   0  0  0  0  0  0  0  0  0  0  0  0
    8.6348   45.6529  129.3547 C   0  0  0  0  0  0  0  0  0  0  0  0
    9.3612   45.7491  130.5236 C   0  0  0  0  0  0  0  0  0  0  0  0
   10.1358   44.7276  131.0247 C   0  0  0  0  0  0  0  0  0  0  0  0
   10.8978   44.8268  132.2660 C   0  0  0  0  0  0  0  0  0  0  0  0
   10.2379   44.9641  133.4666 C   0  0  0  0  0  0  0  0  0  0  0  0
   10.9678   45.0674  134.6254 C   0  0  0  0  0  0  0  0  0  0  0  0
   10.1146   45.2400  136.1329 Cl  0  0  0  0  0  0  0  0  0  0  0  0
   12.3432   45.0400  134.6453 C   0  0  0  0  0  0  0  0  0  0  0  0
   13.0205   44.9032  133.4519 C   0  0  0  0  0  0  0  0  0  0  0  0
   12.2844   44.7980  132.2749 C   0  0  0  0  0  0  0  0  0  0  0  0
   13.1818   44.6154  130.7772 Cl  0  0  0  0  0  0  0  0  0  0  0  0
    7.8390   46.7985  128.8981 C   0  0  0  0  0  0  0  0  0  0  0  0
    8.4303   47.8303  128.5215 O   0  0  0  0  0  0  0  0  0  0  0  0
    6.4308   46.7674  128.8729 N   0  0  0  0  0  0  0  0  0  0  0  0
    5.8722   45.9177  129.1813 H   0  0  0  0  0  0  0  0  0  0  0  0
    5.7131   47.8773  128.4310 N   0  0  0  0  0  0  0  0  0  0  0  0
    5.0074   47.7978  127.6654 H   0  0  0  0  0  0  0  0  0  0  0  0
    5.9079   49.1620  129.0002 C   0  0  0  0  0  0  0  0  0  0  0  0
    5.0723   49.6497  129.9812 C   0  0  0  0  0  0  0  0  0  0  0  0
    5.2653   50.9029  130.5339 C   0  0  0  0  0  0  0  0  0  0  0  0
    6.3137   51.7004  130.1070 C   0  0  0  0  0  0  0  0  0  0  0  0
    7.1657   51.2287  129.1209 C   0  0  0  0  0  0  0  0  0  0  0  0
    6.9591   49.9813  128.5829 C   0  0  0  0  0  0  0  0  0  0  0  0
   10.9811   42.4549  130.8038 O   0  0  0  0  0  0  0  0  0  0  0  0
    9.3512   42.1248  132.7017 C   0  0  0  0  0  0  0  0  0  0  0  0
   10.5944   41.7659  131.9453 C   0  0  0  0  0  0  0  0  0  0  0  0
   11.3397   40.8218  132.3167 O   0  0  0  0  0  0  0  0  0  0  0  0
 28 29  1  0  0  0
 29 30  2  0  0  0
 29 27  1  0  0  0
 27  1  1  0  0  0
  1  2  2  0  0  0
  2  3  1  0  0  0
  3  4  2  0  0  0
  4  5  1  0  0  0
  5  6  2  0  0  0
  6  7  1  0  0  0
  7  8  2  0  0  0
  8  9  1  0  0  0
  9 10  1  0  0  0
  9 11  2  0  0  0
 11 12  1  0  0  0
 12 13  2  0  0  0
 13 14  1  0  0  0
  4 15  1  0  0  0
 15 16  2  0  0  0
 15 17  1  0  0  0
 17 19  1  0  0  0
 19 21  1  0  0  0
 21 22  2  0  0  0
 22 23  1  0  0  0
 23 24  2  0  0  0
 24 25  1  0  0  0
 25 26  2  0  0  0
  6  1  1  0  0  0
 13  7  1  0  0  0
 26 21  1  0  0  0
 17 18  1  0  0  0
 19 20  1  0  0  0
M  END
> <minimizedAffinity>
0.34297

> <CNNscore>
0.5785344839

> <CNNaffinity>
7.5345077515

> <CNN_VS>
4.3589725494

> <CNNaffinity_variance>
0.8302240372

$$$$
[H]c1c([H])c([H])c(N([H])N([H])C(=O)c2c([H])c([H])c(OC(=O)C([H])([H])[H])c(-c3c([H])c(Cl)c([H])c([H])c3Cl)c2[H])c([H])c1[H]


 30 32  0  0  0  0  0  0  0  0999 V2000
   10.4134   43.5575  130.3705 C   0  0  0  0  0  0  0  0  0  0  0  0
    9.9469   43.5426  129.0607 C   0  0  0  0  0  0  0  0  0  0  0  0
    9.1150   44.5265  128.5634 C   0  0  0  0  0  0  0  0  0  0  0  0
    8.7128   45.5705  129.3582 C   0  0  0  0  0  0  0  0  0  0  0  0
    9.1796   45.5779  130.6564 C   0  0  0  0  0  0  0  0  0  0  0  0
   10.0092   44.6085  131.1726 C   0  0  0  0  0  0  0  0  0  0  0  0
   10.4963   44.6122  132.5488 C   0  0  0  0  0  0  0  0  0  0  0  0
   11.5298   45.4480  132.9082 C   0  0  0  0  0  0  0  0  0  0  0  0
   11.9852   45.4331  134.2037 C   0  0  0  0  0  0  0  0  0  0  0  0
   13.2924   46.4975  134.6380 Cl  0  0  0  0  0  0  0  0  0  0  0  0
   11.4526   44.6135  135.1721 C   0  0  0  0  0  0  0  0  0  0  0  0
   10.4169   43.7699  134.8297 C   0  0  0  0  0  0  0  0  0  0  0  0
    9.9521   43.7820  133.5175 C   0  0  0  0  0  0  0  0  0  0  0  0
    8.6263   42.7012  133.1225 Cl  0  0  0  0  0  0  0  0  0  0  0  0
    7.8331   46.6507  128.8968 C   0  0  0  0  0  0  0  0  0  0  0  0
    8.3305   47.6024  128.2618 O   0  0  0  0  0  0  0  0  0  0  0  0
    6.4471   46.6450  129.1493 N   0  0  0  0  0  0  0  0  0  0  0  0
    5.9668   45.8626  129.6843 H   0  0  0  0  0  0  0  0  0  0  0  0
    5.6471   47.6907  128.6924 N   0  0  0  0  0  0  0  0  0  0  0  0
    4.8775   47.5256  128.0061 H   0  0  0  0  0  0  0  0  0  0  0  0
    5.8412   49.0233  129.1382 C   0  0  0  0  0  0  0  0  0  0  0  0
    4.9003   49.6691  129.9103 C   0  0  0  0  0  0  0  0  0  0  0  0
    5.0930   50.9686  130.3431 C   0  0  0  0  0  0  0  0  0  0  0  0
    6.2481   51.6532  130.0049 C   0  0  0  0  0  0  0  0  0  0  0  0
    7.2071   51.0218  129.2288 C   0  0  0  0  0  0  0  0  0  0  0  0
    6.9992   49.7305  128.8075 C   0  0  0  0  0  0  0  0  0  0  0  0
   11.2568   42.5439  130.8416 O   0  0  0  0  0  0  0  0  0  0  0  0
   13.4457   43.7751  130.5948 C   0  0  0  0  0  0  0  0  0  0  0  0
   12.5138   42.8646  131.3359 C   0  0  0  0  0  0  0  0  0  0  0  0
   12.8356   42.3530  132.4402 O   0  0  0  0  0  0  0  0  0  0  0  0
 28 29  1  0  0  0
 29 30  2  0  0  0
 29 27  1  0  0  0
 27  1  1  0  0  0
  1  2  2  0  0  0
  2  3  1  0  0  0
  3  4  2  0  0  0
  4  5  1  0  0  0
  5  6  2  0  0  0
  6  7  1  0  0  0
  7  8  2  0  0  0
  8  9  1  0  0  0
  9 10  1  0  0  0
  9 11  2  0  0  0
 11 12  1  0  0  0
 12 13  2  0  0  0
 13 14  1  0  0  0
  4 15  1  0  0  0
 15 16  2  0  0  0
 15 17  1  0  0  0
 17 19  1  0  0  0
 19 21  1  0  0  0
 21 22  2  0  0  0
 22 23  1  0  0  0
 23 24  2  0  0  0
 24 25  1  0  0  0
 25 26  2  0  0  0
  6  1  1  0  0  0
 13  7  1  0  0  0
 26 21  1  0  0  0
 17 18  1  0  0  0
 19 20  1  0  0  0
M  END
> <minimizedAffinity>
1.53930

> <CNNscore>
0.5179840326

> <CNNaffinity>
7.5315613747

> <CNN_VS>
3.9012284279

> <CNNaffinity_variance>
1.0194259882

$$$$
[H]c1c([H])c([H])c(N([H])N([H])C(=O)c2c([H])c([H])c(OC(=O)C([H])([H])[H])c(-c3c([H])c(Cl)c([H])c([H])c3Cl)c2[H])c([H])c1[H]


 30 32  0  0  0  0  0  0  0  0999 V2000
    9.8659   45.7856  130.8957 C   0  0  0  0  0  0  0  0  0  0  0  0
    9.6664   45.4304  129.5663 C   0  0  0  0  0  0  0  0  0  0  0  0
    9.6774   44.1152  129.1452 C   0  0  0  0  0  0  0  0  0  0  0  0
    9.8896   43.0959  130.0391 C   0  0  0  0  0  0  0  0  0  0  0  0
   10.0872   43.4563  131.3560 C   0  0  0  0  0  0  0  0  0  0  0  0
   10.0799   44.7599  131.7978 C   0  0  0  0  0  0  0  0  0  0  0  0
   10.2973   45.1416  133.1900 C   0  0  0  0  0  0  0  0  0  0  0  0
   11.5530   45.5198  133.6093 C   0  0  0  0  0  0  0  0  0  0  0  0
   11.7454   45.8657  134.9243 C   0  0  0  0  0  0  0  0  0  0  0  0
   13.3404   46.3413  135.4343 Cl  0  0  0  0  0  0  0  0  0  0  0  0
   10.7320   45.8526  135.8549 C   0  0  0  0  0  0  0  0  0  0  0  0
    9.4679   45.4763  135.4524 C   0  0  0  0  0  0  0  0  0  0  0  0
    9.2685   45.1250  134.1201 C   0  0  0  0  0  0  0  0  0  0  0  0
    7.6438   44.6611  133.6438 Cl  0  0  0  0  0  0  0  0  0  0  0  0
    9.9123   41.6773  129.6635 C   0  0  0  0  0  0  0  0  0  0  0  0
   10.0197   40.8184  130.5617 O   0  0  0  0  0  0  0  0  0  0  0  0
    9.8169   41.2580  128.3219 N   0  0  0  0  0  0  0  0  0  0  0  0
    9.7238   41.9424  127.5144 H   0  0  0  0  0  0  0  0  0  0  0  0
    9.8416   39.9003  128.0084 N   0  0  0  0  0  0  0  0  0  0  0  0
    9.2215   39.2185  128.4994 H   0  0  0  0  0  0  0  0  0  0  0  0
   10.7078   39.3845  127.0104 C   0  0  0  0  0  0  0  0  0  0  0  0
   10.4147   39.5052  125.6696 C   0  0  0  0  0  0  0  0  0  0  0  0
   11.2616   39.0009  124.6992 C   0  0  0  0  0  0  0  0  0  0  0  0
   12.4334   38.3579  125.0607 C   0  0  0  0  0  0  0  0  0  0  0  0
   12.7467   38.2257  126.4043 C   0  0  0  0  0  0  0  0  0  0  0  0
   11.8938   38.7326  127.3549 C   0  0  0  0  0  0  0  0  0  0  0  0
    9.8472   47.1295  131.2883 O   0  0  0  0  0  0  0  0  0  0  0  0
    8.4931   48.8861  132.4919 C   0  0  0  0  0  0  0  0  0  0  0  0
    8.6344   47.7709  131.5005 C   0  0  0  0  0  0  0  0  0  0  0  0
    7.6550   47.3704  130.8184 O   0  0  0  0  0  0  0  0  0  0  0  0
 28 29  1  0  0  0
 29 30  2  0  0  0
 29 27  1  0  0  0
 27  1  1  0  0  0
  1  2  2  0  0  0
  2  3  1  0  0  0
  3  4  2  0  0  0
  4  5  1  0  0  0
  5  6  2  0  0  0
  6  7  1  0  0  0
  7  8  2  0  0  0
  8  9  1  0  0  0
  9 10  1  0  0  0
  9 11  2  0  0  0
 11 12  1  0  0  0
 12 13  2  0  0  0
 13 14  1  0  0  0
  4 15  1  0  0  0
 15 16  2  0  0  0
 15 17  1  0  0  0
 17 19  1  0  0  0
 19 21  1  0  0  0
 21 22  2  0  0  0
 22 23  1  0  0  0
 23 24  2  0  0  0
 24 25  1  0  0  0
 25 26  2  0  0  0
  6  1  1  0  0  0
 13  7  1  0  0  0
 26 21  1  0  0  0
 17 18  1  0  0  0
 19 20  1  0  0  0
M  END
> <minimizedAffinity>
20.26870

> <CNNscore>
0.5121315718

> <CNNaffinity>
6.9989142418

> <CNN_VS>
3.5843648911

> <CNNaffinity_variance>
1.1446262598

$$$$
[H]c1c([H])c([H])c(N([H])N([H])C(=O)c2c([H])c([H])c(OC(=O)C([H])([H])[H])c(-c3c([H])c(Cl)c([H])c([H])c3Cl)c2[H])c([H])c1[H]


 30 32  0  0  0  0  0  0  0  0999 V2000
    8.2132   48.9504  129.8474 C   0  0  0  0  0  0  0  0  0  0  0  0
    7.7127   48.3098  128.7195 C   0  0  0  0  0  0  0  0  0  0  0  0
    7.9431   46.9713  128.4689 C   0  0  0  0  0  0  0  0  0  0  0  0
    8.6869   46.2144  129.3391 C   0  0  0  0  0  0  0  0  0  0  0  0
    9.1803   46.8573  130.4555 C   0  0  0  0  0  0  0  0  0  0  0  0
    8.9628   48.1894  130.7252 C   0  0  0  0  0  0  0  0  0  0  0  0
    9.4919   48.8715  131.9025 C   0  0  0  0  0  0  0  0  0  0  0  0
    9.2553   50.2162  132.0800 C   0  0  0  0  0  0  0  0  0  0  0  0
    9.7684   50.8474  133.1865 C   0  0  0  0  0  0  0  0  0  0  0  0
    9.4578   52.5477  133.3928 Cl  0  0  0  0  0  0  0  0  0  0  0  0
   10.5168   50.1935  134.1381 C   0  0  0  0  0  0  0  0  0  0  0  0
   10.7636   48.8465  133.9762 C   0  0  0  0  0  0  0  0  0  0  0  0
   10.2451   48.2027  132.8560 C   0  0  0  0  0  0  0  0  0  0  0  0
   10.5724   46.4861  132.6898 Cl  0  0  0  0  0  0  0  0  0  0  0  0
    8.9697   44.7884  129.1382 C   0  0  0  0  0  0  0  0  0  0  0  0
    9.7669   44.4536  128.2390 O   0  0  0  0  0  0  0  0  0  0  0  0
    8.3689   43.7889  129.9287 N   0  0  0  0  0  0  0  0  0  0  0  0
    7.6826   44.0125  130.7084 H   0  0  0  0  0  0  0  0  0  0  0  0
    8.6657   42.4457  129.7052 N   0  0  0  0  0  0  0  0  0  0  0  0
    8.1762   41.8977  128.9632 H   0  0  0  0  0  0  0  0  0  0  0  0
    9.6442   41.7639  130.4734 C   0  0  0  0  0  0  0  0  0  0  0  0
    9.9152   40.4280  130.2730 C   0  0  0  0  0  0  0  0  0  0  0  0
   10.8699   39.7664  131.0240 C   0  0  0  0  0  0  0  0  0  0  0  0
   11.5795   40.4416  132.0027 C   0  0  0  0  0  0  0  0  0  0  0  0
   11.3220   41.7858  132.2205 C   0  0  0  0  0  0  0  0  0  0  0  0
   10.3701   42.4272  131.4651 C   0  0  0  0  0  0  0  0  0  0  0  0
    7.9592   50.3092  130.0709 O   0  0  0  0  0  0  0  0  0  0  0  0
    5.4459   50.4315  130.2607 C   0  0  0  0  0  0  0  0  0  0  0  0
    6.7522   50.8626  129.6656 C   0  0  0  0  0  0  0  0  0  0  0  0
    6.8066   51.7471  128.7715 O   0  0  0  0  0  0  0  0  0  0  0  0
 28 29  1  0  0  0
 29 30  2  0  0  0
 29 27  1  0  0  0
 27  1  1  0  0  0
  1  2  2  0  0  0
  2  3  1  0  0  0
  3  4  2  0  0  0
  4  5  1  0  0  0
  5  6  2  0  0  0
  6  7  1  0  0  0
  7  8  2  0  0  0
  8  9  1  0  0  0
  9 10  1  0  0  0
  9 11  2  0  0  0
 11 12  1  0  0  0
 12 13  2  0  0  0
 13 14  1  0  0  0
  4 15  1  0  0  0
 15 16  2  0  0  0
 15 17  1  0  0  0
 17 19  1  0  0  0
 19 21  1  0  0  0
 21 22  2  0  0  0
 22 23  1  0  0  0
 23 24  2  0  0  0
 24 25  1  0  0  0
 25 26  2  0  0  0
  6  1  1  0  0  0
 13  7  1  0  0  0
 26 21  1  0  0  0
 17 18  1  0  0  0
 19 20  1  0  0  0
M  END
> <minimizedAffinity>
9.91172

> <CNNscore>
0.4855892956

> <CNNaffinity>
7.2799582481

> <CNN_VS>
3.5350697041

> <CNNaffinity_variance>
2.1841952801

$$$$
[H]c1c([H])c([H])c(N([H])N([H])C(=O)c2c([H])c([H])c(OC(=O)C([H])([H])[H])c(-c3c([H])c(Cl)c([H])c([H])c3Cl)c2[H])c([H])c1[H]


 30 32  0  0  0  0  0  0  0  0999 V2000
   10.8313   44.5185  128.8750 C   0  0  0  0  0  0  0  0  0  0  0  0
   10.2876   45.2243  127.8075 C   0  0  0  0  0  0  0  0  0  0  0  0
    9.1866   46.0455  127.9512 C   0  0  0  0  0  0  0  0  0  0  0  0
    8.5804   46.1957  129.1732 C   0  0  0  0  0  0  0  0  0  0  0  0
    9.1254   45.4919  130.2272 C   0  0  0  0  0  0  0  0  0  0  0  0
   10.2218   44.6686  130.1069 C   0  0  0  0  0  0  0  0  0  0  0  0
   10.7933   43.9175  131.2206 C   0  0  0  0  0  0  0  0  0  0  0  0
   10.6987   42.5441  131.2417 C   0  0  0  0  0  0  0  0  0  0  0  0
   11.2311   41.8510  132.3011 C   0  0  0  0  0  0  0  0  0  0  0  0
   11.1013   40.1151  132.3087 Cl  0  0  0  0  0  0  0  0  0  0  0  0
   11.8622   42.4699  133.3555 C   0  0  0  0  0  0  0  0  0  0  0  0
   11.9659   43.8449  133.3508 C   0  0  0  0  0  0  0  0  0  0  0  0
   11.4277   44.5513  132.2787 C   0  0  0  0  0  0  0  0  0  0  0  0
   11.5880   46.2993  132.3038 Cl  0  0  0  0  0  0  0  0  0  0  0  0
    7.4102   47.0520  129.3998 C   0  0  0  0  0  0  0  0  0  0  0  0
    7.1438   47.4115  130.5643 O   0  0  0  0  0  0  0  0  0  0  0  0
    6.5808   47.4786  128.3439 N   0  0  0  0  0  0  0  0  0  0  0  0
    6.7569   47.2050  127.3324 H   0  0  0  0  0  0  0  0  0  0  0  0
    5.4793   48.2923  128.6027 N   0  0  0  0  0  0  0  0  0  0  0  0
    4.5237   48.0345  128.2696 H   0  0  0  0  0  0  0  0  0  0  0  0
    5.6060   49.5043  129.3289 C   0  0  0  0  0  0  0  0  0  0  0  0
    4.6254   49.9291  130.1985 C   0  0  0  0  0  0  0  0  0  0  0  0
    4.7523   51.1115  130.9049 C   0  0  0  0  0  0  0  0  0  0  0  0
    5.8800   51.8999  130.7498 C   0  0  0  0  0  0  0  0  0  0  0  0
    6.8781   51.4908  129.8797 C   0  0  0  0  0  0  0  0  0  0  0  0
    6.7354   50.3133  129.1860 C   0  0  0  0  0  0  0  0  0  0  0  0
   11.9495   43.6954  128.6937 O   0  0  0  0  0  0  0  0  0  0  0  0
   14.0932   45.0255  128.6396 C   0  0  0  0  0  0  0  0  0  0  0  0
   13.1621   44.0384  129.2761 C   0  0  0  0  0  0  0  0  0  0  0  0
   13.4441   43.4793  130.3682 O   0  0  0  0  0  0  0  0  0  0  0  0
 28 29  1  0  0  0
 29 30  2  0  0  0
 29 27  1  0  0  0
 27  1  1  0  0  0
  1  2  2  0  0  0
  2  3  1  0  0  0
  3  4  2  0  0  0
  4  5  1  0  0  0
  5  6  2  0  0  0
  6  7  1  0  0  0
  7  8  2  0  0  0
  8  9  1  0  0  0
  9 10  1  0  0  0
  9 11  2  0  0  0
 11 12  1  0  0  0
 12 13  2  0  0  0
 13 14  1  0  0  0
  4 15  1  0  0  0
 15 16  2  0  0  0
 15 17  1  0  0  0
 17 19  1  0  0  0
 19 21  1  0  0  0
 21 22  2  0  0  0
 22 23  1  0  0  0
 23 24  2  0  0  0
 24 25  1  0  0  0
 25 26  2  0  0  0
  6  1  1  0  0  0
 13  7  1  0  0  0
 26 21  1  0  0  0
 17 18  1  0  0  0
 19 20  1  0  0  0
M  END
> <minimizedAffinity>
9.40393

> <CNNscore>
0.4730686843

> <CNNaffinity>
7.1345338821

> <CNN_VS>
3.3751244545

> <CNNaffinity_variance>
1.4372955561

$$$$
[H]c1c([H])c([H])c(N([H])N([H])C(=O)c2c([H])c([H])c(OC(=O)C([H])([H])[H])c(-c3c([H])c(Cl)c([H])c([H])c3Cl)c2[H])c([H])c1[H]


 30 32  0  0  0  0  0  0  0  0999 V2000
    9.4492   47.8919  131.7372 C   0  0  0  0  0  0  0  0  0  0  0  0
    9.4605   49.2701  131.9207 C   0  0  0  0  0  0  0  0  0  0  0  0
    8.6600   50.1187  131.1815 C   0  0  0  0  0  0  0  0  0  0  0  0
    7.8115   49.6228  130.2237 C   0  0  0  0  0  0  0  0  0  0  0  0
    7.8064   48.2546  130.0473 C   0  0  0  0  0  0  0  0  0  0  0  0
    8.5949   47.3905  130.7726 C   0  0  0  0  0  0  0  0  0  0  0  0
    8.5954   45.9434  130.5800 C   0  0  0  0  0  0  0  0  0  0  0  0
    9.0642   45.4088  129.4010 C   0  0  0  0  0  0  0  0  0  0  0  0
    9.0485   44.0463  129.2291 C   0  0  0  0  0  0  0  0  0  0  0  0
    9.6459   43.3902  127.7314 Cl  0  0  0  0  0  0  0  0  0  0  0  0
    8.5813   43.1788  130.1894 C   0  0  0  0  0  0  0  0  0  0  0  0
    8.1079   43.6970  131.3764 C   0  0  0  0  0  0  0  0  0  0  0  0
    8.1222   45.0777  131.5548 C   0  0  0  0  0  0  0  0  0  0  0  0
    7.5206   45.6987  133.0826 Cl  0  0  0  0  0  0  0  0  0  0  0  0
    6.9319   50.4639  129.4034 C   0  0  0  0  0  0  0  0  0  0  0  0
    5.7634   50.0833  129.1893 O   0  0  0  0  0  0  0  0  0  0  0  0
    7.3672   51.6850  128.8519 N   0  0  0  0  0  0  0  0  0  0  0  0
    8.3501   52.0607  128.9994 H   0  0  0  0  0  0  0  0  0  0  0  0
    6.4991   52.4540  128.0791 N   0  0  0  0  0  0  0  0  0  0  0  0
    5.4794   52.5069  128.2982 H   0  0  0  0  0  0  0  0  0  0  0  0
    6.9602   53.1981  126.9628 C   0  0  0  0  0  0  0  0  0  0  0  0
    6.0969   53.9350  126.1818 C   0  0  0  0  0  0  0  0  0  0  0  0
    6.5501   54.6593  125.0940 C   0  0  0  0  0  0  0  0  0  0  0  0
    7.8952   54.6576  124.7654 C   0  0  0  0  0  0  0  0  0  0  0  0
    8.7804   53.9226  125.5380 C   0  0  0  0  0  0  0  0  0  0  0  0
    8.3128   53.2088  126.6151 C   0  0  0  0  0  0  0  0  0  0  0  0
   10.2735   47.0606  132.5054 O   0  0  0  0  0  0  0  0  0  0  0  0
   12.0190   45.2387  132.5478 C   0  0  0  0  0  0  0  0  0  0  0  0
   11.3576   46.4255  131.9149 C   0  0  0  0  0  0  0  0  0  0  0  0
   11.7606   46.8949  130.8185 O   0  0  0  0  0  0  0  0  0  0  0  0
 28 29  1  0  0  0
 29 30  2  0  0  0
 29 27  1  0  0  0
 27  1  1  0  0  0
  1  2  2  0  0  0
  2  3  1  0  0  0
  3  4  2  0  0  0
  4  5  1  0  0  0
  5  6  2  0  0  0
  6  7  1  0  0  0
  7  8  2  0  0  0
  8  9  1  0  0  0
  9 10  1  0  0  0
  9 11  2  0  0  0
 11 12  1  0  0  0
 12 13  2  0  0  0
 13 14  1  0  0  0
  4 15  1  0  0  0
 15 16  2  0  0  0
 15 17  1  0  0  0
 17 19  1  0  0  0
 19 21  1  0  0  0
 21 22  2  0  0  0
 22 23  1  0  0  0
 23 24  2  0  0  0
 24 25  1  0  0  0
 25 26  2  0  0  0
  6  1  1  0  0  0
 13  7  1  0  0  0
 26 21  1  0  0  0
 17 18  1  0  0  0
 19 20  1  0  0  0
M  END
> <minimizedAffinity>
-1.45823

> <CNNscore>
0.4672175646

> <CNNaffinity>
6.9388327599

> <CNN_VS>
3.2419445515

> <CNNaffinity_variance>
0.4534506202

$$$$
[H]c1c([H])c([H])c(N([H])N([H])C(=O)c2c([H])c([H])c(OC(=O)C([H])([H])[H])c(-c3c([H])c(Cl)c([H])c([H])c3Cl)c2[H])c([H])c1[H]


 30 32  0  0  0  0  0  0  0  0999 V2000
    9.9660   43.2899  130.1233 C   0  0  0  0  0  0  0  0  0  0  0  0
   10.1444   44.0292  128.9593 C   0  0  0  0  0  0  0  0  0  0  0  0
    9.8786   45.3831  128.8982 C   0  0  0  0  0  0  0  0  0  0  0  0
    9.4211   46.0570  130.0026 C   0  0  0  0  0  0  0  0  0  0  0  0
    9.2463   45.3165  131.1534 C   0  0  0  0  0  0  0  0  0  0  0  0
    9.5051   43.9672  131.2370 C   0  0  0  0  0  0  0  0  0  0  0  0
    9.3122   43.1822  132.4526 C   0  0  0  0  0  0  0  0  0  0  0  0
    8.0903   42.6005  132.7064 C   0  0  0  0  0  0  0  0  0  0  0  0
    7.9196   41.8739  133.8593 C   0  0  0  0  0  0  0  0  0  0  0  0
    6.3673   41.1463  134.1616 Cl  0  0  0  0  0  0  0  0  0  0  0  0
    8.9225   41.6966  134.7844 C   0  0  0  0  0  0  0  0  0  0  0  0
   10.1528   42.2722  134.5462 C   0  0  0  0  0  0  0  0  0  0  0  0
   10.3301   43.0095  133.3787 C   0  0  0  0  0  0  0  0  0  0  0  0
   11.9127   43.7185  133.1062 Cl  0  0  0  0  0  0  0  0  0  0  0  0
    9.1205   47.4935  130.0110 C   0  0  0  0  0  0  0  0  0  0  0  0
    9.2257   48.1242  131.0821 O   0  0  0  0  0  0  0  0  0  0  0  0
    8.7176   48.1794  128.8483 N   0  0  0  0  0  0  0  0  0  0  0  0
    8.6102   47.6963  127.9080 H   0  0  0  0  0  0  0  0  0  0  0  0
    8.4424   49.5446  128.8997 N   0  0  0  0  0  0  0  0  0  0  0  0
    9.1291   50.2503  128.5518 H   0  0  0  0  0  0  0  0  0  0  0  0
    7.2200   50.0363  129.4255 C   0  0  0  0  0  0  0  0  0  0  0  0
    7.1425   51.2685  130.0371 C   0  0  0  0  0  0  0  0  0  0  0  0
    5.9489   51.7446  130.5487 C   0  0  0  0  0  0  0  0  0  0  0  0
    4.7960   50.9835  130.4549 C   0  0  0  0  0  0  0  0  0  0  0  0
    4.8524   49.7410  129.8436 C   0  0  0  0  0  0  0  0  0  0  0  0
    6.0467   49.2836  129.3409 C   0  0  0  0  0  0  0  0  0  0  0  0
   10.2465   41.9183  130.1502 O   0  0  0  0  0  0  0  0  0  0  0  0
   10.0273   39.6519  129.0624 C   0  0  0  0  0  0  0  0  0  0  0  0
   10.0490   41.1497  129.0111 C   0  0  0  0  0  0  0  0  0  0  0  0
    9.8881   41.7723  127.9288 O   0  0  0  0  0  0  0  0  0  0  0  0
 28 29  1  0  0  0
 29 30  2  0  0  0
 29 27  1  0  0  0
 27  1  1  0  0  0
  1  2  2  0  0  0
  2  3  1  0  0  0
  3  4  2  0  0  0
  4  5  1  0  0  0
  5  6  2  0  0  0
  6  7  1  0  0  0
  7  8  2  0  0  0
  8  9  1  0  0  0
  9 10  1  0  0  0
  9 11  2  0  0  0
 11 12  1  0  0  0
 12 13  2  0  0  0
 13 14  1  0  0  0
  4 15  1  0  0  0
 15 16  2  0  0  0
 15 17  1  0  0  0
 17 19  1  0  0  0
 19 21  1  0  0  0
 21 22  2  0  0  0
 22 23  1  0  0  0
 23 24  2  0  0  0
 24 25  1  0  0  0
 25 26  2  0  0  0
  6  1  1  0  0  0
 13  7  1  0  0  0
 26 21  1  0  0  0
 17 18  1  0  0  0
 19 20  1  0  0  0
M  END
> <minimizedAffinity>
14.65961

> <CNNscore>
0.4610834718

> <CNNaffinity>
7.5296707153

> <CNN_VS>
3.4718067646

> <CNNaffinity_variance>
3.4587988853

$$$$
[H]c1nc(Oc2c([H])c([H])c([H])c(N3C([H])([H])C([H])([H])OC([H])([H])C3([H])[H])c2[H])c(S(=O)(=O)N2C([H])([H])C([H])([H])N(c3c([H])c([H])c4c(-c5c([H])c([H])c(C#N)c([H])c5[H])c([H])c([H])c([H])c4c3[H])C([H])([H])C2([H])[H])c([H])c1[H]


 46 52  0  0  0  0  0  0  0  0999 V2000
    7.3258   52.3548  128.2341 N   0  0  0  0  0  0  0  0  0  0  0  0
    6.0234   52.9851  128.4840 C   0  0  0  0  0  0  0  0  0  0  0  0
    5.9164   54.2846  127.7036 C   0  0  0  0  0  0  0  0  0  0  0  0
    6.2233   54.1271  126.3247 N   0  0  0  0  0  0  0  0  0  0  0  0
    7.2740   53.1989  126.0355 C   0  0  0  0  0  0  0  0  0  0  0  0
    8.1363   53.0556  127.2779 C   0  0  0  0  0  0  0  0  0  0  0  0
    8.6618   47.5663  130.7733 C   0  0  0  0  0  0  0  0  0  0  0  0
    8.7614   47.6147  132.1737 C   0  0  0  0  0  0  0  0  0  0  0  0
    8.5544   48.7661  132.8924 C   0  0  0  0  0  0  0  0  0  0  0  0
    8.2377   49.9263  132.2484 C   0  0  0  0  0  0  0  0  0  0  0  0
    8.1302   49.9192  130.8790 C   0  0  0  0  0  0  0  0  0  0  0  0
    7.7957   51.1207  130.2757 C   0  0  0  0  0  0  0  0  0  0  0  0
    7.6615   51.1780  128.9122 C   0  0  0  0  0  0  0  0  0  0  0  0
    7.8695   50.0101  128.1830 C   0  0  0  0  0  0  0  0  0  0  0  0
    8.2031   48.8062  128.7712 C   0  0  0  0  0  0  0  0  0  0  0  0
    8.3409   48.7434  130.1417 C   0  0  0  0  0  0  0  0  0  0  0  0
    9.4876   43.9682  128.7270 C   0  0  0  0  0  0  0  0  0  0  0  0
   10.3248   45.0559  128.5743 C   0  0  0  0  0  0  0  0  0  0  0  0
   10.0275   46.2184  129.2571 C   0  0  0  0  0  0  0  0  0  0  0  0
    8.9358   46.3321  130.0780 C   0  0  0  0  0  0  0  0  0  0  0  0
    8.1090   45.2469  130.2244 C   0  0  0  0  0  0  0  0  0  0  0  0
    8.3746   44.0740  129.5598 C   0  0  0  0  0  0  0  0  0  0  0  0
    9.9697   41.7376  127.5008 N   0  0  0  0  0  0  0  0  0  0  0  0
    9.7448   42.7318  128.0432 C   0  0  0  0  0  0  0  0  0  0  0  0
    6.5272   55.6558  125.5178 S   0  0  0  0  0  0  0  0  0  0  0  0
    7.4141   56.5059  126.3566 O   0  0  0  0  0  0  0  0  0  0  0  0
    7.2579   55.3516  124.2236 O   0  0  0  0  0  0  0  0  0  0  0  0
    5.0224   56.4184  125.1234 C   0  0  0  0  0  0  0  0  0  0  0  0
    5.0958   57.7502  124.6866 C   0  0  0  0  0  0  0  0  0  0  0  0
    3.9237   58.4057  124.4080 C   0  0  0  0  0  0  0  0  0  0  0  0
    2.7186   57.7519  124.5619 C   0  0  0  0  0  0  0  0  0  0  0  0
    2.6939   56.4843  124.9808 N   0  0  0  0  0  0  0  0  0  0  0  0
    3.8399   55.7680  125.2775 C   0  0  0  0  0  0  0  0  0  0  0  0
    3.6990   54.4681  125.6997 O   0  0  0  0  0  0  0  0  0  0  0  0
    2.5628   53.9989  126.2839 C   0  0  0  0  0  0  0  0  0  0  0  0
    2.1006   52.7150  126.3176 C   0  0  0  0  0  0  0  0  0  0  0  0
    0.9546   52.3096  126.9213 C   0  0  0  0  0  0  0  0  0  0  0  0
    0.1640   53.2677  127.5693 C   0  0  0  0  0  0  0  0  0  0  0  0
    0.5685   54.5783  127.5743 C   0  0  0  0  0  0  0  0  0  0  0  0
    1.7479   54.9357  126.9417 C   0  0  0  0  0  0  0  0  0  0  0  0
   -0.1645   55.6096  128.1892 N   0  0  0  0  0  0  0  0  0  0  0  0
   -1.4312   55.3361  128.8204 C   0  0  0  0  0  0  0  0  0  0  0  0
   -1.2800   55.8540  130.2605 C   0  0  0  0  0  0  0  0  0  0  0  0
   -1.2058   57.2442  130.1239 O   0  0  0  0  0  0  0  0  0  0  0  0
   -0.0586   57.6894  129.5198 C   0  0  0  0  0  0  0  0  0  0  0  0
    0.3052   56.9834  128.2391 C   0  0  0  0  0  0  0  0  0  0  0  0
 23 24  3  0  0  0
 24 17  1  0  0  0
 17 18  2  0  0  0
 18 19  1  0  0  0
 19 20  2  0  0  0
 20 21  1  0  0  0
 21 22  2  0  0  0
 20  7  1  0  0  0
  7  8  2  0  0  0
  8  9  1  0  0  0
  9 10  2  0  0  0
 10 11  1  0  0  0
 11 12  2  0  0  0
 12 13  1  0  0  0
 13 14  2  0  0  0
 14 15  1  0  0  0
 15 16  2  0  0  0
 13  1  1  0  0  0
  1  2  1  0  0  0
  2  3  1  0  0  0
  3  4  1  0  0  0
  4  5  1  0  0  0
  5  6  1  0  0  0
  4 25  1  0  0  0
 25 26  2  0  0  0
 25 27  2  0  0  0
 25 28  1  0  0  0
 28 29  2  0  0  0
 29 30  1  0  0  0
 30 31  2  0  0  0
 31 32  1  0  0  0
 32 33  2  0  0  0
 33 34  1  0  0  0
 34 35  1  0  0  0
 35 36  2  0  0  0
 36 37  1  0  0  0
 37 38  2  0  0  0
 38 39  1  0  0  0
 39 40  2  0  0  0
 39 41  1  0  0  0
 41 42  1  0  0  0
 42 43  1  0  0  0
 43 44  1  0  0  0
 44 45  1  0  0  0
 45 46  1  0  0  0
 22 17  1  0  0  0
 16  7  1  0  0  0
  6  1  1  0  0  0
 33 28  1  0  0  0
 40 35  1  0  0  0
 46 41  1  0  0  0
 16 11  1  0  0  0
M  END
> <minimizedAffinity>
13.03496

> <CNNscore>
0.4734506011

> <CNNaffinity>
6.8431181908

> <CNN_VS>
3.2398784161

> <CNNaffinity_variance>
0.3599199951

$$$$
[H]c1nc(Oc2c([H])c([H])c([H])c(N3C([H])([H])C([H])([H])OC([H])([H])C3([H])[H])c2[H])c(S(=O)(=O)N2C([H])([H])C([H])([H])N(c3c([H])c([H])c4c(-c5c([H])c([H])c(C#N)c([H])c5[H])c([H])c([H])c([H])c4c3[H])C([H])([H])C2([H])[H])c([H])c1[H]


 46 52  0  0  0  0  0  0  0  0999 V2000
    7.2197   52.8819  127.9412 N   0  0  0  0  0  0  0  0  0  0  0  0
    5.9565   52.9874  127.2002 C   0  0  0  0  0  0  0  0  0  0  0  0
    5.8312   54.3690  126.5801 C   0  0  0  0  0  0  0  0  0  0  0  0
    6.9748   54.7392  125.8215 N   0  0  0  0  0  0  0  0  0  0  0  0
    8.2290   54.3012  126.3550 C   0  0  0  0  0  0  0  0  0  0  0  0
    8.0502   54.0492  127.8423 C   0  0  0  0  0  0  0  0  0  0  0  0
    8.3626   48.1138  130.6097 C   0  0  0  0  0  0  0  0  0  0  0  0
    8.3713   48.1763  132.0130 C   0  0  0  0  0  0  0  0  0  0  0  0
    8.1242   49.3360  132.7052 C   0  0  0  0  0  0  0  0  0  0  0  0
    7.8561   50.4909  132.0304 C   0  0  0  0  0  0  0  0  0  0  0  0
    7.8377   50.4701  130.6571 C   0  0  0  0  0  0  0  0  0  0  0  0
    7.5495   51.6668  130.0212 C   0  0  0  0  0  0  0  0  0  0  0  0
    7.5044   51.7106  128.6515 C   0  0  0  0  0  0  0  0  0  0  0  0
    7.7531   50.5343  127.9490 C   0  0  0  0  0  0  0  0  0  0  0  0
    8.0414   49.3350  128.5697 C   0  0  0  0  0  0  0  0  0  0  0  0
    8.0896   49.2858  129.9468 C   0  0  0  0  0  0  0  0  0  0  0  0
    9.3008   44.4906  128.6584 C   0  0  0  0  0  0  0  0  0  0  0  0
   10.1712   45.5602  128.5822 C   0  0  0  0  0  0  0  0  0  0  0  0
    9.8357   46.7314  129.2314 C   0  0  0  0  0  0  0  0  0  0  0  0
    8.6745   46.8712  129.9461 C   0  0  0  0  0  0  0  0  0  0  0  0
    7.8151   45.8039  130.0169 C   0  0  0  0  0  0  0  0  0  0  0  0
    8.1172   44.6229  129.3830 C   0  0  0  0  0  0  0  0  0  0  0  0
    9.8424   42.2553  127.4660 N   0  0  0  0  0  0  0  0  0  0  0  0
    9.5949   43.2462  128.0047 C   0  0  0  0  0  0  0  0  0  0  0  0
    7.0322   56.4587  125.4745 S   0  0  0  0  0  0  0  0  0  0  0  0
    8.3199   57.0308  125.9513 O   0  0  0  0  0  0  0  0  0  0  0  0
    6.9768   56.6225  123.9674 O   0  0  0  0  0  0  0  0  0  0  0  0
    5.6434   57.2394  126.1553 C   0  0  0  0  0  0  0  0  0  0  0  0
    5.8007   57.7773  127.4421 C   0  0  0  0  0  0  0  0  0  0  0  0
    4.7125   58.3635  128.0362 C   0  0  0  0  0  0  0  0  0  0  0  0
    3.5071   58.4097  127.3666 C   0  0  0  0  0  0  0  0  0  0  0  0
    3.4007   57.8851  126.1434 N   0  0  0  0  0  0  0  0  0  0  0  0
    4.4600   57.2809  125.4898 C   0  0  0  0  0  0  0  0  0  0  0  0
    4.2398   56.7749  124.2314 O   0  0  0  0  0  0  0  0  0  0  0  0
    3.8455   55.4915  124.0085 C   0  0  0  0  0  0  0  0  0  0  0  0
    4.0264   54.7371  122.8854 C   0  0  0  0  0  0  0  0  0  0  0  0
    3.6085   53.4558  122.7255 C   0  0  0  0  0  0  0  0  0  0  0  0
    2.9338   52.8344  123.7847 C   0  0  0  0  0  0  0  0  0  0  0  0
    2.7169   53.5346  124.9440 C   0  0  0  0  0  0  0  0  0  0  0  0
    3.1658   54.8407  125.0520 C   0  0  0  0  0  0  0  0  0  0  0  0
    2.0406   52.9977  126.0545 N   0  0  0  0  0  0  0  0  0  0  0  0
    1.5213   53.8596  127.0866 C   0  0  0  0  0  0  0  0  0  0  0  0
    0.0272   53.5087  127.1857 C   0  0  0  0  0  0  0  0  0  0  0  0
    0.0087   52.2139  127.7147 O   0  0  0  0  0  0  0  0  0  0  0  0
    0.4900   51.2521  126.8645 C   0  0  0  0  0  0  0  0  0  0  0  0
    1.8146   51.5723  126.2211 C   0  0  0  0  0  0  0  0  0  0  0  0
 23 24  3  0  0  0
 24 17  1  0  0  0
 17 18  2  0  0  0
 18 19  1  0  0  0
 19 20  2  0  0  0
 20 21  1  0  0  0
 21 22  2  0  0  0
 20  7  1  0  0  0
  7  8  2  0  0  0
  8  9  1  0  0  0
  9 10  2  0  0  0
 10 11  1  0  0  0
 11 12  2  0  0  0
 12 13  1  0  0  0
 13 14  2  0  0  0
 14 15  1  0  0  0
 15 16  2  0  0  0
 13  1  1  0  0  0
  1  2  1  0  0  0
  2  3  1  0  0  0
  3  4  1  0  0  0
  4  5  1  0  0  0
  5  6  1  0  0  0
  4 25  1  0  0  0
 25 26  2  0  0  0
 25 27  2  0  0  0
 25 28  1  0  0  0
 28 29  2  0  0  0
 29 30  1  0  0  0
 30 31  2  0  0  0
 31 32  1  0  0  0
 32 33  2  0  0  0
 33 34  1  0  0  0
 34 35  1  0  0  0
 35 36  2  0  0  0
 36 37  1  0  0  0
 37 38  2  0  0  0
 38 39  1  0  0  0
 39 40  2  0  0  0
 39 41  1  0  0  0
 41 42  1  0  0  0
 42 43  1  0  0  0
 43 44  1  0  0  0
 44 45  1  0  0  0
 45 46  1  0  0  0
 22 17  1  0  0  0
 16  7  1  0  0  0
  6  1  1  0  0  0
 33 28  1  0  0  0
 40 35  1  0  0  0
 46 41  1  0  0  0
 16 11  1  0  0  0
M  END
> <minimizedAffinity>
8.47912

> <CNNscore>
0.4634449780

> <CNNaffinity>
7.0251464844

> <CNN_VS>
3.2557687759

> <CNNaffinity_variance>
0.1230993718

$$$$
[H]c1nc(Oc2c([H])c([H])c([H])c(N3C([H])([H])C([H])([H])OC([H])([H])C3([H])[H])c2[H])c(S(=O)(=O)N2C([H])([H])C([H])([H])N(c3c([H])c([H])c4c(-c5c([H])c([H])c(C#N)c([H])c5[H])c([H])c([H])c([H])c4c3[H])C([H])([H])C2([H])[H])c([H])c1[H]


 46 52  0  0  0  0  0  0  0  0999 V2000
    7.5187   51.9622  128.2014 N   0  0  0  0  0  0  0  0  0  0  0  0
    7.7358   51.7116  126.7710 C   0  0  0  0  0  0  0  0  0  0  0  0
    7.2510   52.8988  125.9557 C   0  0  0  0  0  0  0  0  0  0  0  0
    7.7852   54.1351  126.4098 N   0  0  0  0  0  0  0  0  0  0  0  0
    7.9358   54.2505  127.8287 C   0  0  0  0  0  0  0  0  0  0  0  0
    6.9868   53.2649  128.4886 C   0  0  0  0  0  0  0  0  0  0  0  0
    8.6968   47.8461  131.7836 C   0  0  0  0  0  0  0  0  0  0  0  0
    9.2143   48.2385  133.0292 C   0  0  0  0  0  0  0  0  0  0  0  0
    9.4329   49.5529  133.3607 C   0  0  0  0  0  0  0  0  0  0  0  0
    9.1455   50.5407  132.4647 C   0  0  0  0  0  0  0  0  0  0  0  0
    8.6368   50.1970  131.2360 C   0  0  0  0  0  0  0  0  0  0  0  0
    8.3519   51.2386  130.3679 C   0  0  0  0  0  0  0  0  0  0  0  0
    7.8312   50.9632  129.1297 C   0  0  0  0  0  0  0  0  0  0  0  0
    7.6075   49.6304  128.7937 C   0  0  0  0  0  0  0  0  0  0  0  0
    7.8867   48.5828  129.6488 C   0  0  0  0  0  0  0  0  0  0  0  0
    8.4120   48.8541  130.8945 C   0  0  0  0  0  0  0  0  0  0  0  0
    8.2173   43.7508  130.8816 C   0  0  0  0  0  0  0  0  0  0  0  0
    8.2044   44.6866  129.8660 C   0  0  0  0  0  0  0  0  0  0  0  0
    8.3638   46.0182  130.1936 C   0  0  0  0  0  0  0  0  0  0  0  0
    8.5337   46.4440  131.4853 C   0  0  0  0  0  0  0  0  0  0  0  0
    8.5453   45.5081  132.4885 C   0  0  0  0  0  0  0  0  0  0  0  0
    8.3895   44.1740  132.1987 C   0  0  0  0  0  0  0  0  0  0  0  0
    7.9262   41.2222  130.3988 N   0  0  0  0  0  0  0  0  0  0  0  0
    8.0569   42.3511  130.6034 C   0  0  0  0  0  0  0  0  0  0  0  0
    6.9160   55.5232  125.7788 S   0  0  0  0  0  0  0  0  0  0  0  0
    5.9723   56.0416  126.8052 O   0  0  0  0  0  0  0  0  0  0  0  0
    7.9362   56.6084  125.4905 O   0  0  0  0  0  0  0  0  0  0  0  0
    6.1404   55.0997  124.2885 C   0  0  0  0  0  0  0  0  0  0  0  0
    6.6649   53.9897  123.6081 C   0  0  0  0  0  0  0  0  0  0  0  0
    6.1094   53.6484  122.4015 C   0  0  0  0  0  0  0  0  0  0  0  0
    5.0653   54.3923  121.8918 C   0  0  0  0  0  0  0  0  0  0  0  0
    4.5969   55.4416  122.5718 N   0  0  0  0  0  0  0  0  0  0  0  0
    5.1129   55.8371  123.7932 C   0  0  0  0  0  0  0  0  0  0  0  0
    4.5540   56.9317  124.4075 O   0  0  0  0  0  0  0  0  0  0  0  0
    3.6753   56.8313  125.4419 C   0  0  0  0  0  0  0  0  0  0  0  0
    3.3981   57.7576  126.4054 C   0  0  0  0  0  0  0  0  0  0  0  0
    2.5052   57.5964  127.4147 C   0  0  0  0  0  0  0  0  0  0  0  0
    1.7976   56.3898  127.4964 C   0  0  0  0  0  0  0  0  0  0  0  0
    2.0269   55.4136  126.5606 C   0  0  0  0  0  0  0  0  0  0  0  0
    2.9504   55.6326  125.5515 C   0  0  0  0  0  0  0  0  0  0  0  0
    1.3725   54.1684  126.5685 N   0  0  0  0  0  0  0  0  0  0  0  0
    1.8029   53.1059  125.6946 C   0  0  0  0  0  0  0  0  0  0  0  0
    2.0836   51.9132  126.6241 C   0  0  0  0  0  0  0  0  0  0  0  0
    0.8225   51.5388  127.0995 O   0  0  0  0  0  0  0  0  0  0  0  0
    0.2461   52.4519  127.9441 C   0  0  0  0  0  0  0  0  0  0  0  0
    0.2550   53.8753  127.4492 C   0  0  0  0  0  0  0  0  0  0  0  0
 23 24  3  0  0  0
 24 17  1  0  0  0
 17 18  2  0  0  0
 18 19  1  0  0  0
 19 20  2  0  0  0
 20 21  1  0  0  0
 21 22  2  0  0  0
 20  7  1  0  0  0
  7  8  2  0  0  0
  8  9  1  0  0  0
  9 10  2  0  0  0
 10 11  1  0  0  0
 11 12  2  0  0  0
 12 13  1  0  0  0
 13 14  2  0  0  0
 14 15  1  0  0  0
 15 16  2  0  0  0
 13  1  1  0  0  0
  1  2  1  0  0  0
  2  3  1  0  0  0
  3  4  1  0  0  0
  4  5  1  0  0  0
  5  6  1  0  0  0
  4 25  1  0  0  0
 25 26  2  0  0  0
 25 27  2  0  0  0
 25 28  1  0  0  0
 28 29  2  0  0  0
 29 30  1  0  0  0
 30 31  2  0  0  0
 31 32  1  0  0  0
 32 33  2  0  0  0
 33 34  1  0  0  0
 34 35  1  0  0  0
 35 36  2  0  0  0
 36 37  1  0  0  0
 37 38  2  0  0  0
 38 39  1  0  0  0
 39 40  2  0  0  0
 39 41  1  0  0  0
 41 42  1  0  0  0
 42 43  1  0  0  0
 43 44  1  0  0  0
 44 45  1  0  0  0
 45 46  1  0  0  0
 22 17  1  0  0  0
 16  7  1  0  0  0
  6  1  1  0  0  0
 33 28  1  0  0  0
 40 35  1  0  0  0
 46 41  1  0  0  0
 16 11  1  0  0  0
M  END
> <minimizedAffinity>
9.75081

> <CNNscore>
0.4547103941

> <CNNaffinity>
7.1274437904

> <CNN_VS>
3.2409226894

> <CNNaffinity_variance>
0.3954843879

$$$$
[H]c1nc(Oc2c([H])c([H])c([H])c(N3C([H])([H])C([H])([H])OC([H])([H])C3([H])[H])c2[H])c(S(=O)(=O)N2C([H])([H])C([H])([H])N(c3c([H])c([H])c4c(-c5c([H])c([H])c(C#N)c([H])c5[H])c([H])c([H])c([H])c4c3[H])C([H])([H])C2([H])[H])c([H])c1[H]


 46 52  0  0  0  0  0  0  0  0999 V2000
    7.3367   52.0806  128.0903 N   0  0  0  0  0  0  0  0  0  0  0  0
    7.6800   51.9163  126.6722 C   0  0  0  0  0  0  0  0  0  0  0  0
    7.1013   53.0634  125.8607 C   0  0  0  0  0  0  0  0  0  0  0  0
    7.4390   54.3388  126.3894 N   0  0  0  0  0  0  0  0  0  0  0  0
    7.4776   54.4163  127.8183 C   0  0  0  0  0  0  0  0  0  0  0  0
    6.6223   53.2927  128.3782 C   0  0  0  0  0  0  0  0  0  0  0  0
    8.7654   48.0107  131.6338 C   0  0  0  0  0  0  0  0  0  0  0  0
    9.3400   48.4206  132.8484 C   0  0  0  0  0  0  0  0  0  0  0  0
    9.5538   49.7407  133.1594 C   0  0  0  0  0  0  0  0  0  0  0  0
    9.2043   50.7171  132.2731 C   0  0  0  0  0  0  0  0  0  0  0  0
    8.6387   50.3562  131.0745 C   0  0  0  0  0  0  0  0  0  0  0  0
    8.2924   51.3866  130.2155 C   0  0  0  0  0  0  0  0  0  0  0  0
    7.7130   51.0937  129.0077 C   0  0  0  0  0  0  0  0  0  0  0  0
    7.4942   49.7550  128.6925 C   0  0  0  0  0  0  0  0  0  0  0  0
    7.8343   48.7184  129.5390 C   0  0  0  0  0  0  0  0  0  0  0  0
    8.4187   49.0074  130.7540 C   0  0  0  0  0  0  0  0  0  0  0  0
    8.3068   43.8901  130.8430 C   0  0  0  0  0  0  0  0  0  0  0  0
    8.1984   44.3600  132.1372 C   0  0  0  0  0  0  0  0  0  0  0  0
    8.3534   45.7131  132.3630 C   0  0  0  0  0  0  0  0  0  0  0  0
    8.6102   46.6039  131.3535 C   0  0  0  0  0  0  0  0  0  0  0  0
    8.7165   46.1291  130.0706 C   0  0  0  0  0  0  0  0  0  0  0  0
    8.5678   44.7884  129.8093 C   0  0  0  0  0  0  0  0  0  0  0  0
    8.0507   41.3703  130.2984 N   0  0  0  0  0  0  0  0  0  0  0  0
    8.1548   42.4935  130.5453 C   0  0  0  0  0  0  0  0  0  0  0  0
    6.4414   55.6288  125.7403 S   0  0  0  0  0  0  0  0  0  0  0  0
    5.7411   56.3354  126.8462 O   0  0  0  0  0  0  0  0  0  0  0  0
    7.3649   56.6222  125.0608 O   0  0  0  0  0  0  0  0  0  0  0  0
    5.3619   54.9887  124.5458 C   0  0  0  0  0  0  0  0  0  0  0  0
    5.9585   54.4024  123.4188 C   0  0  0  0  0  0  0  0  0  0  0  0
    5.1397   53.9246  122.4277 C   0  0  0  0  0  0  0  0  0  0  0  0
    3.7704   54.0302  122.5587 C   0  0  0  0  0  0  0  0  0  0  0  0
    3.2440   54.5960  123.6475 N   0  0  0  0  0  0  0  0  0  0  0  0
    4.0148   55.0965  124.6819 C   0  0  0  0  0  0  0  0  0  0  0  0
    3.3687   55.6574  125.7571 O   0  0  0  0  0  0  0  0  0  0  0  0
    2.3356   55.0476  126.3999 C   0  0  0  0  0  0  0  0  0  0  0  0
    1.9357   53.7458  126.3071 C   0  0  0  0  0  0  0  0  0  0  0  0
    0.8926   53.1959  126.9790 C   0  0  0  0  0  0  0  0  0  0  0  0
    0.1499   54.0098  127.8445 C   0  0  0  0  0  0  0  0  0  0  0  0
    0.4963   55.3294  127.9860 C   0  0  0  0  0  0  0  0  0  0  0  0
    1.5709   55.8376  127.2749 C   0  0  0  0  0  0  0  0  0  0  0  0
   -0.1965   56.2235  128.8224 N   0  0  0  0  0  0  0  0  0  0  0  0
    0.2043   57.6050  128.9145 C   0  0  0  0  0  0  0  0  0  0  0  0
   -1.0594   58.4113  128.5708 C   0  0  0  0  0  0  0  0  0  0  0  0
   -1.9209   58.1837  129.6491 O   0  0  0  0  0  0  0  0  0  0  0  0
   -2.3936   56.8994  129.7298 C   0  0  0  0  0  0  0  0  0  0  0  0
   -1.3443   55.8235  129.6182 C   0  0  0  0  0  0  0  0  0  0  0  0
 23 24  3  0  0  0
 24 17  1  0  0  0
 17 18  2  0  0  0
 18 19  1  0  0  0
 19 20  2  0  0  0
 20 21  1  0  0  0
 21 22  2  0  0  0
 20  7  1  0  0  0
  7  8  2  0  0  0
  8  9  1  0  0  0
  9 10  2  0  0  0
 10 11  1  0  0  0
 11 12  2  0  0  0
 12 13  1  0  0  0
 13 14  2  0  0  0
 14 15  1  0  0  0
 15 16  2  0  0  0
 13  1  1  0  0  0
  1  2  1  0  0  0
  2  3  1  0  0  0
  3  4  1  0  0  0
  4  5  1  0  0  0
  5  6  1  0  0  0
  4 25  1  0  0  0
 25 26  2  0  0  0
 25 27  2  0  0  0
 25 28  1  0  0  0
 28 29  2  0  0  0
 29 30  1  0  0  0
 30 31  2  0  0  0
 31 32  1  0  0  0
 32 33  2  0  0  0
 33 34  1  0  0  0
 34 35  1  0  0  0
 35 36  2  0  0  0
 36 37  1  0  0  0
 37 38  2  0  0  0
 38 39  1  0  0  0
 39 40  2  0  0  0
 39 41  1  0  0  0
 41 42  1  0  0  0
 42 43  1  0  0  0
 43 44  1  0  0  0
 44 45  1  0  0  0
 45 46  1  0  0  0
 22 17  1  0  0  0
 16  7  1  0  0  0
  6  1  1  0  0  0
 33 28  1  0  0  0
 40 35  1  0  0  0
 46 41  1  0  0  0
 16 11  1  0  0  0
M  END
> <minimizedAffinity>
6.93757

> <CNNscore>
0.4498640299

> <CNNaffinity>
7.0115690231

> <CNN_VS>
3.1542527676

> <CNNaffinity_variance>
0.1561231911

$$$$
[H]c1nc(Oc2c([H])c([H])c([H])c(N3C([H])([H])C([H])([H])OC([H])([H])C3([H])[H])c2[H])c(S(=O)(=O)N2C([H])([H])C([H])([H])N(c3c([H])c([H])c4c(-c5c([H])c([H])c(C#N)c([H])c5[H])c([H])c([H])c([H])c4c3[H])C([H])([H])C2([H])[H])c([H])c1[H]


 46 52  0  0  0  0  0  0  0  0999 V2000
    7.7675   49.8800  129.3146 N   0  0  0  0  0  0  0  0  0  0  0  0
    6.6892   50.5464  130.0556 C   0  0  0  0  0  0  0  0  0  0  0  0
    6.5203   51.9722  129.5580 C   0  0  0  0  0  0  0  0  0  0  0  0
    6.3805   52.0508  128.1458 N   0  0  0  0  0  0  0  0  0  0  0  0
    7.1713   51.1182  127.4014 C   0  0  0  0  0  0  0  0  0  0  0  0
    8.3387   50.6847  128.2714 C   0  0  0  0  0  0  0  0  0  0  0  0
    9.3118   44.7465  130.8718 C   0  0  0  0  0  0  0  0  0  0  0  0
    9.1235   43.7285  129.9223 C   0  0  0  0  0  0  0  0  0  0  0  0
    8.5840   43.9622  128.6815 C   0  0  0  0  0  0  0  0  0  0  0  0
    8.2058   45.2242  128.3273 C   0  0  0  0  0  0  0  0  0  0  0  0
    8.3749   46.2470  129.2284 C   0  0  0  0  0  0  0  0  0  0  0  0
    7.9849   47.5105  128.8147 C   0  0  0  0  0  0  0  0  0  0  0  0
    8.1380   48.5767  129.6633 C   0  0  0  0  0  0  0  0  0  0  0  0
    8.6868   48.3405  130.9211 C   0  0  0  0  0  0  0  0  0  0  0  0
    9.0797   47.0868  131.3462 C   0  0  0  0  0  0  0  0  0  0  0  0
    8.9265   46.0110  130.4975 C   0  0  0  0  0  0  0  0  0  0  0  0
   10.8876   43.8207  134.6764 C   0  0  0  0  0  0  0  0  0  0  0  0
   11.4451   44.8391  133.9284 C   0  0  0  0  0  0  0  0  0  0  0  0
   10.9069   45.1175  132.6880 C   0  0  0  0  0  0  0  0  0  0  0  0
    9.8435   44.4226  132.1734 C   0  0  0  0  0  0  0  0  0  0  0  0
    9.2953   43.4123  132.9226 C   0  0  0  0  0  0  0  0  0  0  0  0
    9.8056   43.1080  134.1616 C   0  0  0  0  0  0  0  0  0  0  0  0
   11.8018   43.2219  137.0253 N   0  0  0  0  0  0  0  0  0  0  0  0
   11.4033   43.4847  135.9739 C   0  0  0  0  0  0  0  0  0  0  0  0
    6.6216   53.6762  127.5289 S   0  0  0  0  0  0  0  0  0  0  0  0
    7.1695   54.5505  128.6005 O   0  0  0  0  0  0  0  0  0  0  0  0
    7.6522   53.5951  126.4186 O   0  0  0  0  0  0  0  0  0  0  0  0
    5.1418   54.2703  126.8516 C   0  0  0  0  0  0  0  0  0  0  0  0
    4.1680   53.3074  126.5439 C   0  0  0  0  0  0  0  0  0  0  0  0
    2.9998   53.7307  125.9634 C   0  0  0  0  0  0  0  0  0  0  0  0
    2.8117   55.0715  125.6985 C   0  0  0  0  0  0  0  0  0  0  0  0
    3.7646   55.9545  126.0069 N   0  0  0  0  0  0  0  0  0  0  0  0
    4.9640   55.5920  126.5938 C   0  0  0  0  0  0  0  0  0  0  0  0
    5.8746   56.5832  126.8701 O   0  0  0  0  0  0  0  0  0  0  0  0
    7.1233   56.6124  126.3297 C   0  0  0  0  0  0  0  0  0  0  0  0
    8.2836   57.0356  126.9109 C   0  0  0  0  0  0  0  0  0  0  0  0
    9.5034   57.0380  126.3159 C   0  0  0  0  0  0  0  0  0  0  0  0
    9.6066   56.5734  124.9980 C   0  0  0  0  0  0  0  0  0  0  0  0
    8.4794   56.1331  124.3524 C   0  0  0  0  0  0  0  0  0  0  0  0
    7.2596   56.1532  125.0087 C   0  0  0  0  0  0  0  0  0  0  0  0
    8.4843   55.6597  123.0277 N   0  0  0  0  0  0  0  0  0  0  0  0
    8.0463   54.3205  122.7236 C   0  0  0  0  0  0  0  0  0  0  0  0
    6.9390   54.4919  121.6703 C   0  0  0  0  0  0  0  0  0  0  0  0
    7.6103   54.9493  120.5315 O   0  0  0  0  0  0  0  0  0  0  0  0
    8.1160   56.2181  120.6486 C   0  0  0  0  0  0  0  0  0  0  0  0
    8.9080   56.4776  121.9043 C   0  0  0  0  0  0  0  0  0  0  0  0
 23 24  3  0  0  0
 24 17  1  0  0  0
 17 18  2  0  0  0
 18 19  1  0  0  0
 19 20  2  0  0  0
 20 21  1  0  0  0
 21 22  2  0  0  0
 20  7  1  0  0  0
  7  8  2  0  0  0
  8  9  1  0  0  0
  9 10  2  0  0  0
 10 11  1  0  0  0
 11 12  2  0  0  0
 12 13  1  0  0  0
 13 14  2  0  0  0
 14 15  1  0  0  0
 15 16  2  0  0  0
 13  1  1  0  0  0
  1  2  1  0  0  0
  2  3  1  0  0  0
  3  4  1  0  0  0
  4  5  1  0  0  0
  5  6  1  0  0  0
  4 25  1  0  0  0
 25 26  2  0  0  0
 25 27  2  0  0  0
 25 28  1  0  0  0
 28 29  2  0  0  0
 29 30  1  0  0  0
 30 31  2  0  0  0
 31 32  1  0  0  0
 32 33  2  0  0  0
 33 34  1  0  0  0
 34 35  1  0  0  0
 35 36  2  0  0  0
 36 37  1  0  0  0
 37 38  2  0  0  0
 38 39  1  0  0  0
 39 40  2  0  0  0
 39 41  1  0  0  0
 41 42  1  0  0  0
 42 43  1  0  0  0
 43 44  1  0  0  0
 44 45  1  0  0  0
 45 46  1  0  0  0
 22 17  1  0  0  0
 16  7  1  0  0  0
  6  1  1  0  0  0
 33 28  1  0  0  0
 40 35  1  0  0  0
 46 41  1  0  0  0
 16 11  1  0  0  0
M  END
> <minimizedAffinity>
16.50361

> <CNNscore>
0.4472678006

> <CNNaffinity>
7.4237241745

> <CNN_VS>
3.3203928471

> <CNNaffinity_variance>
1.0437570810

$$$$
[H]c1nc(Oc2c([H])c([H])c([H])c(N3C([H])([H])C([H])([H])OC([H])([H])C3([H])[H])c2[H])c(S(=O)(=O)N2C([H])([H])C([H])([H])N(c3c([H])c([H])c4c(-c5c([H])c([H])c(C#N)c([H])c5[H])c([H])c([H])c([H])c4c3[H])C([H])([H])C2([H])[H])c([H])c1[H]


 46 52  0  0  0  0  0  0  0  0999 V2000
    7.3433   51.8295  128.1272 N   0  0  0  0  0  0  0  0  0  0  0  0
    7.1767   53.0441  128.9352 C   0  0  0  0  0  0  0  0  0  0  0  0
    7.2494   54.2742  128.0459 C   0  0  0  0  0  0  0  0  0  0  0  0
    6.3716   54.2015  126.9305 N   0  0  0  0  0  0  0  0  0  0  0  0
    6.2302   52.9010  126.3490 C   0  0  0  0  0  0  0  0  0  0  0  0
    7.4542   52.0803  126.7176 C   0  0  0  0  0  0  0  0  0  0  0  0
    7.6662   46.8885  130.7049 C   0  0  0  0  0  0  0  0  0  0  0  0
    6.5423   46.0541  130.5873 C   0  0  0  0  0  0  0  0  0  0  0  0
    5.4171   46.4194  129.8904 C   0  0  0  0  0  0  0  0  0  0  0  0
    5.3585   47.6362  129.2762 C   0  0  0  0  0  0  0  0  0  0  0  0
    6.4383   48.4803  129.3676 C   0  0  0  0  0  0  0  0  0  0  0  0
    6.3313   49.6988  128.7169 C   0  0  0  0  0  0  0  0  0  0  0  0
    7.3792   50.5823  128.7601 C   0  0  0  0  0  0  0  0  0  0  0  0
    8.5213   50.2114  129.4652 C   0  0  0  0  0  0  0  0  0  0  0  0
    8.6413   49.0006  130.1181 C   0  0  0  0  0  0  0  0  0  0  0  0
    7.5900   48.1093  130.0792 C   0  0  0  0  0  0  0  0  0  0  0  0
   10.9631   45.6402  133.0261 C   0  0  0  0  0  0  0  0  0  0  0  0
    9.8428   46.1608  133.6436 C   0  0  0  0  0  0  0  0  0  0  0  0
    8.7811   46.5600  132.8566 C   0  0  0  0  0  0  0  0  0  0  0  0
    8.7982   46.4591  131.4898 C   0  0  0  0  0  0  0  0  0  0  0  0
    9.9149   45.9409  130.8840 C   0  0  0  0  0  0  0  0  0  0  0  0
   10.9900   45.5335  131.6363 C   0  0  0  0  0  0  0  0  0  0  0  0
   13.0039   44.8416  134.4077 N   0  0  0  0  0  0  0  0  0  0  0  0
   12.0987   45.2074  133.7912 C   0  0  0  0  0  0  0  0  0  0  0  0
    6.7527   55.3814  125.6883 S   0  0  0  0  0  0  0  0  0  0  0  0
    7.8774   56.2459  126.1362 O   0  0  0  0  0  0  0  0  0  0  0  0
    7.2095   54.6189  124.4589 O   0  0  0  0  0  0  0  0  0  0  0  0
    5.3273   56.2743  125.2727 C   0  0  0  0  0  0  0  0  0  0  0  0
    5.4838   57.6611  125.1233 C   0  0  0  0  0  0  0  0  0  0  0  0
    4.3712   58.4113  124.8398 C   0  0  0  0  0  0  0  0  0  0  0  0
    3.1432   57.7957  124.7108 C   0  0  0  0  0  0  0  0  0  0  0  0
    3.0387   56.4732  124.8615 N   0  0  0  0  0  0  0  0  0  0  0  0
    4.1219   55.6611  125.1474 C   0  0  0  0  0  0  0  0  0  0  0  0
    3.9011   54.3115  125.2806 O   0  0  0  0  0  0  0  0  0  0  0  0
    2.8235   53.7991  125.9351 C   0  0  0  0  0  0  0  0  0  0  0  0
    2.4363   52.4934  126.0284 C   0  0  0  0  0  0  0  0  0  0  0  0
    1.3463   52.0447  126.7011 C   0  0  0  0  0  0  0  0  0  0  0  0
    0.5361   52.9777  127.3616 C   0  0  0  0  0  0  0  0  0  0  0  0
    0.8661   54.3080  127.3092 C   0  0  0  0  0  0  0  0  0  0  0  0
    1.9908   54.7097  126.6073 C   0  0  0  0  0  0  0  0  0  0  0  0
    0.1077   55.3161  127.9317 N   0  0  0  0  0  0  0  0  0  0  0  0
   -1.1275   54.9983  128.6034 C   0  0  0  0  0  0  0  0  0  0  0  0
   -0.9571   55.5429  130.0315 C   0  0  0  0  0  0  0  0  0  0  0  0
   -0.9464   56.9329  129.8744 O   0  0  0  0  0  0  0  0  0  0  0  0
    0.1629   57.4175  129.2311 C   0  0  0  0  0  0  0  0  0  0  0  0
    0.5195   56.7091  127.9496 C   0  0  0  0  0  0  0  0  0  0  0  0
 23 24  3  0  0  0
 24 17  1  0  0  0
 17 18  2  0  0  0
 18 19  1  0  0  0
 19 20  2  0  0  0
 20 21  1  0  0  0
 21 22  2  0  0  0
 20  7  1  0  0  0
  7  8  2  0  0  0
  8  9  1  0  0  0
  9 10  2  0  0  0
 10 11  1  0  0  0
 11 12  2  0  0  0
 12 13  1  0  0  0
 13 14  2  0  0  0
 14 15  1  0  0  0
 15 16  2  0  0  0
 13  1  1  0  0  0
  1  2  1  0  0  0
  2  3  1  0  0  0
  3  4  1  0  0  0
  4  5  1  0  0  0
  5  6  1  0  0  0
  4 25  1  0  0  0
 25 26  2  0  0  0
 25 27  2  0  0  0
 25 28  1  0  0  0
 28 29  2  0  0  0
 29 30  1  0  0  0
 30 31  2  0  0  0
 31 32  1  0  0  0
 32 33  2  0  0  0
 33 34  1  0  0  0
 34 35  1  0  0  0
 35 36  2  0  0  0
 36 37  1  0  0  0
 37 38  2  0  0  0
 38 39  1  0  0  0
 39 40  2  0  0  0
 39 41  1  0  0  0
 41 42  1  0  0  0
 42 43  1  0  0  0
 43 44  1  0  0  0
 44 45  1  0  0  0
 45 46  1  0  0  0
 22 17  1  0  0  0
 16  7  1  0  0  0
  6  1  1  0  0  0
 33 28  1  0  0  0
 40 35  1  0  0  0
 46 41  1  0  0  0
 16 11  1  0  0  0
M  END
> <minimizedAffinity>
8.78624

> <CNNscore>
0.4448539615

> <CNNaffinity>
6.9451203346

> <CNN_VS>
3.0895643234

> <CNNaffinity_variance>
0.3848863244

$$$$
[H]c1nc(Oc2c([H])c([H])c([H])c(N3C([H])([H])C([H])([H])OC([H])([H])C3([H])[H])c2[H])c(S(=O)(=O)N2C([H])([H])C([H])([H])N(c3c([H])c([H])c4c(-c5c([H])c([H])c(C#N)c([H])c5[H])c([H])c([H])c([H])c4c3[H])C([H])([H])C2([H])[H])c([H])c1[H]


 46 52  0  0  0  0  0  0  0  0999 V2000
    7.6177   50.5748  129.2648 N   0  0  0  0  0  0  0  0  0  0  0  0
    6.3130   50.4921  128.5963 C   0  0  0  0  0  0  0  0  0  0  0  0
    5.8849   51.8698  128.1192 C   0  0  0  0  0  0  0  0  0  0  0  0
    6.8850   52.5222  127.3483 N   0  0  0  0  0  0  0  0  0  0  0  0
    8.2314   52.2964  127.7788 C   0  0  0  0  0  0  0  0  0  0  0  0
    8.2000   51.8872  129.2413 C   0  0  0  0  0  0  0  0  0  0  0  0
    9.9401   45.9873  131.4382 C   0  0  0  0  0  0  0  0  0  0  0  0
    9.3030   45.4461  132.5672 C   0  0  0  0  0  0  0  0  0  0  0  0
    8.1787   46.0046  133.1231 C   0  0  0  0  0  0  0  0  0  0  0  0
    7.6346   47.1313  132.5793 C   0  0  0  0  0  0  0  0  0  0  0  0
    8.2285   47.6900  131.4738 C   0  0  0  0  0  0  0  0  0  0  0  0
    7.6299   48.8265  130.9545 C   0  0  0  0  0  0  0  0  0  0  0  0
    8.1672   49.4262  129.8446 C   0  0  0  0  0  0  0  0  0  0  0  0
    9.3064   48.8591  129.2792 C   0  0  0  0  0  0  0  0  0  0  0  0
    9.9131   47.7270  129.7863 C   0  0  0  0  0  0  0  0  0  0  0  0
    9.3778   47.1210  130.9032 C   0  0  0  0  0  0  0  0  0  0  0  0
   13.4489   44.1879  129.9329 C   0  0  0  0  0  0  0  0  0  0  0  0
   12.3181   44.2609  129.1432 C   0  0  0  0  0  0  0  0  0  0  0  0
   11.1865   44.8556  129.6645 C   0  0  0  0  0  0  0  0  0  0  0  0
   11.1442   45.3741  130.9325 C   0  0  0  0  0  0  0  0  0  0  0  0
   12.2717   45.2976  131.7107 C   0  0  0  0  0  0  0  0  0  0  0  0
   13.4158   44.7126  131.2240 C   0  0  0  0  0  0  0  0  0  0  0  0
   15.6357   43.1117  129.0547 N   0  0  0  0  0  0  0  0  0  0  0  0
   14.6563   43.5816  129.4461 C   0  0  0  0  0  0  0  0  0  0  0  0
    6.5882   54.2426  127.1671 S   0  0  0  0  0  0  0  0  0  0  0  0
    5.1260   54.5133  127.2083 O   0  0  0  0  0  0  0  0  0  0  0  0
    7.2275   54.9434  128.3509 O   0  0  0  0  0  0  0  0  0  0  0  0
    7.3497   54.8184  125.7213 C   0  0  0  0  0  0  0  0  0  0  0  0
    7.8793   53.8401  124.8654 C   0  0  0  0  0  0  0  0  0  0  0  0
    8.5312   54.2554  123.7325 C   0  0  0  0  0  0  0  0  0  0  0  0
    8.6504   55.6036  123.4647 C   0  0  0  0  0  0  0  0  0  0  0  0
    8.1322   56.5013  124.3063 N   0  0  0  0  0  0  0  0  0  0  0  0
    7.4632   56.1474  125.4646 C   0  0  0  0  0  0  0  0  0  0  0  0
    6.9683   57.1535  126.2588 O   0  0  0  0  0  0  0  0  0  0  0  0
    5.6415   57.3035  126.5220 C   0  0  0  0  0  0  0  0  0  0  0  0
    5.0255   58.3169  127.1979 C   0  0  0  0  0  0  0  0  0  0  0  0
    3.6910   58.4095  127.4268 C   0  0  0  0  0  0  0  0  0  0  0  0
    2.8561   57.3950  126.9402 C   0  0  0  0  0  0  0  0  0  0  0  0
    3.4084   56.3451  126.2517 C   0  0  0  0  0  0  0  0  0  0  0  0
    4.7778   56.3019  126.0473 C   0  0  0  0  0  0  0  0  0  0  0  0
    2.6516   55.2772  125.7360 N   0  0  0  0  0  0  0  0  0  0  0  0
    2.7090   54.9445  124.3347 C   0  0  0  0  0  0  0  0  0  0  0  0
    3.1042   53.4589  124.2927 C   0  0  0  0  0  0  0  0  0  0  0  0
    1.9894   52.7879  124.8063 O   0  0  0  0  0  0  0  0  0  0  0  0
    1.7685   53.0050  126.1417 C   0  0  0  0  0  0  0  0  0  0  0  0
    1.7939   54.4504  126.5675 C   0  0  0  0  0  0  0  0  0  0  0  0
 23 24  3  0  0  0
 24 17  1  0  0  0
 17 18  2  0  0  0
 18 19  1  0  0  0
 19 20  2  0  0  0
 20 21  1  0  0  0
 21 22  2  0  0  0
 20  7  1  0  0  0
  7  8  2  0  0  0
  8  9  1  0  0  0
  9 10  2  0  0  0
 10 11  1  0  0  0
 11 12  2  0  0  0
 12 13  1  0  0  0
 13 14  2  0  0  0
 14 15  1  0  0  0
 15 16  2  0  0  0
 13  1  1  0  0  0
  1  2  1  0  0  0
  2  3  1  0  0  0
  3  4  1  0  0  0
  4  5  1  0  0  0
  5  6  1  0  0  0
  4 25  1  0  0  0
 25 26  2  0  0  0
 25 27  2  0  0  0
 25 28  1  0  0  0
 28 29  2  0  0  0
 29 30  1  0  0  0
 30 31  2  0  0  0
 31 32  1  0  0  0
 32 33  2  0  0  0
 33 34  1  0  0  0
 34 35  1  0  0  0
 35 36  2  0  0  0
 36 37  1  0  0  0
 37 38  2  0  0  0
 38 39  1  0  0  0
 39 40  2  0  0  0
 39 41  1  0  0  0
 41 42  1  0  0  0
 42 43  1  0  0  0
 43 44  1  0  0  0
 44 45  1  0  0  0
 45 46  1  0  0  0
 22 17  1  0  0  0
 16  7  1  0  0  0
  6  1  1  0  0  0
 33 28  1  0  0  0
 40 35  1  0  0  0
 46 41  1  0  0  0
 16 11  1  0  0  0
M  END
> <minimizedAffinity>
13.99322

> <CNNscore>
0.4389111698

> <CNNaffinity>
7.4163446426

> <CNN_VS>
3.2551164627

> <CNNaffinity_variance>
0.7394827008

$$$$
[H]c1nc(Oc2c([H])c([H])c([H])c(N3C([H])([H])C([H])([H])OC([H])([H])C3([H])[H])c2[H])c(S(=O)(=O)N2C([H])([H])C([H])([H])N(c3c([H])c([H])c4c(-c5c([H])c([H])c(C#N)c([H])c5[H])c([H])c([H])c([H])c4c3[H])C([H])([H])C2([H])[H])c([H])c1[H]


 46 52  0  0  0  0  0  0  0  0999 V2000
    7.8826   49.7626  129.0731 N   0  0  0  0  0  0  0  0  0  0  0  0
    6.4472   50.0694  129.1122 C   0  0  0  0  0  0  0  0  0  0  0  0
    6.2234   51.5464  128.8335 C   0  0  0  0  0  0  0  0  0  0  0  0
    6.8733   51.9892  127.6496 N   0  0  0  0  0  0  0  0  0  0  0  0
    8.1507   51.3949  127.3959 C   0  0  0  0  0  0  0  0  0  0  0  0
    8.7063   50.8828  128.7137 C   0  0  0  0  0  0  0  0  0  0  0  0
    9.4767   44.5799  130.3997 C   0  0  0  0  0  0  0  0  0  0  0  0
   10.6330   44.1046  129.7592 C   0  0  0  0  0  0  0  0  0  0  0  0
   11.3381   44.8538  128.8499 C   0  0  0  0  0  0  0  0  0  0  0  0
   10.9235   46.1148  128.5352 C   0  0  0  0  0  0  0  0  0  0  0  0
    9.7972   46.6156  129.1415 C   0  0  0  0  0  0  0  0  0  0  0  0
    9.4260   47.9046  128.7950 C   0  0  0  0  0  0  0  0  0  0  0  0
    8.3172   48.4671  129.3734 C   0  0  0  0  0  0  0  0  0  0  0  0
    7.6029   47.7084  130.2970 C   0  0  0  0  0  0  0  0  0  0  0  0
    7.9615   46.4230  130.6515 C   0  0  0  0  0  0  0  0  0  0  0  0
    9.0746   45.8520  130.0717 C   0  0  0  0  0  0  0  0  0  0  0  0
    7.3681   42.0552  133.0447 C   0  0  0  0  0  0  0  0  0  0  0  0
    7.3203   41.8225  131.6842 C   0  0  0  0  0  0  0  0  0  0  0  0
    8.0209   42.6660  130.8454 C   0  0  0  0  0  0  0  0  0  0  0  0
    8.7593   43.7224  131.3118 C   0  0  0  0  0  0  0  0  0  0  0  0
    8.8017   43.9469  132.6647 C   0  0  0  0  0  0  0  0  0  0  0  0
    8.1166   43.1271  133.5288 C   0  0  0  0  0  0  0  0  0  0  0  0
    6.1093   40.5274  134.7158 N   0  0  0  0  0  0  0  0  0  0  0  0
    6.6609   41.2120  133.9673 C   0  0  0  0  0  0  0  0  0  0  0  0
    6.9893   53.7378  127.5520 S   0  0  0  0  0  0  0  0  0  0  0  0
    5.6716   54.3529  127.8651 O   0  0  0  0  0  0  0  0  0  0  0  0
    7.9796   54.1894  128.6088 O   0  0  0  0  0  0  0  0  0  0  0  0
    7.6070   54.1973  125.9999 C   0  0  0  0  0  0  0  0  0  0  0  0
    8.0526   53.1535  125.1741 C   0  0  0  0  0  0  0  0  0  0  0  0
    8.5916   53.4774  123.9552 C   0  0  0  0  0  0  0  0  0  0  0  0
    8.6828   54.8005  123.5751 C   0  0  0  0  0  0  0  0  0  0  0  0
    8.2473   55.7628  124.3919 N   0  0  0  0  0  0  0  0  0  0  0  0
    7.6936   55.5021  125.6328 C   0  0  0  0  0  0  0  0  0  0  0  0
    7.2765   56.5688  126.3919 O   0  0  0  0  0  0  0  0  0  0  0  0
    5.9686   56.9260  126.5106 C   0  0  0  0  0  0  0  0  0  0  0  0
    5.4546   58.0977  126.9862 C   0  0  0  0  0  0  0  0  0  0  0  0
    4.1335   58.3946  127.0780 C   0  0  0  0  0  0  0  0  0  0  0  0
    3.2012   57.4373  126.6567 C   0  0  0  0  0  0  0  0  0  0  0  0
    3.6480   56.2363  126.1677 C   0  0  0  0  0  0  0  0  0  0  0  0
    5.0088   55.9869  126.0968 C   0  0  0  0  0  0  0  0  0  0  0  0
    2.7874   55.2123  125.7321 N   0  0  0  0  0  0  0  0  0  0  0  0
    2.7548   54.8192  124.3457 C   0  0  0  0  0  0  0  0  0  0  0  0
    3.0303   53.3062  124.3529 C   0  0  0  0  0  0  0  0  0  0  0  0
    1.8909   52.7482  124.9421 O   0  0  0  0  0  0  0  0  0  0  0  0
    1.7486   53.0366  126.2748 C   0  0  0  0  0  0  0  0  0  0  0  0
    1.9063   54.4915  126.6347 C   0  0  0  0  0  0  0  0  0  0  0  0
 23 24  3  0  0  0
 24 17  1  0  0  0
 17 18  2  0  0  0
 18 19  1  0  0  0
 19 20  2  0  0  0
 20 21  1  0  0  0
 21 22  2  0  0  0
 20  7  1  0  0  0
  7  8  2  0  0  0
  8  9  1  0  0  0
  9 10  2  0  0  0
 10 11  1  0  0  0
 11 12  2  0  0  0
 12 13  1  0  0  0
 13 14  2  0  0  0
 14 15  1  0  0  0
 15 16  2  0  0  0
 13  1  1  0  0  0
  1  2  1  0  0  0
  2  3  1  0  0  0
  3  4  1  0  0  0
  4  5  1  0  0  0
  5  6  1  0  0  0
  4 25  1  0  0  0
 25 26  2  0  0  0
 25 27  2  0  0  0
 25 28  1  0  0  0
 28 29  2  0  0  0
 29 30  1  0  0  0
 30 31  2  0  0  0
 31 32  1  0  0  0
 32 33  2  0  0  0
 33 34  1  0  0  0
 34 35  1  0  0  0
 35 36  2  0  0  0
 36 37  1  0  0  0
 37 38  2  0  0  0
 38 39  1  0  0  0
 39 40  2  0  0  0
 39 41  1  0  0  0
 41 42  1  0  0  0
 42 43  1  0  0  0
 43 44  1  0  0  0
 44 45  1  0  0  0
 45 46  1  0  0  0
 22 17  1  0  0  0
 16  7  1  0  0  0
  6  1  1  0  0  0
 33 28  1  0  0  0
 40 35  1  0  0  0
 46 41  1  0  0  0
 16 11  1  0  0  0
M  END
> <minimizedAffinity>
15.08958

> <CNNscore>
0.4365666509

> <CNNaffinity>
7.2252411842

> <CNN_VS>
3.1542992592

> <CNNaffinity_variance>
0.3564247191

$$$$
[H]c1nc(Oc2c([H])c([H])c([H])c(N3C([H])([H])C([H])([H])OC([H])([H])C3([H])[H])c2[H])c(S(=O)(=O)N2C([H])([H])C([H])([H])N(c3c([H])c([H])c4c(-c5c([H])c([H])c(C#N)c([H])c5[H])c([H])c([H])c([H])c4c3[H])C([H])([H])C2([H])[H])c([H])c1[H]


 46 52  0  0  0  0  0  0  0  0999 V2000
    7.6049   50.5142  129.8735 N   0  0  0  0  0  0  0  0  0  0  0  0
    6.3676   51.2103  130.2484 C   0  0  0  0  0  0  0  0  0  0  0  0
    6.2247   52.4887  129.4395 C   0  0  0  0  0  0  0  0  0  0  0  0
    6.3624   52.2752  128.0410 N   0  0  0  0  0  0  0  0  0  0  0  0
    7.3331   51.2918  127.6665 C   0  0  0  0  0  0  0  0  0  0  0  0
    8.3271   51.1478  128.8062 C   0  0  0  0  0  0  0  0  0  0  0  0
    9.0320   45.7512  132.4110 C   0  0  0  0  0  0  0  0  0  0  0  0
    9.2631   45.8316  133.7943 C   0  0  0  0  0  0  0  0  0  0  0  0
    9.1577   47.0067  134.4967 C   0  0  0  0  0  0  0  0  0  0  0  0
    8.8161   48.1598  133.8525 C   0  0  0  0  0  0  0  0  0  0  0  0
    8.5812   48.1216  132.4997 C   0  0  0  0  0  0  0  0  0  0  0  0
    8.2270   49.3176  131.8965 C   0  0  0  0  0  0  0  0  0  0  0  0
    7.9680   49.3448  130.5503 C   0  0  0  0  0  0  0  0  0  0  0  0
    8.0730   48.1529  129.8378 C   0  0  0  0  0  0  0  0  0  0  0  0
    8.4248   46.9543  130.4261 C   0  0  0  0  0  0  0  0  0  0  0  0
    8.6880   46.9216  131.7792 C   0  0  0  0  0  0  0  0  0  0  0  0
    9.5620   42.0644  130.4256 C   0  0  0  0  0  0  0  0  0  0  0  0
   10.5603   42.5570  131.2429 C   0  0  0  0  0  0  0  0  0  0  0  0
   10.3565   43.7656  131.8784 C   0  0  0  0  0  0  0  0  0  0  0  0
    9.2039   44.4919  131.7281 C   0  0  0  0  0  0  0  0  0  0  0  0
    8.2169   43.9956  130.9144 C   0  0  0  0  0  0  0  0  0  0  0  0
    8.3859   42.7958  130.2664 C   0  0  0  0  0  0  0  0  0  0  0  0
    9.8567   39.8118  129.1804 N   0  0  0  0  0  0  0  0  0  0  0  0
    9.7154   40.8127  129.7384 C   0  0  0  0  0  0  0  0  0  0  0  0
    6.6338   53.7630  127.1503 S   0  0  0  0  0  0  0  0  0  0  0  0
    7.4256   54.7130  127.9769 O   0  0  0  0  0  0  0  0  0  0  0  0
    7.4530   53.4165  125.9214 O   0  0  0  0  0  0  0  0  0  0  0  0
    5.1171   54.4144  126.6239 C   0  0  0  0  0  0  0  0  0  0  0  0
    4.1184   53.4824  126.3013 C   0  0  0  0  0  0  0  0  0  0  0  0
    2.9178   53.9550  125.8364 C   0  0  0  0  0  0  0  0  0  0  0  0
    2.7225   55.3137  125.6977 C   0  0  0  0  0  0  0  0  0  0  0  0
    3.6999   56.1660  126.0156 N   0  0  0  0  0  0  0  0  0  0  0  0
    4.9325   55.7534  126.4900 C   0  0  0  0  0  0  0  0  0  0  0  0
    5.8662   56.7163  126.7878 O   0  0  0  0  0  0  0  0  0  0  0  0
    7.1211   56.7181  126.2610 C   0  0  0  0  0  0  0  0  0  0  0  0
    8.2824   57.1261  126.8511 C   0  0  0  0  0  0  0  0  0  0  0  0
    9.5085   57.1011  126.2698 C   0  0  0  0  0  0  0  0  0  0  0  0
    9.6178   56.6221  124.9576 C   0  0  0  0  0  0  0  0  0  0  0  0
    8.4900   56.1958  124.3036 C   0  0  0  0  0  0  0  0  0  0  0  0
    7.2637   56.2439  124.9460 C   0  0  0  0  0  0  0  0  0  0  0  0
    8.5009   55.7098  122.9835 N   0  0  0  0  0  0  0  0  0  0  0  0
    8.0982   54.3562  122.6948 C   0  0  0  0  0  0  0  0  0  0  0  0
    6.9811   54.4869  121.6459 C   0  0  0  0  0  0  0  0  0  0  0  0
    7.6338   54.9513  120.4991 O   0  0  0  0  0  0  0  0  0  0  0  0
    8.1051   56.2345  120.6012 C   0  0  0  0  0  0  0  0  0  0  0  0
    8.8962   56.5278  121.8499 C   0  0  0  0  0  0  0  0  0  0  0  0
 23 24  3  0  0  0
 24 17  1  0  0  0
 17 18  2  0  0  0
 18 19  1  0  0  0
 19 20  2  0  0  0
 20 21  1  0  0  0
 21 22  2  0  0  0
 20  7  1  0  0  0
  7  8  2  0  0  0
  8  9  1  0  0  0
  9 10  2  0  0  0
 10 11  1  0  0  0
 11 12  2  0  0  0
 12 13  1  0  0  0
 13 14  2  0  0  0
 14 15  1  0  0  0
 15 16  2  0  0  0
 13  1  1  0  0  0
  1  2  1  0  0  0
  2  3  1  0  0  0
  3  4  1  0  0  0
  4  5  1  0  0  0
  5  6  1  0  0  0
  4 25  1  0  0  0
 25 26  2  0  0  0
 25 27  2  0  0  0
 25 28  1  0  0  0
 28 29  2  0  0  0
 29 30  1  0  0  0
 30 31  2  0  0  0
 31 32  1  0  0  0
 32 33  2  0  0  0
 33 34  1  0  0  0
 34 35  1  0  0  0
 35 36  2  0  0  0
 36 37  1  0  0  0
 37 38  2  0  0  0
 38 39  1  0  0  0
 39 40  2  0  0  0
 39 41  1  0  0  0
 41 42  1  0  0  0
 42 43  1  0  0  0
 43 44  1  0  0  0
 44 45  1  0  0  0
 45 46  1  0  0  0
 22 17  1  0  0  0
 16  7  1  0  0  0
  6  1  1  0  0  0
 33 28  1  0  0  0
 40 35  1  0  0  0
 46 41  1  0  0  0
 16 11  1  0  0  0
M  END
> <minimizedAffinity>
16.16656

> <CNNscore>
0.4342871606

> <CNNaffinity>
7.2275800705

> <CNN_VS>
3.1388452053

> <CNNaffinity_variance>
0.7542217970

$$$$
[H]OC(=O)C([H])([H])N(C(=O)[C@]1([H])N(C(=O)c2c([H])c([H])c3c(sc(=O)n3[H])c2C([H])([H])[H])C([H])([H])C([H])([H])C1([H])[H])C([H])=C([H])[H]


 29 31  0  0  0  0  0  0  0  0999 V2000
    9.7650   46.2089  130.9400 C   0  0  0  0  0  0  0  0  0  0  0  0
    9.7509   46.1318  132.1867 O   0  0  0  0  0  0  0  0  0  0  0  0
   10.5179   45.2875  130.1872 N   0  0  0  0  0  0  0  0  0  0  0  0
   10.5596   45.3655  128.6633 C   0  0  0  0  0  0  0  0  0  0  0  0
   10.0868   43.9579  128.3726 C   0  0  0  0  0  0  0  0  0  0  0  0
   10.5994   43.1219  129.5251 C   0  0  0  0  0  0  0  0  0  0  0  0
   11.3693   44.1694  130.3781 C   0  0  0  0  0  0  0  0  0  0  0  0
    9.8844   48.9260  131.9118 C   0  0  0  0  0  0  0  0  0  0  0  0
    9.0490   48.5583  130.7600 C   0  0  0  0  0  0  0  0  0  0  0  0
    8.9867   47.2705  130.2922 C   0  0  0  0  0  0  0  0  0  0  0  0
    8.1764   47.0456  129.2149 C   0  0  0  0  0  0  0  0  0  0  0  0
    7.4385   48.0160  128.5899 C   0  0  0  0  0  0  0  0  0  0  0  0
    7.4985   49.3445  129.0671 C   0  0  0  0  0  0  0  0  0  0  0  0
    6.8417   50.3731  128.5605 N   0  0  0  0  0  0  0  0  0  0  0  0
    7.0065   51.5669  129.1274 C   0  0  0  0  0  0  0  0  0  0  0  0
    6.4608   52.6777  128.7842 O   0  0  0  0  0  0  0  0  0  0  0  0
    8.1025   51.2481  130.3958 S   0  0  0  0  0  0  0  0  0  0  0  0
    8.3038   49.5789  130.1409 C   0  0  0  0  0  0  0  0  0  0  0  0
    6.1690   50.3301  127.7097 H   0  0  0  0  0  0  0  0  0  0  0  0
   11.6698   43.6367  131.6780 C   0  0  0  0  0  0  0  0  0  0  0  0
   12.8131   43.6391  132.1686 O   0  0  0  0  0  0  0  0  0  0  0  0
   10.5687   43.0723  132.4385 N   0  0  0  0  0  0  0  0  0  0  0  0
    9.2505   42.9819  132.0000 C   0  0  0  0  0  0  0  0  0  0  0  0
    8.1937   43.0140  132.8009 C   0  0  0  0  0  0  0  0  0  0  0  0
   10.9107   42.5556  133.7627 C   0  0  0  0  0  0  0  0  0  0  0  0
   11.1681   43.6586  134.7167 C   0  0  0  0  0  0  0  0  0  0  0  0
   10.9023   44.9606  134.3355 O   0  0  0  0  0  0  0  0  0  0  0  0
   11.6187   43.4094  135.8482 O   0  0  0  0  0  0  0  0  0  0  0  0
   11.5929   45.5091  133.8262 H   0  0  0  0  0  0  0  0  0  0  0  0
  8  9  1  0  0  0
  9 10  2  0  0  0
 10 11  1  0  0  0
 11 12  2  0  0  0
 12 13  1  0  0  0
 13 14  1  0  0  0
 14 15  1  0  0  0
 15 16  2  0  0  0
 15 17  1  0  0  0
 17 18  1  0  0  0
 10  1  1  0  0  0
  1  2  2  0  0  0
  1  3  1  0  0  0
  3  4  1  0  0  0
  4  5  1  0  0  0
  5  6  1  0  0  0
  6  7  1  0  0  0
  7 20  1  0  0  0
 20 21  2  0  0  0
 20 22  1  0  0  0
 22 25  1  0  0  0
 25 26  1  0  0  0
 26 27  1  0  0  0
 26 28  2  0  0  0
 22 23  1  0  0  0
 23 24  2  0  0  0
 18  9  1  0  0  0
  7  3  1  0  0  0
 18 13  2  0  0  0
 14 19  1  0  0  0
 27 29  1  0  0  0
M  END
> <minimizedAffinity>
-3.99416

> <CNNscore>
0.4991324246

> <CNNaffinity>
7.3021345139

> <CNN_VS>
3.6447319984

> <CNNaffinity_variance>
0.4083095193

$$$$
[H]OC(=O)C([H])([H])N(C(=O)[C@]1([H])N(C(=O)c2c([H])c([H])c3c(sc(=O)n3[H])c2C([H])([H])[H])C([H])([H])C([H])([H])C1([H])[H])C([H])=C([H])[H]


 29 31  0  0  0  0  0  0  0  0999 V2000
    9.3572   45.7718  130.8551 C   0  0  0  0  0  0  0  0  0  0  0  0
    9.2811   45.5494  132.0819 O   0  0  0  0  0  0  0  0  0  0  0  0
   10.1670   44.9562  130.0417 N   0  0  0  0  0  0  0  0  0  0  0  0
   10.2848   45.2124  128.5415 C   0  0  0  0  0  0  0  0  0  0  0  0
    9.8575   43.8414  128.0649 C   0  0  0  0  0  0  0  0  0  0  0  0
   10.3283   42.8843  129.1383 C   0  0  0  0  0  0  0  0  0  0  0  0
   11.0311   43.8367  130.1467 C   0  0  0  0  0  0  0  0  0  0  0  0
    9.9784   48.4968  131.5830 C   0  0  0  0  0  0  0  0  0  0  0  0
    8.8920   48.1810  130.6451 C   0  0  0  0  0  0  0  0  0  0  0  0
    8.5904   46.8899  130.2942 C   0  0  0  0  0  0  0  0  0  0  0  0
    7.5597   46.7161  129.4138 C   0  0  0  0  0  0  0  0  0  0  0  0
    6.8266   47.7399  128.8741 C   0  0  0  0  0  0  0  0  0  0  0  0
    7.1324   49.0721  129.2317 C   0  0  0  0  0  0  0  0  0  0  0  0
    6.5086   50.1491  128.7879 N   0  0  0  0  0  0  0  0  0  0  0  0
    6.9190   51.3391  129.2228 C   0  0  0  0  0  0  0  0  0  0  0  0
    6.4456   52.4916  128.9111 O   0  0  0  0  0  0  0  0  0  0  0  0
    8.2042   50.9475  130.2747 S   0  0  0  0  0  0  0  0  0  0  0  0
    8.1586   49.2557  130.1089 C   0  0  0  0  0  0  0  0  0  0  0  0
    5.6780   50.1493  128.0890 H   0  0  0  0  0  0  0  0  0  0  0  0
   11.2762   43.1603  131.3903 C   0  0  0  0  0  0  0  0  0  0  0  0
   10.8155   42.0360  131.6577 O   0  0  0  0  0  0  0  0  0  0  0  0
   12.1052   43.8424  132.3684 N   0  0  0  0  0  0  0  0  0  0  0  0
   12.6605   45.1091  132.2097 C   0  0  0  0  0  0  0  0  0  0  0  0
   12.3879   46.1466  132.9897 C   0  0  0  0  0  0  0  0  0  0  0  0
   12.3458   43.1157  133.6140 C   0  0  0  0  0  0  0  0  0  0  0  0
   11.3305   43.4569  134.6366 C   0  0  0  0  0  0  0  0  0  0  0  0
   10.0477   43.7817  134.2364 O   0  0  0  0  0  0  0  0  0  0  0  0
   11.6351   43.4492  135.8418 O   0  0  0  0  0  0  0  0  0  0  0  0
    9.8073   44.7348  133.9698 H   0  0  0  0  0  0  0  0  0  0  0  0
  8  9  1  0  0  0
  9 10  2  0  0  0
 10 11  1  0  0  0
 11 12  2  0  0  0
 12 13  1  0  0  0
 13 14  1  0  0  0
 14 15  1  0  0  0
 15 16  2  0  0  0
 15 17  1  0  0  0
 17 18  1  0  0  0
 10  1  1  0  0  0
  1  2  2  0  0  0
  1  3  1  0  0  0
  3  4  1  0  0  0
  4  5  1  0  0  0
  5  6  1  0  0  0
  6  7  1  0  0  0
  7 20  1  0  0  0
 20 21  2  0  0  0
 20 22  1  0  0  0
 22 25  1  0  0  0
 25 26  1  0  0  0
 26 27  1  0  0  0
 26 28  2  0  0  0
 22 23  1  0  0  0
 23 24  2  0  0  0
 18  9  1  0  0  0
  7  3  1  0  0  0
 18 13  2  0  0  0
 14 19  1  0  0  0
 27 29  1  0  0  0
M  END
> <minimizedAffinity>
-4.16970

> <CNNscore>
0.4929346144

> <CNNaffinity>
7.3016519547

> <CNN_VS>
3.5992369652

> <CNNaffinity_variance>
0.4436350465

$$$$
[H]OC(=O)C([H])([H])N(C(=O)[C@]1([H])N(C(=O)c2c([H])c([H])c3c(sc(=O)n3[H])c2C([H])([H])[H])C([H])([H])C([H])([H])C1([H])[H])C([H])=C([H])[H]


 29 31  0  0  0  0  0  0  0  0999 V2000
   10.2107   46.0825  131.3892 C   0  0  0  0  0  0  0  0  0  0  0  0
   11.0551   45.2215  131.7147 O   0  0  0  0  0  0  0  0  0  0  0  0
    9.3323   45.8355  130.3168 N   0  0  0  0  0  0  0  0  0  0  0  0
    8.2977   46.8747  129.8929 C   0  0  0  0  0  0  0  0  0  0  0  0
    7.0674   46.0032  130.0198 C   0  0  0  0  0  0  0  0  0  0  0  0
    7.5373   44.6037  129.6879 C   0  0  0  0  0  0  0  0  0  0  0  0
    9.0413   44.8272  129.3629 C   0  0  0  0  0  0  0  0  0  0  0  0
    9.4242   48.5453  130.1018 C   0  0  0  0  0  0  0  0  0  0  0  0
    9.7861   48.5044  131.5255 C   0  0  0  0  0  0  0  0  0  0  0  0
   10.1607   47.3392  132.1446 C   0  0  0  0  0  0  0  0  0  0  0  0
   10.4754   47.4211  133.4719 C   0  0  0  0  0  0  0  0  0  0  0  0
   10.4379   48.5794  134.2026 C   0  0  0  0  0  0  0  0  0  0  0  0
   10.0528   49.7830  133.5706 C   0  0  0  0  0  0  0  0  0  0  0  0
    9.9740   50.9658  134.1541 N   0  0  0  0  0  0  0  0  0  0  0  0
    9.5933   52.0078  133.4171 C   0  0  0  0  0  0  0  0  0  0  0  0
    9.4572   53.2269  133.7977 O   0  0  0  0  0  0  0  0  0  0  0  0
    9.3394   51.3226  131.8752 S   0  0  0  0  0  0  0  0  0  0  0  0
    9.7370   49.7116  132.2472 C   0  0  0  0  0  0  0  0  0  0  0  0
   10.1956   51.1663  135.1976 H   0  0  0  0  0  0  0  0  0  0  0  0
    9.7395   43.5722  129.3239 C   0  0  0  0  0  0  0  0  0  0  0  0
   10.3570   43.1659  128.3232 O   0  0  0  0  0  0  0  0  0  0  0  0
    9.7087   42.7541  130.5236 N   0  0  0  0  0  0  0  0  0  0  0  0
    9.0362   43.0750  131.6996 C   0  0  0  0  0  0  0  0  0  0  0  0
    8.0725   42.3365  132.2336 C   0  0  0  0  0  0  0  0  0  0  0  0
   10.4441   41.4926  130.4510 C   0  0  0  0  0  0  0  0  0  0  0  0
   11.3337   41.3244  131.6227 C   0  0  0  0  0  0  0  0  0  0  0  0
   11.9189   42.4384  132.1954 O   0  0  0  0  0  0  0  0  0  0  0  0
   11.5481   40.1894  132.0825 O   0  0  0  0  0  0  0  0  0  0  0  0
   12.7955   42.8127  131.8369 H   0  0  0  0  0  0  0  0  0  0  0  0
  8  9  1  0  0  0
  9 10  2  0  0  0
 10 11  1  0  0  0
 11 12  2  0  0  0
 12 13  1  0  0  0
 13 14  1  0  0  0
 14 15  1  0  0  0
 15 16  2  0  0  0
 15 17  1  0  0  0
 17 18  1  0  0  0
 10  1  1  0  0  0
  1  2  2  0  0  0
  1  3  1  0  0  0
  3  4  1  0  0  0
  4  5  1  0  0  0
  5  6  1  0  0  0
  6  7  1  0  0  0
  7 20  1  0  0  0
 20 21  2  0  0  0
 20 22  1  0  0  0
 22 25  1  0  0  0
 25 26  1  0  0  0
 26 27  1  0  0  0
 26 28  2  0  0  0
 22 23  1  0  0  0
 23 24  2  0  0  0
 18  9  1  0  0  0
  7  3  1  0  0  0
 18 13  2  0  0  0
 14 19  1  0  0  0
 27 29  1  0  0  0
M  END
> <minimizedAffinity>
10.35061

> <CNNscore>
0.4697253704

> <CNNaffinity>
6.8654580116

> <CNN_VS>
3.2248797417

> <CNNaffinity_variance>
0.8952310681

$$$$
[H]OC(=O)C([H])([H])N(C(=O)[C@]1([H])N(C(=O)c2c([H])c([H])c3c(sc(=O)n3[H])c2C([H])([H])[H])C([H])([H])C([H])([H])C1([H])[H])C([H])=C([H])[H]


 29 31  0  0  0  0  0  0  0  0999 V2000
    8.7353   45.6409  131.4720 C   0  0  0  0  0  0  0  0  0  0  0  0
    9.3963   44.8389  130.7791 O   0  0  0  0  0  0  0  0  0  0  0  0
    8.6553   45.4650  132.8667 N   0  0  0  0  0  0  0  0  0  0  0  0
    7.8466   46.4252  133.7350 C   0  0  0  0  0  0  0  0  0  0  0  0
    8.9557   46.8301  134.6812 C   0  0  0  0  0  0  0  0  0  0  0  0
    9.8505   45.6144  134.7862 C   0  0  0  0  0  0  0  0  0  0  0  0
    9.1200   44.5855  133.8776 C   0  0  0  0  0  0  0  0  0  0  0  0
    9.8538   48.3030  131.5341 C   0  0  0  0  0  0  0  0  0  0  0  0
    8.5929   48.0158  130.8360 C   0  0  0  0  0  0  0  0  0  0  0  0
    8.0549   46.7546  130.8016 C   0  0  0  0  0  0  0  0  0  0  0  0
    6.8783   46.6057  130.1226 C   0  0  0  0  0  0  0  0  0  0  0  0
    6.2207   47.6261  129.4877 C   0  0  0  0  0  0  0  0  0  0  0  0
    6.7698   48.9275  129.5194 C   0  0  0  0  0  0  0  0  0  0  0  0
    6.2424   49.9978  128.9518 N   0  0  0  0  0  0  0  0  0  0  0  0
    6.8860   51.1574  129.0736 C   0  0  0  0  0  0  0  0  0  0  0  0
    6.5381   52.2987  128.5984 O   0  0  0  0  0  0  0  0  0  0  0  0
    8.2581   50.7460  130.0009 S   0  0  0  0  0  0  0  0  0  0  0  0
    7.9429   49.0862  130.1940 C   0  0  0  0  0  0  0  0  0  0  0  0
    5.3162   50.0155  128.3860 H   0  0  0  0  0  0  0  0  0  0  0  0
    9.9750   43.4653  133.5978 C   0  0  0  0  0  0  0  0  0  0  0  0
    9.6016   42.2822  133.6908 O   0  0  0  0  0  0  0  0  0  0  0  0
   11.3384   43.7527  133.1882 N   0  0  0  0  0  0  0  0  0  0  0  0
   11.8921   45.0246  133.0695 C   0  0  0  0  0  0  0  0  0  0  0  0
   12.4968   45.4765  131.9790 C   0  0  0  0  0  0  0  0  0  0  0  0
   12.1725   42.5881  132.8962 C   0  0  0  0  0  0  0  0  0  0  0  0
   11.5657   41.7476  131.8387 C   0  0  0  0  0  0  0  0  0  0  0  0
   11.4730   40.3813  132.0283 O   0  0  0  0  0  0  0  0  0  0  0  0
   11.1454   42.2719  130.7928 O   0  0  0  0  0  0  0  0  0  0  0  0
   12.2489   39.7655  131.7919 H   0  0  0  0  0  0  0  0  0  0  0  0
  8  9  1  0  0  0
  9 10  2  0  0  0
 10 11  1  0  0  0
 11 12  2  0  0  0
 12 13  1  0  0  0
 13 14  1  0  0  0
 14 15  1  0  0  0
 15 16  2  0  0  0
 15 17  1  0  0  0
 17 18  1  0  0  0
 10  1  1  0  0  0
  1  2  2  0  0  0
  1  3  1  0  0  0
  3  4  1  0  0  0
  4  5  1  0  0  0
  5  6  1  0  0  0
  6  7  1  0  0  0
  7 20  1  0  0  0
 20 21  2  0  0  0
 20 22  1  0  0  0
 22 25  1  0  0  0
 25 26  1  0  0  0
 26 27  1  0  0  0
 26 28  2  0  0  0
 22 23  1  0  0  0
 23 24  2  0  0  0
 18  9  1  0  0  0
  7  3  1  0  0  0
 18 13  2  0  0  0
 14 19  1  0  0  0
 27 29  1  0  0  0
M  END
> <minimizedAffinity>
-3.62409

> <CNNscore>
0.4518017173

> <CNNaffinity>
7.4234404564

> <CNN_VS>
3.3539230824

> <CNNaffinity_variance>
0.3733267188

$$$$
[H]OC(=O)C([H])([H])N(C(=O)[C@]1([H])N(C(=O)c2c([H])c([H])c3c(sc(=O)n3[H])c2C([H])([H])[H])C([H])([H])C([H])([H])C1([H])[H])C([H])=C([H])[H]


 29 31  0  0  0  0  0  0  0  0999 V2000
   10.0177   45.9765  131.5057 C   0  0  0  0  0  0  0  0  0  0  0  0
   10.7824   45.8014  130.5336 O   0  0  0  0  0  0  0  0  0  0  0  0
    9.1086   44.9670  131.8758 N   0  0  0  0  0  0  0  0  0  0  0  0
    8.1568   45.1596  133.0536 C   0  0  0  0  0  0  0  0  0  0  0  0
    8.5620   43.9367  133.8471 C   0  0  0  0  0  0  0  0  0  0  0  0
    8.9648   42.9086  132.8124 C   0  0  0  0  0  0  0  0  0  0  0  0
    8.7122   43.6649  131.4776 C   0  0  0  0  0  0  0  0  0  0  0  0
    8.8512   48.3824  130.4138 C   0  0  0  0  0  0  0  0  0  0  0  0
    9.5359   48.3826  131.7141 C   0  0  0  0  0  0  0  0  0  0  0  0
   10.0925   47.2446  132.2398 C   0  0  0  0  0  0  0  0  0  0  0  0
   10.7039   47.3638  133.4562 C   0  0  0  0  0  0  0  0  0  0  0  0
   10.7892   48.5335  134.1643 C   0  0  0  0  0  0  0  0  0  0  0  0
   10.2178   49.7092  133.6281 C   0  0  0  0  0  0  0  0  0  0  0  0
   10.2276   50.8991  134.2025 N   0  0  0  0  0  0  0  0  0  0  0  0
    9.6428   51.9115  133.5647 C   0  0  0  0  0  0  0  0  0  0  0  0
    9.5483   53.1315  133.9548 O   0  0  0  0  0  0  0  0  0  0  0  0
    9.0658   51.1877  132.1312 S   0  0  0  0  0  0  0  0  0  0  0  0
    9.6059   49.6005  132.4156 C   0  0  0  0  0  0  0  0  0  0  0  0
   10.6775   51.1278  135.1635 H   0  0  0  0  0  0  0  0  0  0  0  0
    9.3262   42.9689  130.3810 C   0  0  0  0  0  0  0  0  0  0  0  0
    9.9569   41.9050  130.5157 O   0  0  0  0  0  0  0  0  0  0  0  0
    9.1912   43.5553  129.0592 N   0  0  0  0  0  0  0  0  0  0  0  0
    8.5374   44.7504  128.7718 C   0  0  0  0  0  0  0  0  0  0  0  0
    7.4839   45.2037  129.4380 C   0  0  0  0  0  0  0  0  0  0  0  0
    9.8147   42.8098  127.9670 C   0  0  0  0  0  0  0  0  0  0  0  0
   11.1346   43.3814  127.6148 C   0  0  0  0  0  0  0  0  0  0  0  0
   11.7073   44.3271  128.4448 O   0  0  0  0  0  0  0  0  0  0  0  0
   11.7169   43.0102  126.5811 O   0  0  0  0  0  0  0  0  0  0  0  0
   11.4789   45.3150  128.3500 H   0  0  0  0  0  0  0  0  0  0  0  0
  8  9  1  0  0  0
  9 10  2  0  0  0
 10 11  1  0  0  0
 11 12  2  0  0  0
 12 13  1  0  0  0
 13 14  1  0  0  0
 14 15  1  0  0  0
 15 16  2  0  0  0
 15 17  1  0  0  0
 17 18  1  0  0  0
 10  1  1  0  0  0
  1  2  2  0  0  0
  1  3  1  0  0  0
  3  4  1  0  0  0
  4  5  1  0  0  0
  5  6  1  0  0  0
  6  7  1  0  0  0
  7 20  1  0  0  0
 20 21  2  0  0  0
 20 22  1  0  0  0
 22 25  1  0  0  0
 25 26  1  0  0  0
 26 27  1  0  0  0
 26 28  2  0  0  0
 22 23  1  0  0  0
 23 24  2  0  0  0
 18  9  1  0  0  0
  7  3  1  0  0  0
 18 13  2  0  0  0
 14 19  1  0  0  0
 27 29  1  0  0  0
M  END
> <minimizedAffinity>
10.89226

> <CNNscore>
0.4391928315

> <CNNaffinity>
6.7959008217

> <CNN_VS>
2.9847109318

> <CNNaffinity_variance>
1.1534569263

$$$$
[H]OC(=O)C([H])([H])N(C(=O)[C@]1([H])N(C(=O)c2c([H])c([H])c3c(sc(=O)n3[H])c2C([H])([H])[H])C([H])([H])C([H])([H])C1([H])[H])C([H])=C([H])[H]


 29 31  0  0  0  0  0  0  0  0999 V2000
   10.8511   44.9935  132.0254 C   0  0  0  0  0  0  0  0  0  0  0  0
   11.2867   44.9009  130.8584 O   0  0  0  0  0  0  0  0  0  0  0  0
    9.5720   44.4959  132.3400 N   0  0  0  0  0  0  0  0  0  0  0  0
    9.0125   44.6050  133.7560 C   0  0  0  0  0  0  0  0  0  0  0  0
    8.7327   43.1350  133.9800 C   0  0  0  0  0  0  0  0  0  0  0  0
    8.3849   42.5853  132.6138 C   0  0  0  0  0  0  0  0  0  0  0  0
    8.4751   43.8504  131.7144 C   0  0  0  0  0  0  0  0  0  0  0  0
   10.1766   47.5890  133.0977 C   0  0  0  0  0  0  0  0  0  0  0  0
   11.3697   46.8585  133.5477 C   0  0  0  0  0  0  0  0  0  0  0  0
   11.6972   45.6257  133.0438 C   0  0  0  0  0  0  0  0  0  0  0  0
   12.8295   45.0403  133.5365 C   0  0  0  0  0  0  0  0  0  0  0  0
   13.6384   45.6060  134.4866 C   0  0  0  0  0  0  0  0  0  0  0  0
   13.3064   46.8758  135.0096 C   0  0  0  0  0  0  0  0  0  0  0  0
   13.9953   47.5333  135.9256 N   0  0  0  0  0  0  0  0  0  0  0  0
   13.5478   48.7257  136.3152 C   0  0  0  0  0  0  0  0  0  0  0  0
   14.0717   49.5116  137.1855 O   0  0  0  0  0  0  0  0  0  0  0  0
   12.1341   48.9350  135.3829 S   0  0  0  0  0  0  0  0  0  0  0  0
   12.1791   47.4677  134.5246 C   0  0  0  0  0  0  0  0  0  0  0  0
   14.9081   47.1817  136.3960 H   0  0  0  0  0  0  0  0  0  0  0  0
    8.4817   43.4812  130.3260 C   0  0  0  0  0  0  0  0  0  0  0  0
    8.4978   42.3005  129.9341 O   0  0  0  0  0  0  0  0  0  0  0  0
    8.4692   44.5564  129.3498 N   0  0  0  0  0  0  0  0  0  0  0  0
    8.4774   45.9159  129.6495 C   0  0  0  0  0  0  0  0  0  0  0  0
    7.3888   46.6697  129.7271 C   0  0  0  0  0  0  0  0  0  0  0  0
    8.4594   44.1412  127.9480 C   0  0  0  0  0  0  0  0  0  0  0  0
    9.7687   43.5764  127.5486 C   0  0  0  0  0  0  0  0  0  0  0  0
   10.9022   44.3629  127.6382 O   0  0  0  0  0  0  0  0  0  0  0  0
    9.8413   42.4054  127.1377 O   0  0  0  0  0  0  0  0  0  0  0  0
   11.1674   44.9886  126.8797 H   0  0  0  0  0  0  0  0  0  0  0  0
  8  9  1  0  0  0
  9 10  2  0  0  0
 10 11  1  0  0  0
 11 12  2  0  0  0
 12 13  1  0  0  0
 13 14  1  0  0  0
 14 15  1  0  0  0
 15 16  2  0  0  0
 15 17  1  0  0  0
 17 18  1  0  0  0
 10  1  1  0  0  0
  1  2  2  0  0  0
  1  3  1  0  0  0
  3  4  1  0  0  0
  4  5  1  0  0  0
  5  6  1  0  0  0
  6  7  1  0  0  0
  7 20  1  0  0  0
 20 21  2  0  0  0
 20 22  1  0  0  0
 22 25  1  0  0  0
 25 26  1  0  0  0
 26 27  1  0  0  0
 26 28  2  0  0  0
 22 23  1  0  0  0
 23 24  2  0  0  0
 18  9  1  0  0  0
  7  3  1  0  0  0
 18 13  2  0  0  0
 14 19  1  0  0  0
 27 29  1  0  0  0
M  END
> <minimizedAffinity>
11.18445

> <CNNscore>
0.4315108657

> <CNNaffinity>
6.7095079422

> <CNN_VS>
2.8952255249

> <CNNaffinity_variance>
0.7869022489

$$$$
[H]OC(=O)C([H])([H])N(C(=O)[C@]1([H])N(C(=O)c2c([H])c([H])c3c(sc(=O)n3[H])c2C([H])([H])[H])C([H])([H])C([H])([H])C1([H])[H])C([H])=C([H])[H]


 29 31  0  0  0  0  0  0  0  0999 V2000
    9.7673   46.7174  131.4806 C   0  0  0  0  0  0  0  0  0  0  0  0
   10.3925   47.7411  131.1320 O   0  0  0  0  0  0  0  0  0  0  0  0
    8.4725   46.4802  130.9808 N   0  0  0  0  0  0  0  0  0  0  0  0
    7.6835   45.2420  131.3983 C   0  0  0  0  0  0  0  0  0  0  0  0
    7.4234   44.6880  130.0145 C   0  0  0  0  0  0  0  0  0  0  0  0
    7.3257   45.9005  129.1144 C   0  0  0  0  0  0  0  0  0  0  0  0
    7.5177   47.0738  130.1164 C   0  0  0  0  0  0  0  0  0  0  0  0
    8.9283   46.5751  134.2405 C   0  0  0  0  0  0  0  0  0  0  0  0
   10.0061   45.7221  133.7205 C   0  0  0  0  0  0  0  0  0  0  0  0
   10.4106   45.7834  132.4114 C   0  0  0  0  0  0  0  0  0  0  0  0
   11.4221   44.9430  132.0398 C   0  0  0  0  0  0  0  0  0  0  0  0
   12.0412   44.0611  132.8859 C   0  0  0  0  0  0  0  0  0  0  0  0
   11.6290   43.9932  134.2357 C   0  0  0  0  0  0  0  0  0  0  0  0
   12.1376   43.1918  135.1548 N   0  0  0  0  0  0  0  0  0  0  0  0
   11.6367   43.2489  136.3876 C   0  0  0  0  0  0  0  0  0  0  0  0
   11.9935   42.5577  137.4095 O   0  0  0  0  0  0  0  0  0  0  0  0
   10.4287   44.4475  136.2622 S   0  0  0  0  0  0  0  0  0  0  0  0
   10.6209   44.8273  134.6158 C   0  0  0  0  0  0  0  0  0  0  0  0
   12.9405   42.4799  134.9912 H   0  0  0  0  0  0  0  0  0  0  0  0
    7.7666   48.3011  129.4122 C   0  0  0  0  0  0  0  0  0  0  0  0
    7.7663   48.3876  128.1711 O   0  0  0  0  0  0  0  0  0  0  0  0
    8.0294   49.4861  130.2096 N   0  0  0  0  0  0  0  0  0  0  0  0
    8.0855   49.5245  131.6002 C   0  0  0  0  0  0  0  0  0  0  0  0
    8.9630   50.2388  132.2923 C   0  0  0  0  0  0  0  0  0  0  0  0
    8.2613   50.7186  129.4581 C   0  0  0  0  0  0  0  0  0  0  0  0
    7.0235   51.5255  129.3596 C   0  0  0  0  0  0  0  0  0  0  0  0
    6.7236   52.1647  128.1711 O   0  0  0  0  0  0  0  0  0  0  0  0
    6.2655   51.6231  130.3401 O   0  0  0  0  0  0  0  0  0  0  0  0
    7.1016   53.0869  127.9618 H   0  0  0  0  0  0  0  0  0  0  0  0
  8  9  1  0  0  0
  9 10  2  0  0  0
 10 11  1  0  0  0
 11 12  2  0  0  0
 12 13  1  0  0  0
 13 14  1  0  0  0
 14 15  1  0  0  0
 15 16  2  0  0  0
 15 17  1  0  0  0
 17 18  1  0  0  0
 10  1  1  0  0  0
  1  2  2  0  0  0
  1  3  1  0  0  0
  3  4  1  0  0  0
  4  5  1  0  0  0
  5  6  1  0  0  0
  6  7  1  0  0  0
  7 20  1  0  0  0
 20 21  2  0  0  0
 20 22  1  0  0  0
 22 25  1  0  0  0
 25 26  1  0  0  0
 26 27  1  0  0  0
 26 28  2  0  0  0
 22 23  1  0  0  0
 23 24  2  0  0  0
 18  9  1  0  0  0
  7  3  1  0  0  0
 18 13  2  0  0  0
 14 19  1  0  0  0
 27 29  1  0  0  0
M  END
> <minimizedAffinity>
2.53380

> <CNNscore>
0.3853939176

> <CNNaffinity>
7.1356482506

> <CNN_VS>
2.7500355244

> <CNNaffinity_variance>
1.1004586220

$$$$
[H]OC(=O)C([H])([H])N(C(=O)[C@]1([H])N(C(=O)c2c([H])c([H])c3c(sc(=O)n3[H])c2C([H])([H])[H])C([H])([H])C([H])([H])C1([H])[H])C([H])=C([H])[H]


 29 31  0  0  0  0  0  0  0  0999 V2000
   10.1829   43.7623  132.0784 C   0  0  0  0  0  0  0  0  0  0  0  0
   10.2067   43.3509  130.8992 O   0  0  0  0  0  0  0  0  0  0  0  0
   11.2864   44.4637  132.6006 N   0  0  0  0  0  0  0  0  0  0  0  0
   11.2866   44.9688  134.0411 C   0  0  0  0  0  0  0  0  0  0  0  0
   11.5485   46.4296  133.7465 C   0  0  0  0  0  0  0  0  0  0  0  0
   12.3990   46.4350  132.4949 C   0  0  0  0  0  0  0  0  0  0  0  0
   12.5701   44.9173  132.2037 C   0  0  0  0  0  0  0  0  0  0  0  0
    8.5645   45.9384  133.0716 C   0  0  0  0  0  0  0  0  0  0  0  0
    8.2275   44.5372  133.3592 C   0  0  0  0  0  0  0  0  0  0  0  0
    8.9906   43.4980  132.8914 C   0  0  0  0  0  0  0  0  0  0  0  0
    8.5813   42.2366  133.2216 C   0  0  0  0  0  0  0  0  0  0  0  0
    7.4734   41.9594  133.9784 C   0  0  0  0  0  0  0  0  0  0  0  0
    6.6833   43.0257  134.4632 C   0  0  0  0  0  0  0  0  0  0  0  0
    5.5941   42.9010  135.2007 N   0  0  0  0  0  0  0  0  0  0  0  0
    4.9593   44.0089  135.5793 C   0  0  0  0  0  0  0  0  0  0  0  0
    3.8941   44.0954  136.2916 O   0  0  0  0  0  0  0  0  0  0  0  0
    5.9026   45.2531  134.8909 S   0  0  0  0  0  0  0  0  0  0  0  0
    7.0833   44.2872  134.1393 C   0  0  0  0  0  0  0  0  0  0  0  0
    5.1644   41.9604  135.5306 H   0  0  0  0  0  0  0  0  0  0  0  0
   13.0889   44.7145  130.8794 C   0  0  0  0  0  0  0  0  0  0  0  0
   14.2572   44.3522  130.6524 O   0  0  0  0  0  0  0  0  0  0  0  0
   12.1865   44.9507  129.7662 N   0  0  0  0  0  0  0  0  0  0  0  0
   10.8675   45.3824  129.8767 C   0  0  0  0  0  0  0  0  0  0  0  0
   10.3318   46.3425  129.1347 C   0  0  0  0  0  0  0  0  0  0  0  0
   12.7453   44.7177  128.4354 C   0  0  0  0  0  0  0  0  0  0  0  0
   14.1952   44.4256  128.5081 C   0  0  0  0  0  0  0  0  0  0  0  0
   15.1039   45.4404  128.2721 O   0  0  0  0  0  0  0  0  0  0  0  0
   14.5850   43.2768  128.7794 O   0  0  0  0  0  0  0  0  0  0  0  0
   15.4019   45.6676  127.3251 H   0  0  0  0  0  0  0  0  0  0  0  0
  8  9  1  0  0  0
  9 10  2  0  0  0
 10 11  1  0  0  0
 11 12  2  0  0  0
 12 13  1  0  0  0
 13 14  1  0  0  0
 14 15  1  0  0  0
 15 16  2  0  0  0
 15 17  1  0  0  0
 17 18  1  0  0  0
 10  1  1  0  0  0
  1  2  2  0  0  0
  1  3  1  0  0  0
  3  4  1  0  0  0
  4  5  1  0  0  0
  5  6  1  0  0  0
  6  7  1  0  0  0
  7 20  1  0  0  0
 20 21  2  0  0  0
 20 22  1  0  0  0
 22 25  1  0  0  0
 25 26  1  0  0  0
 26 27  1  0  0  0
 26 28  2  0  0  0
 22 23  1  0  0  0
 23 24  2  0  0  0
 18  9  1  0  0  0
  7  3  1  0  0  0
 18 13  2  0  0  0
 14 19  1  0  0  0
 27 29  1  0  0  0
M  END
> <minimizedAffinity>
28.91346

> <CNNscore>
0.3643584847

> <CNNaffinity>
6.3706789017

> <CNN_VS>
2.3212108612

> <CNNaffinity_variance>
0.8001141548

$$$$
[H]OC(=O)C([H])([H])N(C(=O)[C@]1([H])N(C(=O)c2c([H])c([H])c3c(sc(=O)n3[H])c2C([H])([H])[H])C([H])([H])C([H])([H])C1([H])[H])C([H])=C([H])[H]


 29 31  0  0  0  0  0  0  0  0999 V2000
    8.6105   47.2532  132.2130 C   0  0  0  0  0  0  0  0  0  0  0  0
    7.5708   46.8407  131.6569 O   0  0  0  0  0  0  0  0  0  0  0  0
    9.2559   48.4073  131.7293 N   0  0  0  0  0  0  0  0  0  0  0  0
   10.5328   48.9269  132.3848 C   0  0  0  0  0  0  0  0  0  0  0  0
   10.0515   50.3287  132.6894 C   0  0  0  0  0  0  0  0  0  0  0  0
    9.0745   50.6613  131.5827 C   0  0  0  0  0  0  0  0  0  0  0  0
    9.1182   49.3786  130.7051 C   0  0  0  0  0  0  0  0  0  0  0  0
   10.5198   45.1165  131.8518 C   0  0  0  0  0  0  0  0  0  0  0  0
   10.0386   45.4990  133.1867 C   0  0  0  0  0  0  0  0  0  0  0  0
    9.1321   46.5124  133.3670 C   0  0  0  0  0  0  0  0  0  0  0  0
    8.7564   46.7805  134.6533 C   0  0  0  0  0  0  0  0  0  0  0  0
    9.2261   46.1063  135.7495 C   0  0  0  0  0  0  0  0  0  0  0  0
   10.1601   45.0614  135.5703 C   0  0  0  0  0  0  0  0  0  0  0  0
   10.6920   44.3326  136.5357 N   0  0  0  0  0  0  0  0  0  0  0  0
   11.5615   43.3810  136.2006 C   0  0  0  0  0  0  0  0  0  0  0  0
   12.1804   42.5753  136.9863 O   0  0  0  0  0  0  0  0  0  0  0  0
   11.6393   43.5052  134.5006 S   0  0  0  0  0  0  0  0  0  0  0  0
   10.5410   44.7865  134.2914 C   0  0  0  0  0  0  0  0  0  0  0  0
   10.4794   44.4429  137.5944 H   0  0  0  0  0  0  0  0  0  0  0  0
    8.0267   49.3709  129.7709 C   0  0  0  0  0  0  0  0  0  0  0  0
    7.2621   50.3384  129.6071 O   0  0  0  0  0  0  0  0  0  0  0  0
    7.8253   48.1627  128.9904 N   0  0  0  0  0  0  0  0  0  0  0  0
    8.5877   47.0022  129.0921 C   0  0  0  0  0  0  0  0  0  0  0  0
    9.8254   46.8796  128.6315 C   0  0  0  0  0  0  0  0  0  0  0  0
    6.7158   48.1990  128.0390 C   0  0  0  0  0  0  0  0  0  0  0  0
    5.4115   48.1229  128.7359 C   0  0  0  0  0  0  0  0  0  0  0  0
    4.7121   49.2870  128.9948 O   0  0  0  0  0  0  0  0  0  0  0  0
    4.9550   47.0196  129.0820 O   0  0  0  0  0  0  0  0  0  0  0  0
    4.8996   49.8361  129.8318 H   0  0  0  0  0  0  0  0  0  0  0  0
  8  9  1  0  0  0
  9 10  2  0  0  0
 10 11  1  0  0  0
 11 12  2  0  0  0
 12 13  1  0  0  0
 13 14  1  0  0  0
 14 15  1  0  0  0
 15 16  2  0  0  0
 15 17  1  0  0  0
 17 18  1  0  0  0
 10  1  1  0  0  0
  1  2  2  0  0  0
  1  3  1  0  0  0
  3  4  1  0  0  0
  4  5  1  0  0  0
  5  6  1  0  0  0
  6  7  1  0  0  0
  7 20  1  0  0  0
 20 21  2  0  0  0
 20 22  1  0  0  0
 22 25  1  0  0  0
 25 26  1  0  0  0
 26 27  1  0  0  0
 26 28  2  0  0  0
 22 23  1  0  0  0
 23 24  2  0  0  0
 18  9  1  0  0  0
  7  3  1  0  0  0
 18 13  2  0  0  0
 14 19  1  0  0  0
 27 29  1  0  0  0
M  END
> <minimizedAffinity>
1.23609

> <CNNscore>
0.3510946929

> <CNNaffinity>
6.7700471878

> <CNN_VS>
2.3769276142

> <CNNaffinity_variance>
0.2428129166

$$$$
[H]c1c([H])c([H])c(C([H])([H])C([H])([H])C23C([H])([H])OC(=O)C2([H])c2c([H])c([N+](=O)[O-])c([H])c([H])c2C3([H])[H])c([H])c1[H]


 24 27  0  0  0  0  0  0  0  0999 V2000
    6.8459   49.4336  129.5163 C   0  0  0  0  0  0  0  0  0  0  0  0
    5.8120   48.6515  129.0423 C   0  0  0  0  0  0  0  0  0  0  0  0
    5.9406   47.2869  128.9842 C   0  0  0  0  0  0  0  0  0  0  0  0
    7.1291   46.7177  129.4115 C   0  0  0  0  0  0  0  0  0  0  0  0
    7.5217   45.3059  129.4483 C   0  0  0  0  0  0  0  0  0  0  0  0
    8.5515   45.2675  130.5369 C   0  0  0  0  0  0  0  0  0  0  0  0
    8.0071   45.5019  131.9081 C   0  0  0  0  0  0  0  0  0  0  0  0
    9.0570   46.2553  132.5310 O   0  0  0  0  0  0  0  0  0  0  0  0
    9.7734   46.9650  131.6028 C   0  0  0  0  0  0  0  0  0  0  0  0
   10.6569   47.8163  131.8777 O   0  0  0  0  0  0  0  0  0  0  0  0
    9.3154   46.5437  130.2737 C   0  0  0  0  0  0  0  0  0  0  0  0
    8.1824   47.4607  129.8904 C   0  0  0  0  0  0  0  0  0  0  0  0
    8.0184   48.8271  129.9344 C   0  0  0  0  0  0  0  0  0  0  0  0
    7.0096   51.6205  128.5005 O   0  0  0  0  0  0  0  0  0  0  0  0
    6.6597   50.8313  129.5539 N   0  0  0  0  0  0  0  0  0  0  0  0
    6.1683   51.3534  130.5637 O   0  0  0  0  0  0  0  0  0  0  0  0
    9.3834   44.0402  130.3937 C   0  0  0  0  0  0  0  0  0  0  0  0
    9.2906   43.2468  131.6598 C   0  0  0  0  0  0  0  0  0  0  0  0
   10.3805   43.4843  132.6143 C   0  0  0  0  0  0  0  0  0  0  0  0
   11.6164   43.8144  132.0971 C   0  0  0  0  0  0  0  0  0  0  0  0
   12.7193   44.0611  132.9012 C   0  0  0  0  0  0  0  0  0  0  0  0
   12.5581   43.9690  134.2587 C   0  0  0  0  0  0  0  0  0  0  0  0
   11.3202   43.6381  134.7831 C   0  0  0  0  0  0  0  0  0  0  0  0
   10.2412   43.3976  133.9772 C   0  0  0  0  0  0  0  0  0  0  0  0
 14 15  1  0  0  0
 15 16  2  0  0  0
 15  1  1  0  0  0
  1  2  2  0  0  0
  2  3  1  0  0  0
  3  4  2  0  0  0
  4  5  1  0  0  0
  5  6  1  0  0  0
  6 17  1  0  0  0
 17 18  1  0  0  0
 18 19  1  0  0  0
 19 20  2  0  0  0
 20 21  1  0  0  0
 21 22  2  0  0  0
 22 23  1  0  0  0
 23 24  2  0  0  0
  6  7  1  0  0  0
  7  8  1  0  0  0
  8  9  1  0  0  0
  9 10  2  0  0  0
  9 11  1  0  0  0
 11 12  1  0  0  0
 12 13  2  0  0  0
 13  1  1  0  0  0
 12  4  1  0  0  0
 11  6  1  0  0  0
 24 19  1  0  0  0
M  CHG 1  14  -1
M  CHG 1  15   1
M  END
> <minimizedAffinity>
-6.79772

> <CNNscore>
0.4557219744

> <CNNaffinity>
7.0974397659

> <CNN_VS>
3.2344591618

> <CNNaffinity_variance>
0.5096181631

$$$$
[H]c1c([H])c([H])c(C([H])([H])C([H])([H])C23C([H])([H])OC(=O)C2([H])c2c([H])c([N+](=O)[O-])c([H])c([H])c2C3([H])[H])c([H])c1[H]


 24 27  0  0  0  0  0  0  0  0999 V2000
   10.0258   43.9246  128.9023 C   0  0  0  0  0  0  0  0  0  0  0  0
   11.0785   44.7925  128.6924 C   0  0  0  0  0  0  0  0  0  0  0  0
   11.5209   45.6085  129.7025 C   0  0  0  0  0  0  0  0  0  0  0  0
   10.8868   45.5390  130.9322 C   0  0  0  0  0  0  0  0  0  0  0  0
   11.1552   46.2947  132.1592 C   0  0  0  0  0  0  0  0  0  0  0  0
   10.6468   45.3853  133.2369 C   0  0  0  0  0  0  0  0  0  0  0  0
   11.4527   44.1414  133.4239 C   0  0  0  0  0  0  0  0  0  0  0  0
   10.4463   43.1667  133.7322 O   0  0  0  0  0  0  0  0  0  0  0  0
    9.2423   43.5055  133.1718 C   0  0  0  0  0  0  0  0  0  0  0  0
    8.2244   42.7675  133.1605 O   0  0  0  0  0  0  0  0  0  0  0  0
    9.3798   44.8540  132.6095 C   0  0  0  0  0  0  0  0  0  0  0  0
    9.8355   44.6886  131.1824 C   0  0  0  0  0  0  0  0  0  0  0  0
    9.4179   43.8844  130.1458 C   0  0  0  0  0  0  0  0  0  0  0  0
    8.5274   43.4322  127.0712 O   0  0  0  0  0  0  0  0  0  0  0  0
    9.6119   43.1087  127.8288 N   0  0  0  0  0  0  0  0  0  0  0  0
   10.2458   42.0772  127.5680 O   0  0  0  0  0  0  0  0  0  0  0  0
   10.4070   46.1702  134.4800 C   0  0  0  0  0  0  0  0  0  0  0  0
   10.9607   47.5483  134.2920 C   0  0  0  0  0  0  0  0  0  0  0  0
   12.1856   47.8266  135.0520 C   0  0  0  0  0  0  0  0  0  0  0  0
   13.2570   46.9782  134.8618 C   0  0  0  0  0  0  0  0  0  0  0  0
   14.4645   47.1421  135.5244 C   0  0  0  0  0  0  0  0  0  0  0  0
   14.5808   48.1915  136.3975 C   0  0  0  0  0  0  0  0  0  0  0  0
   13.5090   49.0459  136.5922 C   0  0  0  0  0  0  0  0  0  0  0  0
   12.3239   48.8716  135.9313 C   0  0  0  0  0  0  0  0  0  0  0  0
 14 15  1  0  0  0
 15 16  2  0  0  0
 15  1  1  0  0  0
  1  2  2  0  0  0
  2  3  1  0  0  0
  3  4  2  0  0  0
  4  5  1  0  0  0
  5  6  1  0  0  0
  6 17  1  0  0  0
 17 18  1  0  0  0
 18 19  1  0  0  0
 19 20  2  0  0  0
 20 21  1  0  0  0
 21 22  2  0  0  0
 22 23  1  0  0  0
 23 24  2  0  0  0
  6  7  1  0  0  0
  7  8  1  0  0  0
  8  9  1  0  0  0
  9 10  2  0  0  0
  9 11  1  0  0  0
 11 12  1  0  0  0
 12 13  2  0  0  0
 13  1  1  0  0  0
 12  4  1  0  0  0
 11  6  1  0  0  0
 24 19  1  0  0  0
M  CHG 1  14  -1
M  CHG 1  15   1
M  END
> <minimizedAffinity>
7.95645

> <CNNscore>
0.4223769903

> <CNNaffinity>
6.5816330910

> <CNN_VS>
2.7799303532

> <CNNaffinity_variance>
0.6120268703

$$$$
[H]c1c([H])c([H])c(C([H])([H])C([H])([H])C23C([H])([H])OC(=O)C2([H])c2c([H])c([N+](=O)[O-])c([H])c([H])c2C3([H])[H])c([H])c1[H]


 24 27  0  0  0  0  0  0  0  0999 V2000
    7.4262   49.6721  129.8319 C   0  0  0  0  0  0  0  0  0  0  0  0
    7.1665   48.5942  129.0096 C   0  0  0  0  0  0  0  0  0  0  0  0
    7.9411   47.4640  129.0768 C   0  0  0  0  0  0  0  0  0  0  0  0
    8.9853   47.4331  129.9866 C   0  0  0  0  0  0  0  0  0  0  0  0
    9.9541   46.3656  130.2520 C   0  0  0  0  0  0  0  0  0  0  0  0
   10.3642   46.6233  131.6706 C   0  0  0  0  0  0  0  0  0  0  0  0
    9.2923   46.3639  132.6782 C   0  0  0  0  0  0  0  0  0  0  0  0
    9.5208   47.4000  133.6437 O   0  0  0  0  0  0  0  0  0  0  0  0
   10.1069   48.4949  133.0639 C   0  0  0  0  0  0  0  0  0  0  0  0
   10.2920   49.5974  133.6395 O   0  0  0  0  0  0  0  0  0  0  0  0
   10.4604   48.1306  131.6870 C   0  0  0  0  0  0  0  0  0  0  0  0
    9.2772   48.4847  130.8232 C   0  0  0  0  0  0  0  0  0  0  0  0
    8.4792   49.6028  130.7285 C   0  0  0  0  0  0  0  0  0  0  0  0
    6.8311   51.7644  128.7787 O   0  0  0  0  0  0  0  0  0  0  0  0
    6.5982   50.8086  129.7206 N   0  0  0  0  0  0  0  0  0  0  0  0
    5.6398   50.9421  130.4936 O   0  0  0  0  0  0  0  0  0  0  0  0
   11.6614   45.9450  131.9460 C   0  0  0  0  0  0  0  0  0  0  0  0
   11.4524   44.4641  131.8798 C   0  0  0  0  0  0  0  0  0  0  0  0
   10.8852   43.9802  130.6151 C   0  0  0  0  0  0  0  0  0  0  0  0
   11.5670   44.2867  129.4553 C   0  0  0  0  0  0  0  0  0  0  0  0
   11.1271   43.8835  128.2032 C   0  0  0  0  0  0  0  0  0  0  0  0
    9.9696   43.1539  128.1332 C   0  0  0  0  0  0  0  0  0  0  0  0
    9.2813   42.8434  129.2938 C   0  0  0  0  0  0  0  0  0  0  0  0
    9.7277   43.2482  130.5220 C   0  0  0  0  0  0  0  0  0  0  0  0
 14 15  1  0  0  0
 15 16  2  0  0  0
 15  1  1  0  0  0
  1  2  2  0  0  0
  2  3  1  0  0  0
  3  4  2  0  0  0
  4  5  1  0  0  0
  5  6  1  0  0  0
  6 17  1  0  0  0
 17 18  1  0  0  0
 18 19  1  0  0  0
 19 20  2  0  0  0
 20 21  1  0  0  0
 21 22  2  0  0  0
 22 23  1  0  0  0
 23 24  2  0  0  0
  6  7  1  0  0  0
  7  8  1  0  0  0
  8  9  1  0  0  0
  9 10  2  0  0  0
  9 11  1  0  0  0
 11 12  1  0  0  0
 12 13  2  0  0  0
 13  1  1  0  0  0
 12  4  1  0  0  0
 11  6  1  0  0  0
 24 19  1  0  0  0
M  CHG 1  14  -1
M  CHG 1  15   1
M  END
> <minimizedAffinity>
-9.14044

> <CNNscore>
0.4163724184

> <CNNaffinity>
6.8334617615

> <CNN_VS>
2.8452649117

> <CNNaffinity_variance>
0.1453810483

$$$$
[H]c1c([H])c([H])c(C([H])([H])C([H])([H])C23C([H])([H])OC(=O)C2([H])c2c([H])c([N+](=O)[O-])c([H])c([H])c2C3([H])[H])c([H])c1[H]


 24 27  0  0  0  0  0  0  0  0999 V2000
    7.3259   49.6206  129.7755 C   0  0  0  0  0  0  0  0  0  0  0  0
    7.0339   48.4852  129.0468 C   0  0  0  0  0  0  0  0  0  0  0  0
    7.8041   47.3574  129.1755 C   0  0  0  0  0  0  0  0  0  0  0  0
    8.8770   47.3878  130.0515 C   0  0  0  0  0  0  0  0  0  0  0  0
    9.8481   46.3360  130.3668 C   0  0  0  0  0  0  0  0  0  0  0  0
   10.3051   46.6980  131.7478 C   0  0  0  0  0  0  0  0  0  0  0  0
    9.2648   46.5246  132.8058 C   0  0  0  0  0  0  0  0  0  0  0  0
    9.5300   47.6295  133.6815 O   0  0  0  0  0  0  0  0  0  0  0  0
   10.1030   48.6723  133.0014 C   0  0  0  0  0  0  0  0  0  0  0  0
   10.3126   49.8140  133.4848 O   0  0  0  0  0  0  0  0  0  0  0  0
   10.4099   48.2012  131.6458 C   0  0  0  0  0  0  0  0  0  0  0  0
    9.2014   48.4978  130.7955 C   0  0  0  0  0  0  0  0  0  0  0  0
    8.4068   49.6116  130.6409 C   0  0  0  0  0  0  0  0  0  0  0  0
    6.8047   51.7177  128.6931 O   0  0  0  0  0  0  0  0  0  0  0  0
    6.5009   50.7518  129.6040 N   0  0  0  0  0  0  0  0  0  0  0  0
    5.4795   50.8711  130.2941 O   0  0  0  0  0  0  0  0  0  0  0  0
   11.6068   46.0324  132.0330 C   0  0  0  0  0  0  0  0  0  0  0  0
   11.3372   44.6806  132.6170 C   0  0  0  0  0  0  0  0  0  0  0  0
   10.4357   43.8374  131.8224 C   0  0  0  0  0  0  0  0  0  0  0  0
    9.2280   43.4878  132.3908 C   0  0  0  0  0  0  0  0  0  0  0  0
    8.2969   42.6958  131.7353 C   0  0  0  0  0  0  0  0  0  0  0  0
    8.6039   42.2522  130.4759 C   0  0  0  0  0  0  0  0  0  0  0  0
    9.8143   42.5999  129.9006 C   0  0  0  0  0  0  0  0  0  0  0  0
   10.7230   43.3820  130.5596 C   0  0  0  0  0  0  0  0  0  0  0  0
 14 15  1  0  0  0
 15 16  2  0  0  0
 15  1  1  0  0  0
  1  2  2  0  0  0
  2  3  1  0  0  0
  3  4  2  0  0  0
  4  5  1  0  0  0
  5  6  1  0  0  0
  6 17  1  0  0  0
 17 18  1  0  0  0
 18 19  1  0  0  0
 19 20  2  0  0  0
 20 21  1  0  0  0
 21 22  2  0  0  0
 22 23  1  0  0  0
 23 24  2  0  0  0
  6  7  1  0  0  0
  7  8  1  0  0  0
  8  9  1  0  0  0
  9 10  2  0  0  0
  9 11  1  0  0  0
 11 12  1  0  0  0
 12 13  2  0  0  0
 13  1  1  0  0  0
 12  4  1  0  0  0
 11  6  1  0  0  0
 24 19  1  0  0  0
M  CHG 1  14  -1
M  CHG 1  15   1
M  END
> <minimizedAffinity>
-8.11363

> <CNNscore>
0.4149316847

> <CNNaffinity>
7.0746383667

> <CNN_VS>
2.9354915619

> <CNNaffinity_variance>
0.4045142233

$$$$
[H]c1c([H])c([H])c(C([H])([H])C([H])([H])C23C([H])([H])OC(=O)C2([H])c2c([H])c([N+](=O)[O-])c([H])c([H])c2C3([H])[H])c([H])c1[H]


 24 27  0  0  0  0  0  0  0  0999 V2000
    7.2521   48.7112  130.1362 C   0  0  0  0  0  0  0  0  0  0  0  0
    6.4170   47.6831  129.7477 C   0  0  0  0  0  0  0  0  0  0  0  0
    6.6729   46.3927  130.1368 C   0  0  0  0  0  0  0  0  0  0  0  0
    7.7856   46.1500  130.9257 C   0  0  0  0  0  0  0  0  0  0  0  0
    8.2817   44.8808  131.4657 C   0  0  0  0  0  0  0  0  0  0  0  0
    9.0510   45.3053  132.6801 C   0  0  0  0  0  0  0  0  0  0  0  0
    8.2046   45.8363  133.7907 C   0  0  0  0  0  0  0  0  0  0  0  0
    9.0255   46.8818  134.3300 O   0  0  0  0  0  0  0  0  0  0  0  0
    9.8615   47.3965  133.3736 C   0  0  0  0  0  0  0  0  0  0  0  0
   10.5874   48.4115  133.5277 O   0  0  0  0  0  0  0  0  0  0  0  0
    9.7401   46.5525  132.1792 C   0  0  0  0  0  0  0  0  0  0  0  0
    8.6418   47.1453  131.3343 C   0  0  0  0  0  0  0  0  0  0  0  0
    8.3544   48.4282  130.9251 C   0  0  0  0  0  0  0  0  0  0  0  0
    6.0412   50.7887  130.3791 O   0  0  0  0  0  0  0  0  0  0  0  0
    6.9417   50.0187  129.7074 N   0  0  0  0  0  0  0  0  0  0  0  0
    7.4979   50.4777  128.7006 O   0  0  0  0  0  0  0  0  0  0  0  0
    9.9973   44.2247  133.0743 C   0  0  0  0  0  0  0  0  0  0  0  0
   11.1984   44.2895  132.1830 C   0  0  0  0  0  0  0  0  0  0  0  0
   10.9198   44.0609  130.7599 C   0  0  0  0  0  0  0  0  0  0  0  0
   11.4594   44.9532  129.8562 C   0  0  0  0  0  0  0  0  0  0  0  0
   11.2640   44.8383  128.4878 C   0  0  0  0  0  0  0  0  0  0  0  0
   10.5035   43.7933  128.0330 C   0  0  0  0  0  0  0  0  0  0  0  0
    9.9596   42.8950  128.9352 C   0  0  0  0  0  0  0  0  0  0  0  0
   10.1611   43.0212  130.2825 C   0  0  0  0  0  0  0  0  0  0  0  0
 14 15  1  0  0  0
 15 16  2  0  0  0
 15  1  1  0  0  0
  1  2  2  0  0  0
  2  3  1  0  0  0
  3  4  2  0  0  0
  4  5  1  0  0  0
  5  6  1  0  0  0
  6 17  1  0  0  0
 17 18  1  0  0  0
 18 19  1  0  0  0
 19 20  2  0  0  0
 20 21  1  0  0  0
 21 22  2  0  0  0
 22 23  1  0  0  0
 23 24  2  0  0  0
  6  7  1  0  0  0
  7  8  1  0  0  0
  8  9  1  0  0  0
  9 10  2  0  0  0
  9 11  1  0  0  0
 11 12  1  0  0  0
 12 13  2  0  0  0
 13  1  1  0  0  0
 12  4  1  0  0  0
 11  6  1  0  0  0
 24 19  1  0  0  0
M  CHG 1  14  -1
M  CHG 1  15   1
M  END
> <minimizedAffinity>
-9.57962

> <CNNscore>
0.4053621292

> <CNNaffinity>
6.9186058044

> <CNN_VS>
2.8045408726

> <CNNaffinity_variance>
0.0803101882

$$$$
[H]c1c([H])c([H])c(C([H])([H])C([H])([H])C23C([H])([H])OC(=O)C2([H])c2c([H])c([N+](=O)[O-])c([H])c([H])c2C3([H])[H])c([H])c1[H]


 24 27  0  0  0  0  0  0  0  0999 V2000
    9.9006   45.1745  127.9716 C   0  0  0  0  0  0  0  0  0  0  0  0
    8.7483   45.5240  128.6466 C   0  0  0  0  0  0  0  0  0  0  0  0
    8.6245   45.2739  129.9897 C   0  0  0  0  0  0  0  0  0  0  0  0
    9.6808   44.6646  130.6473 C   0  0  0  0  0  0  0  0  0  0  0  0
    9.8016   44.2860  132.0582 C   0  0  0  0  0  0  0  0  0  0  0  0
   11.2830   44.2923  132.2864 C   0  0  0  0  0  0  0  0  0  0  0  0
   11.9063   45.6494  132.2470 C   0  0  0  0  0  0  0  0  0  0  0  0
   13.1715   45.3885  131.6232 O   0  0  0  0  0  0  0  0  0  0  0  0
   13.1005   44.2945  130.8007 C   0  0  0  0  0  0  0  0  0  0  0  0
   14.0160   43.9219  130.0235 O   0  0  0  0  0  0  0  0  0  0  0  0
   11.7876   43.6715  131.0054 C   0  0  0  0  0  0  0  0  0  0  0  0
   10.8449   44.3011  130.0122 C   0  0  0  0  0  0  0  0  0  0  0  0
   10.9344   44.5671  128.6642 C   0  0  0  0  0  0  0  0  0  0  0  0
   10.3658   46.6777  126.1372 O   0  0  0  0  0  0  0  0  0  0  0  0
    9.9740   45.4549  126.5912 N   0  0  0  0  0  0  0  0  0  0  0  0
    9.6770   44.5731  125.7738 O   0  0  0  0  0  0  0  0  0  0  0  0
   11.6045   43.4895  133.4993 C   0  0  0  0  0  0  0  0  0  0  0  0
   11.4735   44.3674  134.7048 C   0  0  0  0  0  0  0  0  0  0  0  0
   10.4674   45.4297  134.5841 C   0  0  0  0  0  0  0  0  0  0  0  0
    9.1411   45.0617  134.6810 C   0  0  0  0  0  0  0  0  0  0  0  0
    8.1042   45.9777  134.5826 C   0  0  0  0  0  0  0  0  0  0  0  0
    8.4267   47.2940  134.3814 C   0  0  0  0  0  0  0  0  0  0  0  0
    9.7559   47.6689  134.2833 C   0  0  0  0  0  0  0  0  0  0  0  0
   10.7681   46.7538  134.3825 C   0  0  0  0  0  0  0  0  0  0  0  0
 14 15  1  0  0  0
 15 16  2  0  0  0
 15  1  1  0  0  0
  1  2  2  0  0  0
  2  3  1  0  0  0
  3  4  2  0  0  0
  4  5  1  0  0  0
  5  6  1  0  0  0
  6 17  1  0  0  0
 17 18  1  0  0  0
 18 19  1  0  0  0
 19 20  2  0  0  0
 20 21  1  0  0  0
 21 22  2  0  0  0
 22 23  1  0  0  0
 23 24  2  0  0  0
  6  7  1  0  0  0
  7  8  1  0  0  0
  8  9  1  0  0  0
  9 10  2  0  0  0
  9 11  1  0  0  0
 11 12  1  0  0  0
 12 13  2  0  0  0
 13  1  1  0  0  0
 12  4  1  0  0  0
 11  6  1  0  0  0
 24 19  1  0  0  0
M  CHG 1  14  -1
M  CHG 1  15   1
M  END
> <minimizedAffinity>
2.96707

> <CNNscore>
0.3495918810

> <CNNaffinity>
6.7436704636

> <CNN_VS>
2.3575325012

> <CNNaffinity_variance>
0.8954526782

$$$$
[H]c1c([H])c([H])c(C([H])([H])C([H])([H])C23C([H])([H])OC(=O)C2([H])c2c([H])c([N+](=O)[O-])c([H])c([H])c2C3([H])[H])c([H])c1[H]


 24 27  0  0  0  0  0  0  0  0999 V2000
    9.5899   48.5269  132.7057 C   0  0  0  0  0  0  0  0  0  0  0  0
    8.5800   48.2470  133.6041 C   0  0  0  0  0  0  0  0  0  0  0  0
    8.3267   46.9544  133.9873 C   0  0  0  0  0  0  0  0  0  0  0  0
    9.1070   45.9427  133.4518 C   0  0  0  0  0  0  0  0  0  0  0  0
    9.0420   44.4972  133.6862 C   0  0  0  0  0  0  0  0  0  0  0  0
   10.4383   44.0410  133.3876 C   0  0  0  0  0  0  0  0  0  0  0  0
   11.4600   44.4975  134.3773 C   0  0  0  0  0  0  0  0  0  0  0  0
   12.6029   44.7462  133.5467 O   0  0  0  0  0  0  0  0  0  0  0  0
   12.2243   45.0787  132.2721 C   0  0  0  0  0  0  0  0  0  0  0  0
   13.0068   45.4824  131.3746 O   0  0  0  0  0  0  0  0  0  0  0  0
   10.7743   44.8747  132.1738 C   0  0  0  0  0  0  0  0  0  0  0  0
   10.1222   46.1790  132.5548 C   0  0  0  0  0  0  0  0  0  0  0  0
   10.3482   47.4880  132.1926 C   0  0  0  0  0  0  0  0  0  0  0  0
    9.9799   50.8390  133.2915 O   0  0  0  0  0  0  0  0  0  0  0  0
    9.8066   49.8736  132.3465 N   0  0  0  0  0  0  0  0  0  0  0  0
    9.8406   50.1867  131.1488 O   0  0  0  0  0  0  0  0  0  0  0  0
   10.4376   42.5762  133.1172 C   0  0  0  0  0  0  0  0  0  0  0  0
    9.3352   42.2666  132.1528 C   0  0  0  0  0  0  0  0  0  0  0  0
    9.4894   42.8784  130.8273 C   0  0  0  0  0  0  0  0  0  0  0  0
    8.4349   43.6282  130.3478 C   0  0  0  0  0  0  0  0  0  0  0  0
    8.4665   44.2531  129.1099 C   0  0  0  0  0  0  0  0  0  0  0  0
    9.5955   44.1102  128.3468 C   0  0  0  0  0  0  0  0  0  0  0  0
   10.6566   43.3590  128.8229 C   0  0  0  0  0  0  0  0  0  0  0  0
   10.6108   42.7484  130.0463 C   0  0  0  0  0  0  0  0  0  0  0  0
 14 15  1  0  0  0
 15 16  2  0  0  0
 15  1  1  0  0  0
  1  2  2  0  0  0
  2  3  1  0  0  0
  3  4  2  0  0  0
  4  5  1  0  0  0
  5  6  1  0  0  0
  6 17  1  0  0  0
 17 18  1  0  0  0
 18 19  1  0  0  0
 19 20  2  0  0  0
 20 21  1  0  0  0
 21 22  2  0  0  0
 22 23  1  0  0  0
 23 24  2  0  0  0
  6  7  1  0  0  0
  7  8  1  0  0  0
  8  9  1  0  0  0
  9 10  2  0  0  0
  9 11  1  0  0  0
 11 12  1  0  0  0
 12 13  2  0  0  0
 13  1  1  0  0  0
 12  4  1  0  0  0
 11  6  1  0  0  0
 24 19  1  0  0  0
M  CHG 1  14  -1
M  CHG 1  15   1
M  END
> <minimizedAffinity>
-5.51078

> <CNNscore>
0.3457138836

> <CNNaffinity>
6.8952169418

> <CNN_VS>
2.3837721348

> <CNNaffinity_variance>
0.4141332507

$$$$
[H]c1c([H])c([H])c(C([H])([H])C([H])([H])C23C([H])([H])OC(=O)C2([H])c2c([H])c([N+](=O)[O-])c([H])c([H])c2C3([H])[H])c([H])c1[H]


 24 27  0  0  0  0  0  0  0  0999 V2000
    7.5378   47.8370  129.6080 C   0  0  0  0  0  0  0  0  0  0  0  0
    8.4414   48.7451  130.1220 C   0  0  0  0  0  0  0  0  0  0  0  0
    9.6333   48.3190  130.6508 C   0  0  0  0  0  0  0  0  0  0  0  0
    9.9048   46.9604  130.6553 C   0  0  0  0  0  0  0  0  0  0  0  0
   11.0846   46.2512  131.1589 C   0  0  0  0  0  0  0  0  0  0  0  0
   11.0966   44.9914  130.3466 C   0  0  0  0  0  0  0  0  0  0  0  0
   11.4162   45.1937  128.9014 C   0  0  0  0  0  0  0  0  0  0  0  0
   10.5738   44.2245  128.2618 O   0  0  0  0  0  0  0  0  0  0  0  0
    9.4578   43.9667  129.0144 C   0  0  0  0  0  0  0  0  0  0  0  0
    8.4836   43.2680  128.6351 O   0  0  0  0  0  0  0  0  0  0  0  0
    9.6267   44.6469  130.3038 C   0  0  0  0  0  0  0  0  0  0  0  0
    9.0323   46.0237  130.1532 C   0  0  0  0  0  0  0  0  0  0  0  0
    7.8457   46.4871  129.6305 C   0  0  0  0  0  0  0  0  0  0  0  0
    5.5481   47.5652  128.2634 O   0  0  0  0  0  0  0  0  0  0  0  0
    6.3278   48.3302  129.0769 N   0  0  0  0  0  0  0  0  0  0  0  0
    5.9650   49.4814  129.3545 O   0  0  0  0  0  0  0  0  0  0  0  0
   11.9254   43.9622  131.0342 C   0  0  0  0  0  0  0  0  0  0  0  0
   11.0714   43.2485  132.0354 C   0  0  0  0  0  0  0  0  0  0  0  0
   10.4414   44.1186  133.0360 C   0  0  0  0  0  0  0  0  0  0  0  0
   11.2756   44.8396  133.8656 C   0  0  0  0  0  0  0  0  0  0  0  0
   10.7947   45.6933  134.8473 C   0  0  0  0  0  0  0  0  0  0  0  0
    9.4369   45.8136  134.9852 C   0  0  0  0  0  0  0  0  0  0  0  0
    8.5951   45.0925  134.1555 C   0  0  0  0  0  0  0  0  0  0  0  0
    9.0842   44.2542  133.1914 C   0  0  0  0  0  0  0  0  0  0  0  0
 14 15  1  0  0  0
 15 16  2  0  0  0
 15  1  1  0  0  0
  1  2  2  0  0  0
  2  3  1  0  0  0
  3  4  2  0  0  0
  4  5  1  0  0  0
  5  6  1  0  0  0
  6 17  1  0  0  0
 17 18  1  0  0  0
 18 19  1  0  0  0
 19 20  2  0  0  0
 20 21  1  0  0  0
 21 22  2  0  0  0
 22 23  1  0  0  0
 23 24  2  0  0  0
  6  7  1  0  0  0
  7  8  1  0  0  0
  8  9  1  0  0  0
  9 10  2  0  0  0
  9 11  1  0  0  0
 11 12  1  0  0  0
 12 13  2  0  0  0
 13  1  1  0  0  0
 12  4  1  0  0  0
 11  6  1  0  0  0
 24 19  1  0  0  0
M  CHG 1  14  -1
M  CHG 1  15   1
M  END
> <minimizedAffinity>
-8.40012

> <CNNscore>
0.3227364421

> <CNNaffinity>
6.9224090576

> <CNN_VS>
2.2341136932

> <CNNaffinity_variance>
0.0844645053

$$$$
[H]c1c([H])c([H])c(C([H])([H])C([H])([H])C23C([H])([H])OC(=O)C2([H])c2c([H])c([N+](=O)[O-])c([H])c([H])c2C3([H])[H])c([H])c1[H]


 24 27  0  0  0  0  0  0  0  0999 V2000
    8.3622   47.7192  134.8367 C   0  0  0  0  0  0  0  0  0  0  0  0
    8.7581   46.3977  134.8853 C   0  0  0  0  0  0  0  0  0  0  0  0
    9.1616   45.7489  133.7459 C   0  0  0  0  0  0  0  0  0  0  0  0
    9.1612   46.4512  132.5517 C   0  0  0  0  0  0  0  0  0  0  0  0
    9.5350   45.9987  131.2086 C   0  0  0  0  0  0  0  0  0  0  0  0
    9.9400   47.2683  130.5223 C   0  0  0  0  0  0  0  0  0  0  0  0
   11.2054   47.8710  131.0393 C   0  0  0  0  0  0  0  0  0  0  0  0
   10.9320   49.2769  130.9575 O   0  0  0  0  0  0  0  0  0  0  0  0
    9.5883   49.5257  131.0616 C   0  0  0  0  0  0  0  0  0  0  0  0
    9.0773   50.6701  131.1629 O   0  0  0  0  0  0  0  0  0  0  0  0
    8.8951   48.2325  131.0319 C   0  0  0  0  0  0  0  0  0  0  0  0
    8.7747   47.7677  132.4606 C   0  0  0  0  0  0  0  0  0  0  0  0
    8.3758   48.3871  133.6238 C   0  0  0  0  0  0  0  0  0  0  0  0
    6.7506   48.9608  136.1414 O   0  0  0  0  0  0  0  0  0  0  0  0
    7.9569   48.3369  136.0383 N   0  0  0  0  0  0  0  0  0  0  0  0
    8.7111   48.3127  137.0203 O   0  0  0  0  0  0  0  0  0  0  0  0
    9.8953   47.0738  129.0461 C   0  0  0  0  0  0  0  0  0  0  0  0
    8.7487   46.1698  128.7155 C   0  0  0  0  0  0  0  0  0  0  0  0
    8.9259   44.7746  129.1363 C   0  0  0  0  0  0  0  0  0  0  0  0
   10.0145   44.0930  128.6320 C   0  0  0  0  0  0  0  0  0  0  0  0
   10.2837   42.7721  128.9586 C   0  0  0  0  0  0  0  0  0  0  0  0
    9.4258   42.1346  129.8159 C   0  0  0  0  0  0  0  0  0  0  0  0
    8.3319   42.8137  130.3249 C   0  0  0  0  0  0  0  0  0  0  0  0
    8.0793   44.1168  129.9936 C   0  0  0  0  0  0  0  0  0  0  0  0
 14 15  1  0  0  0
 15 16  2  0  0  0
 15  1  1  0  0  0
  1  2  2  0  0  0
  2  3  1  0  0  0
  3  4  2  0  0  0
  4  5  1  0  0  0
  5  6  1  0  0  0
  6 17  1  0  0  0
 17 18  1  0  0  0
 18 19  1  0  0  0
 19 20  2  0  0  0
 20 21  1  0  0  0
 21 22  2  0  0  0
 22 23  1  0  0  0
 23 24  2  0  0  0
  6  7  1  0  0  0
  7  8  1  0  0  0
  8  9  1  0  0  0
  9 10  2  0  0  0
  9 11  1  0  0  0
 11 12  1  0  0  0
 12 13  2  0  0  0
 13  1  1  0  0  0
 12  4  1  0  0  0
 11  6  1  0  0  0
 24 19  1  0  0  0
M  CHG 1  14  -1
M  CHG 1  15   1
M  END
> <minimizedAffinity>
3.89213

> <CNNscore>
0.3210942149

> <CNNaffinity>
6.6757993698

> <CNN_VS>
2.1435606480

> <CNNaffinity_variance>
1.6552486420

$$$$
[H]c1c([H])c2c(c(N3C([H])([H])C([H])([H])N(C(=O)c4c([H])c([H])c5c(c4[H])OC([H])([H])O5)C([H])([H])C3([H])[H])c1[H])C(=O)C(C([H])([H])[H])(C([H])([H])[H])O2


 29 33  0  0  0  0  0  0  0  0999 V2000
    8.5766   46.8844  131.0520 N   0  0  0  0  0  0  0  0  0  0  0  0
    9.6074   47.8643  131.1792 C   0  0  0  0  0  0  0  0  0  0  0  0
   10.3915   47.7705  132.4854 C   0  0  0  0  0  0  0  0  0  0  0  0
   10.9545   46.4704  132.6308 N   0  0  0  0  0  0  0  0  0  0  0  0
   10.4007   45.4276  131.7271 C   0  0  0  0  0  0  0  0  0  0  0  0
    8.8687   45.6092  131.7262 C   0  0  0  0  0  0  0  0  0  0  0  0
   11.9407   46.0634  133.5235 C   0  0  0  0  0  0  0  0  0  0  0  0
   12.2834   44.7939  133.4062 O   0  0  0  0  0  0  0  0  0  0  0  0
    7.1958   51.9264  128.9678 C   0  0  0  0  0  0  0  0  0  0  0  0
    6.6685   50.6563  129.5392 C   0  0  0  0  0  0  0  0  0  0  0  0
    5.8438   50.8731  130.7927 C   0  0  0  0  0  0  0  0  0  0  0  0
    5.8802   49.9051  128.6436 O   0  0  0  0  0  0  0  0  0  0  0  0
    5.9081   48.5768  129.0354 C   0  0  0  0  0  0  0  0  0  0  0  0
    5.0278   47.5245  128.8185 C   0  0  0  0  0  0  0  0  0  0  0  0
    5.3384   46.2981  129.3498 C   0  0  0  0  0  0  0  0  0  0  0  0
    6.4841   46.0960  130.0791 C   0  0  0  0  0  0  0  0  0  0  0  0
    7.4027   47.1423  130.3192 C   0  0  0  0  0  0  0  0  0  0  0  0
    7.0776   48.3758  129.7778 C   0  0  0  0  0  0  0  0  0  0  0  0
    7.7540   49.6626  129.8149 C   0  0  0  0  0  0  0  0  0  0  0  0
    8.9615   49.8511  130.0305 O   0  0  0  0  0  0  0  0  0  0  0  0
   12.6542   46.7535  134.5414 C   0  0  0  0  0  0  0  0  0  0  0  0
   12.1196   47.9344  135.0972 C   0  0  0  0  0  0  0  0  0  0  0  0
   12.7495   48.6688  136.0625 C   0  0  0  0  0  0  0  0  0  0  0  0
   13.9591   48.2845  136.5484 C   0  0  0  0  0  0  0  0  0  0  0  0
   14.8105   48.8255  137.5094 O   0  0  0  0  0  0  0  0  0  0  0  0
   15.9477   48.0041  137.6276 C   0  0  0  0  0  0  0  0  0  0  0  0
   15.7401   46.9642  136.6887 O   0  0  0  0  0  0  0  0  0  0  0  0
   14.5283   47.1455  136.0466 C   0  0  0  0  0  0  0  0  0  0  0  0
   13.8687   46.4032  135.0556 C   0  0  0  0  0  0  0  0  0  0  0  0
  9 10  1  0  0  0
 10 11  1  0  0  0
 10 12  1  0  0  0
 12 13  1  0  0  0
 13 14  2  0  0  0
 14 15  1  0  0  0
 15 16  2  0  0  0
 16 17  1  0  0  0
 17  1  1  0  0  0
  1  2  1  0  0  0
  2  3  1  0  0  0
  3  4  1  0  0  0
  4  5  1  0  0  0
  5  6  1  0  0  0
  4  7  1  0  0  0
  7  8  2  0  0  0
  7 21  1  0  0  0
 21 22  2  0  0  0
 22 23  1  0  0  0
 23 24  2  0  0  0
 24 25  1  0  0  0
 25 26  1  0  0  0
 26 27  1  0  0  0
 27 28  1  0  0  0
 28 29  2  0  0  0
 17 18  2  0  0  0
 18 19  1  0  0  0
 19 20  2  0  0  0
 19 10  1  0  0  0
 18 13  1  0  0  0
  6  1  1  0  0  0
 29 21  1  0  0  0
 28 24  1  0  0  0
M  END
> <minimizedAffinity>
17.04790

> <CNNscore>
0.5157853365

> <CNNaffinity>
6.5997071266

> <CNN_VS>
3.4040322304

> <CNNaffinity_variance>
0.9777442813

$$$$
[H]c1c([H])c2c(c(N3C([H])([H])C([H])([H])N(C(=O)c4c([H])c([H])c5c(c4[H])OC([H])([H])O5)C([H])([H])C3([H])[H])c1[H])C(=O)C(C([H])([H])[H])(C([H])([H])[H])O2


 29 33  0  0  0  0  0  0  0  0999 V2000
    8.7514   46.9268  129.4344 N   0  0  0  0  0  0  0  0  0  0  0  0
    9.7425   47.3413  130.3750 C   0  0  0  0  0  0  0  0  0  0  0  0
    9.7443   46.5310  131.6685 C   0  0  0  0  0  0  0  0  0  0  0  0
    9.9134   45.1460  131.3829 N   0  0  0  0  0  0  0  0  0  0  0  0
    9.7008   44.7536  129.9646 C   0  0  0  0  0  0  0  0  0  0  0  0
    8.4332   45.4908  129.4854 C   0  0  0  0  0  0  0  0  0  0  0  0
   10.2347   44.1252  132.2717 C   0  0  0  0  0  0  0  0  0  0  0  0
   10.3525   42.9372  131.7085 O   0  0  0  0  0  0  0  0  0  0  0  0
    5.9361   51.5429  130.9958 C   0  0  0  0  0  0  0  0  0  0  0  0
    6.0364   50.4610  129.9772 C   0  0  0  0  0  0  0  0  0  0  0  0
    4.7656   49.6426  129.8615 C   0  0  0  0  0  0  0  0  0  0  0  0
    6.3611   50.9165  128.6831 O   0  0  0  0  0  0  0  0  0  0  0  0
    6.9522   49.8776  127.9829 C   0  0  0  0  0  0  0  0  0  0  0  0
    7.0653   49.6185  126.6230 C   0  0  0  0  0  0  0  0  0  0  0  0
    7.7215   48.4788  126.2315 C   0  0  0  0  0  0  0  0  0  0  0  0
    8.2594   47.6054  127.1443 C   0  0  0  0  0  0  0  0  0  0  0  0
    8.1645   47.8368  128.5349 C   0  0  0  0  0  0  0  0  0  0  0  0
    7.4991   48.9906  128.9174 C   0  0  0  0  0  0  0  0  0  0  0  0
    7.2008   49.5528  130.2249 C   0  0  0  0  0  0  0  0  0  0  0  0
    7.8007   49.3080  131.2833 O   0  0  0  0  0  0  0  0  0  0  0  0
   10.4621   44.1145  133.6752 C   0  0  0  0  0  0  0  0  0  0  0  0
    9.8211   45.0637  134.4983 C   0  0  0  0  0  0  0  0  0  0  0  0
   10.0009   45.1360  135.8512 C   0  0  0  0  0  0  0  0  0  0  0  0
   10.8321   44.2698  136.4883 C   0  0  0  0  0  0  0  0  0  0  0  0
   11.1972   44.1145  137.8238 O   0  0  0  0  0  0  0  0  0  0  0  0
   12.0977   43.0375  137.9296 C   0  0  0  0  0  0  0  0  0  0  0  0
   12.2601   42.5719  136.6019 O   0  0  0  0  0  0  0  0  0  0  0  0
   11.4827   43.3257  135.7410 C   0  0  0  0  0  0  0  0  0  0  0  0
   11.2873   43.2651  134.3531 C   0  0  0  0  0  0  0  0  0  0  0  0
  9 10  1  0  0  0
 10 11  1  0  0  0
 10 12  1  0  0  0
 12 13  1  0  0  0
 13 14  2  0  0  0
 14 15  1  0  0  0
 15 16  2  0  0  0
 16 17  1  0  0  0
 17  1  1  0  0  0
  1  2  1  0  0  0
  2  3  1  0  0  0
  3  4  1  0  0  0
  4  5  1  0  0  0
  5  6  1  0  0  0
  4  7  1  0  0  0
  7  8  2  0  0  0
  7 21  1  0  0  0
 21 22  2  0  0  0
 22 23  1  0  0  0
 23 24  2  0  0  0
 24 25  1  0  0  0
 25 26  1  0  0  0
 26 27  1  0  0  0
 27 28  1  0  0  0
 28 29  2  0  0  0
 17 18  2  0  0  0
 18 19  1  0  0  0
 19 20  2  0  0  0
 19 10  1  0  0  0
 18 13  1  0  0  0
  6  1  1  0  0  0
 29 21  1  0  0  0
 28 24  1  0  0  0
M  END
> <minimizedAffinity>
28.28587

> <CNNscore>
0.5137907863

> <CNNaffinity>
6.9134278297

> <CNN_VS>
3.5520555973

> <CNNaffinity_variance>
1.5807316303

$$$$
[H]c1c([H])c2c(c(N3C([H])([H])C([H])([H])N(C(=O)c4c([H])c([H])c5c(c4[H])OC([H])([H])O5)C([H])([H])C3([H])[H])c1[H])C(=O)C(C([H])([H])[H])(C([H])([H])[H])O2


 29 33  0  0  0  0  0  0  0  0999 V2000
    8.8545   48.5828  131.0797 N   0  0  0  0  0  0  0  0  0  0  0  0
    8.4572   47.5144  131.9397 C   0  0  0  0  0  0  0  0  0  0  0  0
    9.3078   46.2553  131.7947 C   0  0  0  0  0  0  0  0  0  0  0  0
   10.6808   46.5586  132.0209 N   0  0  0  0  0  0  0  0  0  0  0  0
   11.0311   48.0034  131.9920 C   0  0  0  0  0  0  0  0  0  0  0  0
   10.2953   48.6142  130.7815 C   0  0  0  0  0  0  0  0  0  0  0  0
   11.7249   45.6674  132.2465 C   0  0  0  0  0  0  0  0  0  0  0  0
   12.8930   46.2466  132.4528 O   0  0  0  0  0  0  0  0  0  0  0  0
    3.8067   47.2352  128.9880 C   0  0  0  0  0  0  0  0  0  0  0  0
    4.9486   48.1874  128.9018 C   0  0  0  0  0  0  0  0  0  0  0  0
    5.5855   48.2187  127.5265 C   0  0  0  0  0  0  0  0  0  0  0  0
    4.6183   49.5153  129.2411 O   0  0  0  0  0  0  0  0  0  0  0  0
    5.7684   50.1654  129.6577 C   0  0  0  0  0  0  0  0  0  0  0  0
    6.1185   51.5093  129.6862 C   0  0  0  0  0  0  0  0  0  0  0  0
    7.3597   51.8469  130.1640 C   0  0  0  0  0  0  0  0  0  0  0  0
    8.2462   50.8965  130.6071 C   0  0  0  0  0  0  0  0  0  0  0  0
    7.9242   49.5208  130.5937 C   0  0  0  0  0  0  0  0  0  0  0  0
    6.6683   49.1928  130.1086 C   0  0  0  0  0  0  0  0  0  0  0  0
    5.9957   47.9150  129.9368 C   0  0  0  0  0  0  0  0  0  0  0  0
    6.2611   46.8598  130.5335 O   0  0  0  0  0  0  0  0  0  0  0  0
   11.7768   44.2475  132.2986 C   0  0  0  0  0  0  0  0  0  0  0  0
   12.6395   43.6089  133.2135 C   0  0  0  0  0  0  0  0  0  0  0  0
   12.7656   42.2516  133.3135 C   0  0  0  0  0  0  0  0  0  0  0  0
   12.0432   41.4264  132.5109 C   0  0  0  0  0  0  0  0  0  0  0  0
   11.9707   40.0399  132.3959 O   0  0  0  0  0  0  0  0  0  0  0  0
   11.0389   39.7120  131.3929 C   0  0  0  0  0  0  0  0  0  0  0  0
   10.5742   40.9602  130.9111 O   0  0  0  0  0  0  0  0  0  0  0  0
   11.1885   41.9891  131.6021 C   0  0  0  0  0  0  0  0  0  0  0  0
   11.0710   43.3842  131.5120 C   0  0  0  0  0  0  0  0  0  0  0  0
  9 10  1  0  0  0
 10 11  1  0  0  0
 10 12  1  0  0  0
 12 13  1  0  0  0
 13 14  2  0  0  0
 14 15  1  0  0  0
 15 16  2  0  0  0
 16 17  1  0  0  0
 17  1  1  0  0  0
  1  2  1  0  0  0
  2  3  1  0  0  0
  3  4  1  0  0  0
  4  5  1  0  0  0
  5  6  1  0  0  0
  4  7  1  0  0  0
  7  8  2  0  0  0
  7 21  1  0  0  0
 21 22  2  0  0  0
 22 23  1  0  0  0
 23 24  2  0  0  0
 24 25  1  0  0  0
 25 26  1  0  0  0
 26 27  1  0  0  0
 27 28  1  0  0  0
 28 29  2  0  0  0
 17 18  2  0  0  0
 18 19  1  0  0  0
 19 20  2  0  0  0
 19 10  1  0  0  0
 18 13  1  0  0  0
  6  1  1  0  0  0
 29 21  1  0  0  0
 28 24  1  0  0  0
M  END
> <minimizedAffinity>
20.01556

> <CNNscore>
0.4281754196

> <CNNaffinity>
6.7973012924

> <CNN_VS>
2.9104373455

> <CNNaffinity_variance>
1.5313513279

$$$$
[H]c1c([H])c2c(c(N3C([H])([H])C([H])([H])N(C(=O)c4c([H])c([H])c5c(c4[H])OC([H])([H])O5)C([H])([H])C3([H])[H])c1[H])C(=O)C(C([H])([H])[H])(C([H])([H])[H])O2


 29 33  0  0  0  0  0  0  0  0999 V2000
    7.5297   46.7844  130.1417 N   0  0  0  0  0  0  0  0  0  0  0  0
    8.3782   47.3175  131.1590 C   0  0  0  0  0  0  0  0  0  0  0  0
    9.1145   46.2543  131.9697 C   0  0  0  0  0  0  0  0  0  0  0  0
    9.8787   45.4174  131.1071 N   0  0  0  0  0  0  0  0  0  0  0  0
    9.5417   45.5088  129.6618 C   0  0  0  0  0  0  0  0  0  0  0  0
    8.0020   45.5155  129.5648 C   0  0  0  0  0  0  0  0  0  0  0  0
   10.8825   44.5208  131.4587 C   0  0  0  0  0  0  0  0  0  0  0  0
   11.4350   43.9006  130.4327 O   0  0  0  0  0  0  0  0  0  0  0  0
    7.3505   52.1975  128.6126 C   0  0  0  0  0  0  0  0  0  0  0  0
    6.5997   51.0877  129.2626 C   0  0  0  0  0  0  0  0  0  0  0  0
    6.1962   51.4069  130.6887 C   0  0  0  0  0  0  0  0  0  0  0  0
    5.4324   50.7007  128.5734 O   0  0  0  0  0  0  0  0  0  0  0  0
    5.1338   49.3902  128.9084 C   0  0  0  0  0  0  0  0  0  0  0  0
    3.9440   48.6737  128.8905 C   0  0  0  0  0  0  0  0  0  0  0  0
    3.9699   47.3619  129.2924 C   0  0  0  0  0  0  0  0  0  0  0  0
    5.1308   46.7554  129.7044 C   0  0  0  0  0  0  0  0  0  0  0  0
    6.3594   47.4526  129.7349 C   0  0  0  0  0  0  0  0  0  0  0  0
    6.3200   48.7764  129.3272 C   0  0  0  0  0  0  0  0  0  0  0  0
    7.3537   49.7946  129.2289 C   0  0  0  0  0  0  0  0  0  0  0  0
    8.5750   49.5942  129.1392 O   0  0  0  0  0  0  0  0  0  0  0  0
   11.4308   44.1423  132.7148 C   0  0  0  0  0  0  0  0  0  0  0  0
   12.7868   43.7648  132.8046 C   0  0  0  0  0  0  0  0  0  0  0  0
   13.3861   43.3678  133.9670 C   0  0  0  0  0  0  0  0  0  0  0  0
   12.6822   43.3159  135.1284 C   0  0  0  0  0  0  0  0  0  0  0  0
   13.0257   42.9582  136.4304 O   0  0  0  0  0  0  0  0  0  0  0  0
   11.8944   43.0973  137.2566 C   0  0  0  0  0  0  0  0  0  0  0  0
   10.8661   43.5382  136.3882 O   0  0  0  0  0  0  0  0  0  0  0  0
   11.3607   43.6707  135.1031 C   0  0  0  0  0  0  0  0  0  0  0  0
   10.7605   44.0758  133.9015 C   0  0  0  0  0  0  0  0  0  0  0  0
  9 10  1  0  0  0
 10 11  1  0  0  0
 10 12  1  0  0  0
 12 13  1  0  0  0
 13 14  2  0  0  0
 14 15  1  0  0  0
 15 16  2  0  0  0
 16 17  1  0  0  0
 17  1  1  0  0  0
  1  2  1  0  0  0
  2  3  1  0  0  0
  3  4  1  0  0  0
  4  5  1  0  0  0
  5  6  1  0  0  0
  4  7  1  0  0  0
  7  8  2  0  0  0
  7 21  1  0  0  0
 21 22  2  0  0  0
 22 23  1  0  0  0
 23 24  2  0  0  0
 24 25  1  0  0  0
 25 26  1  0  0  0
 26 27  1  0  0  0
 27 28  1  0  0  0
 28 29  2  0  0  0
 17 18  2  0  0  0
 18 19  1  0  0  0
 19 20  2  0  0  0
 19 10  1  0  0  0
 18 13  1  0  0  0
  6  1  1  0  0  0
 29 21  1  0  0  0
 28 24  1  0  0  0
M  END
> <minimizedAffinity>
18.63558

> <CNNscore>
0.4149887562

> <CNNaffinity>
6.8967399597

> <CNN_VS>
2.8620696068

> <CNNaffinity_variance>
1.2339075804

$$$$
[H]c1c([H])c2c(c(N3C([H])([H])C([H])([H])N(C(=O)c4c([H])c([H])c5c(c4[H])OC([H])([H])O5)C([H])([H])C3([H])[H])c1[H])C(=O)C(C([H])([H])[H])(C([H])([H])[H])O2


 29 33  0  0  0  0  0  0  0  0999 V2000
    6.7607   46.3170  130.2405 N   0  0  0  0  0  0  0  0  0  0  0  0
    7.5384   45.6937  129.2179 C   0  0  0  0  0  0  0  0  0  0  0  0
    8.9881   45.4316  129.6171 C   0  0  0  0  0  0  0  0  0  0  0  0
    9.0389   44.6389  130.7992 N   0  0  0  0  0  0  0  0  0  0  0  0
    7.7652   44.5409  131.5602 C   0  0  0  0  0  0  0  0  0  0  0  0
    7.1674   45.9622  131.6096 C   0  0  0  0  0  0  0  0  0  0  0  0
   10.1356   43.9662  131.3282 C   0  0  0  0  0  0  0  0  0  0  0  0
    9.8715   43.2854  132.4279 O   0  0  0  0  0  0  0  0  0  0  0  0
    7.3720   51.6723  128.6221 C   0  0  0  0  0  0  0  0  0  0  0  0
    6.5062   50.7124  129.3618 C   0  0  0  0  0  0  0  0  0  0  0  0
    6.3004   51.1031  130.8120 C   0  0  0  0  0  0  0  0  0  0  0  0
    5.2298   50.5304  128.7914 O   0  0  0  0  0  0  0  0  0  0  0  0
    4.7432   49.2930  129.1798 C   0  0  0  0  0  0  0  0  0  0  0  0
    3.4516   48.7934  129.2868 C   0  0  0  0  0  0  0  0  0  0  0  0
    3.2892   47.4988  129.7118 C   0  0  0  0  0  0  0  0  0  0  0  0
    4.3622   46.7022  130.0273 C   0  0  0  0  0  0  0  0  0  0  0  0
    5.6897   47.1760  129.9297 C   0  0  0  0  0  0  0  0  0  0  0  0
    5.8403   48.4848  129.4999 C   0  0  0  0  0  0  0  0  0  0  0  0
    7.0198   49.3080  129.2854 C   0  0  0  0  0  0  0  0  0  0  0  0
    8.1744   48.8986  129.0875 O   0  0  0  0  0  0  0  0  0  0  0  0
   11.4915   43.8695  130.9110 C   0  0  0  0  0  0  0  0  0  0  0  0
   12.4596   43.3352  131.7865 C   0  0  0  0  0  0  0  0  0  0  0  0
   13.7854   43.2265  131.4727 C   0  0  0  0  0  0  0  0  0  0  0  0
   14.2490   43.6411  130.2643 C   0  0  0  0  0  0  0  0  0  0  0  0
   15.5171   43.6508  129.6875 O   0  0  0  0  0  0  0  0  0  0  0  0
   15.4259   44.1918  128.3910 C   0  0  0  0  0  0  0  0  0  0  0  0
   14.0560   44.5135  128.2304 O   0  0  0  0  0  0  0  0  0  0  0  0
   13.3553   44.1690  129.3723 C   0  0  0  0  0  0  0  0  0  0  0  0
   11.9976   44.2739  129.7101 C   0  0  0  0  0  0  0  0  0  0  0  0
  9 10  1  0  0  0
 10 11  1  0  0  0
 10 12  1  0  0  0
 12 13  1  0  0  0
 13 14  2  0  0  0
 14 15  1  0  0  0
 15 16  2  0  0  0
 16 17  1  0  0  0
 17  1  1  0  0  0
  1  2  1  0  0  0
  2  3  1  0  0  0
  3  4  1  0  0  0
  4  5  1  0  0  0
  5  6  1  0  0  0
  4  7  1  0  0  0
  7  8  2  0  0  0
  7 21  1  0  0  0
 21 22  2  0  0  0
 22 23  1  0  0  0
 23 24  2  0  0  0
 24 25  1  0  0  0
 25 26  1  0  0  0
 26 27  1  0  0  0
 27 28  1  0  0  0
 28 29  2  0  0  0
 17 18  2  0  0  0
 18 19  1  0  0  0
 19 20  2  0  0  0
 19 10  1  0  0  0
 18 13  1  0  0  0
  6  1  1  0  0  0
 29 21  1  0  0  0
 28 24  1  0  0  0
M  END
> <minimizedAffinity>
20.27507

> <CNNscore>
0.4055640101

> <CNNaffinity>
6.6178598404

> <CNN_VS>
2.6839656830

> <CNNaffinity_variance>
1.0630522966

$$$$
[H]c1c([H])c2c(c(N3C([H])([H])C([H])([H])N(C(=O)c4c([H])c([H])c5c(c4[H])OC([H])([H])O5)C([H])([H])C3([H])[H])c1[H])C(=O)C(C([H])([H])[H])(C([H])([H])[H])O2


 29 33  0  0  0  0  0  0  0  0999 V2000
    9.6376   44.7777  130.9650 N   0  0  0  0  0  0  0  0  0  0  0  0
   10.9117   44.4271  130.4241 C   0  0  0  0  0  0  0  0  0  0  0  0
   10.9025   43.1386  129.6057 C   0  0  0  0  0  0  0  0  0  0  0  0
    9.9502   43.2310  128.5508 N   0  0  0  0  0  0  0  0  0  0  0  0
    8.9660   44.3390  128.6711 C   0  0  0  0  0  0  0  0  0  0  0  0
    8.4943   44.3560  130.1398 C   0  0  0  0  0  0  0  0  0  0  0  0
    9.8248   42.4024  127.4405 C   0  0  0  0  0  0  0  0  0  0  0  0
    8.8590   42.7536  126.6119 O   0  0  0  0  0  0  0  0  0  0  0  0
    8.0863   50.1746  131.3374 C   0  0  0  0  0  0  0  0  0  0  0  0
    8.9270   49.1024  131.9387 C   0  0  0  0  0  0  0  0  0  0  0  0
   10.4014   49.4542  131.9609 C   0  0  0  0  0  0  0  0  0  0  0  0
    8.5598   48.7519  133.2540 O   0  0  0  0  0  0  0  0  0  0  0  0
    8.9868   47.4580  133.5035 C   0  0  0  0  0  0  0  0  0  0  0  0
    9.2821   46.7874  134.6834 C   0  0  0  0  0  0  0  0  0  0  0  0
    9.6927   45.4806  134.6023 C   0  0  0  0  0  0  0  0  0  0  0  0
    9.8144   44.8352  133.3965 C   0  0  0  0  0  0  0  0  0  0  0  0
    9.5220   45.4851  132.1765 C   0  0  0  0  0  0  0  0  0  0  0  0
    9.1088   46.8044  132.2717 C   0  0  0  0  0  0  0  0  0  0  0  0
    8.7335   47.7810  131.2617 C   0  0  0  0  0  0  0  0  0  0  0  0
    8.3457   47.5330  130.1093 O   0  0  0  0  0  0  0  0  0  0  0  0
   10.5393   41.2458  127.0238 C   0  0  0  0  0  0  0  0  0  0  0  0
   10.1375   39.9712  127.4745 C   0  0  0  0  0  0  0  0  0  0  0  0
   10.7808   38.8128  127.1393 C   0  0  0  0  0  0  0  0  0  0  0  0
   11.8727   38.8342  126.3304 C   0  0  0  0  0  0  0  0  0  0  0  0
   12.7061   37.8335  125.8355 O   0  0  0  0  0  0  0  0  0  0  0  0
   13.6947   38.4213  125.0237 C   0  0  0  0  0  0  0  0  0  0  0  0
   13.4200   39.8099  125.0700 O   0  0  0  0  0  0  0  0  0  0  0  0
   12.3099   40.0434  125.8617 C   0  0  0  0  0  0  0  0  0  0  0  0
   11.6384   41.2234  126.2155 C   0  0  0  0  0  0  0  0  0  0  0  0
  9 10  1  0  0  0
 10 11  1  0  0  0
 10 12  1  0  0  0
 12 13  1  0  0  0
 13 14  2  0  0  0
 14 15  1  0  0  0
 15 16  2  0  0  0
 16 17  1  0  0  0
 17  1  1  0  0  0
  1  2  1  0  0  0
  2  3  1  0  0  0
  3  4  1  0  0  0
  4  5  1  0  0  0
  5  6  1  0  0  0
  4  7  1  0  0  0
  7  8  2  0  0  0
  7 21  1  0  0  0
 21 22  2  0  0  0
 22 23  1  0  0  0
 23 24  2  0  0  0
 24 25  1  0  0  0
 25 26  1  0  0  0
 26 27  1  0  0  0
 27 28  1  0  0  0
 28 29  2  0  0  0
 17 18  2  0  0  0
 18 19  1  0  0  0
 19 20  2  0  0  0
 19 10  1  0  0  0
 18 13  1  0  0  0
  6  1  1  0  0  0
 29 21  1  0  0  0
 28 24  1  0  0  0
M  END
> <minimizedAffinity>
24.28318

> <CNNscore>
0.4050632715

> <CNNaffinity>
6.5966653824

> <CNN_VS>
2.6720669270

> <CNNaffinity_variance>
0.5145276785

$$$$
[H]c1c([H])c2c(c(N3C([H])([H])C([H])([H])N(C(=O)c4c([H])c([H])c5c(c4[H])OC([H])([H])O5)C([H])([H])C3([H])[H])c1[H])C(=O)C(C([H])([H])[H])(C([H])([H])[H])O2


 29 33  0  0  0  0  0  0  0  0999 V2000
   10.8427   46.5786  132.3786 N   0  0  0  0  0  0  0  0  0  0  0  0
   10.5322   46.7840  131.0001 C   0  0  0  0  0  0  0  0  0  0  0  0
    9.2966   47.6494  130.7671 C   0  0  0  0  0  0  0  0  0  0  0  0
    9.4492   48.9108  131.4104 N   0  0  0  0  0  0  0  0  0  0  0  0
   10.5430   48.9898  132.4146 C   0  0  0  0  0  0  0  0  0  0  0  0
   10.4672   47.6990  133.2558 C   0  0  0  0  0  0  0  0  0  0  0  0
    8.6899   50.0611  131.2224 C   0  0  0  0  0  0  0  0  0  0  0  0
    9.0869   51.0930  131.9436 O   0  0  0  0  0  0  0  0  0  0  0  0
    9.6245   41.4262  130.4704 C   0  0  0  0  0  0  0  0  0  0  0  0
   10.0645   42.2168  131.6533 C   0  0  0  0  0  0  0  0  0  0  0  0
    9.1291   42.0733  132.8375 C   0  0  0  0  0  0  0  0  0  0  0  0
   11.3631   41.9042  132.1044 O   0  0  0  0  0  0  0  0  0  0  0  0
   11.8695   42.9968  132.7889 C   0  0  0  0  0  0  0  0  0  0  0  0
   12.8493   43.1090  133.7670 C   0  0  0  0  0  0  0  0  0  0  0  0
   13.1318   44.3568  134.2630 C   0  0  0  0  0  0  0  0  0  0  0  0
   12.4749   45.4771  133.8171 C   0  0  0  0  0  0  0  0  0  0  0  0
   11.4737   45.4013  132.8231 C   0  0  0  0  0  0  0  0  0  0  0  0
   11.1973   44.1359  132.3307 C   0  0  0  0  0  0  0  0  0  0  0  0
   10.2514   43.6670  131.3306 C   0  0  0  0  0  0  0  0  0  0  0  0
    9.7379   44.3484  130.4296 O   0  0  0  0  0  0  0  0  0  0  0  0
    7.5647   50.3413  130.3996 C   0  0  0  0  0  0  0  0  0  0  0  0
    7.6207   51.3996  129.4690 C   0  0  0  0  0  0  0  0  0  0  0  0
    6.5785   51.7486  128.6565 C   0  0  0  0  0  0  0  0  0  0  0  0
    5.4013   51.0713  128.7080 C   0  0  0  0  0  0  0  0  0  0  0  0
    4.1999   51.2038  128.0151 O   0  0  0  0  0  0  0  0  0  0  0  0
    3.3009   50.2185  128.4656 C   0  0  0  0  0  0  0  0  0  0  0  0
    4.0146   49.5079  129.4614 O   0  0  0  0  0  0  0  0  0  0  0  0
    5.2874   50.0335  129.5928 C   0  0  0  0  0  0  0  0  0  0  0  0
    6.3667   49.6883  130.4201 C   0  0  0  0  0  0  0  0  0  0  0  0
  9 10  1  0  0  0
 10 11  1  0  0  0
 10 12  1  0  0  0
 12 13  1  0  0  0
 13 14  2  0  0  0
 14 15  1  0  0  0
 15 16  2  0  0  0
 16 17  1  0  0  0
 17  1  1  0  0  0
  1  2  1  0  0  0
  2  3  1  0  0  0
  3  4  1  0  0  0
  4  5  1  0  0  0
  5  6  1  0  0  0
  4  7  1  0  0  0
  7  8  2  0  0  0
  7 21  1  0  0  0
 21 22  2  0  0  0
 22 23  1  0  0  0
 23 24  2  0  0  0
 24 25  1  0  0  0
 25 26  1  0  0  0
 26 27  1  0  0  0
 27 28  1  0  0  0
 28 29  2  0  0  0
 17 18  2  0  0  0
 18 19  1  0  0  0
 19 20  2  0  0  0
 19 10  1  0  0  0
 18 13  1  0  0  0
  6  1  1  0  0  0
 29 21  1  0  0  0
 28 24  1  0  0  0
M  END
> <minimizedAffinity>
13.55450

> <CNNscore>
0.4034797847

> <CNNaffinity>
7.0087943077

> <CNN_VS>
2.8279068470

> <CNNaffinity_variance>
1.1893389225

$$$$
[H]c1c([H])c2c(c(N3C([H])([H])C([H])([H])N(C(=O)c4c([H])c([H])c5c(c4[H])OC([H])([H])O5)C([H])([H])C3([H])[H])c1[H])C(=O)C(C([H])([H])[H])(C([H])([H])[H])O2


 29 33  0  0  0  0  0  0  0  0999 V2000
    9.2848   47.6910  131.6641 N   0  0  0  0  0  0  0  0  0  0  0  0
    8.5095   46.5241  131.9400 C   0  0  0  0  0  0  0  0  0  0  0  0
    9.2277   45.2154  131.6217 C   0  0  0  0  0  0  0  0  0  0  0  0
   10.4599   45.1433  132.3323 N   0  0  0  0  0  0  0  0  0  0  0  0
   10.9404   46.4248  132.9135 C   0  0  0  0  0  0  0  0  0  0  0  0
   10.7351   47.5066  131.8330 C   0  0  0  0  0  0  0  0  0  0  0  0
   11.2666   44.0272  132.5290 C   0  0  0  0  0  0  0  0  0  0  0  0
   12.3420   44.2610  133.2579 O   0  0  0  0  0  0  0  0  0  0  0  0
    4.6786   48.0559  128.4513 C   0  0  0  0  0  0  0  0  0  0  0  0
    5.9672   48.7078  128.8152 C   0  0  0  0  0  0  0  0  0  0  0  0
    6.8923   48.8856  127.6275 C   0  0  0  0  0  0  0  0  0  0  0  0
    5.8218   49.9702  129.4260 O   0  0  0  0  0  0  0  0  0  0  0  0
    6.9486   50.2251  130.1903 C   0  0  0  0  0  0  0  0  0  0  0  0
    7.5269   51.4097  130.6280 C   0  0  0  0  0  0  0  0  0  0  0  0
    8.6689   51.3339  131.3849 C   0  0  0  0  0  0  0  0  0  0  0  0
    9.2400   50.1287  131.7120 C   0  0  0  0  0  0  0  0  0  0  0  0
    8.6793   48.9041  131.2853 C   0  0  0  0  0  0  0  0  0  0  0  0
    7.5266   48.9941  130.5214 C   0  0  0  0  0  0  0  0  0  0  0  0
    6.6844   47.9790  129.9090 C   0  0  0  0  0  0  0  0  0  0  0  0
    6.6074   46.7875  130.2470 O   0  0  0  0  0  0  0  0  0  0  0  0
   11.1556   42.6776  132.0953 C   0  0  0  0  0  0  0  0  0  0  0  0
   11.8959   41.6677  132.7444 C   0  0  0  0  0  0  0  0  0  0  0  0
   11.8633   40.3515  132.3776 C   0  0  0  0  0  0  0  0  0  0  0  0
   11.0919   39.9398  131.3372 C   0  0  0  0  0  0  0  0  0  0  0  0
   10.8692   38.6929  130.7570 O   0  0  0  0  0  0  0  0  0  0  0  0
    9.9555   38.8387  129.6959 C   0  0  0  0  0  0  0  0  0  0  0  0
    9.6581   40.2230  129.6642 O   0  0  0  0  0  0  0  0  0  0  0  0
   10.3506   40.8757  130.6683 C   0  0  0  0  0  0  0  0  0  0  0  0
   10.3956   42.2229  131.0573 C   0  0  0  0  0  0  0  0  0  0  0  0
  9 10  1  0  0  0
 10 11  1  0  0  0
 10 12  1  0  0  0
 12 13  1  0  0  0
 13 14  2  0  0  0
 14 15  1  0  0  0
 15 16  2  0  0  0
 16 17  1  0  0  0
 17  1  1  0  0  0
  1  2  1  0  0  0
  2  3  1  0  0  0
  3  4  1  0  0  0
  4  5  1  0  0  0
  5  6  1  0  0  0
  4  7  1  0  0  0
  7  8  2  0  0  0
  7 21  1  0  0  0
 21 22  2  0  0  0
 22 23  1  0  0  0
 23 24  2  0  0  0
 24 25  1  0  0  0
 25 26  1  0  0  0
 26 27  1  0  0  0
 27 28  1  0  0  0
 28 29  2  0  0  0
 17 18  2  0  0  0
 18 19  1  0  0  0
 19 20  2  0  0  0
 19 10  1  0  0  0
 18 13  1  0  0  0
  6  1  1  0  0  0
 29 21  1  0  0  0
 28 24  1  0  0  0
M  END
> <minimizedAffinity>
21.02923

> <CNNscore>
0.3753897548

> <CNNaffinity>
6.8211164474

> <CNN_VS>
2.5605771542

> <CNNaffinity_variance>
1.3146165609

$$$$
[H]c1c([H])c2c(c(N3C([H])([H])C([H])([H])N(C(=O)c4c([H])c([H])c5c(c4[H])OC([H])([H])O5)C([H])([H])C3([H])[H])c1[H])C(=O)C(C([H])([H])[H])(C([H])([H])[H])O2


 29 33  0  0  0  0  0  0  0  0999 V2000
    8.6606   46.5249  130.0014 N   0  0  0  0  0  0  0  0  0  0  0  0
    9.5124   47.6601  129.8451 C   0  0  0  0  0  0  0  0  0  0  0  0
    8.8800   48.8034  129.0558 C   0  0  0  0  0  0  0  0  0  0  0  0
    7.6592   49.2089  129.6671 N   0  0  0  0  0  0  0  0  0  0  0  0
    7.0988   48.2631  130.6683 C   0  0  0  0  0  0  0  0  0  0  0  0
    7.2265   46.8497  130.0636 C   0  0  0  0  0  0  0  0  0  0  0  0
    6.9288   50.3679  129.4258 C   0  0  0  0  0  0  0  0  0  0  0  0
    5.8444   50.4864  130.1692 O   0  0  0  0  0  0  0  0  0  0  0  0
   11.2124   44.4989  134.5901 C   0  0  0  0  0  0  0  0  0  0  0  0
   11.1659   44.4596  133.1020 C   0  0  0  0  0  0  0  0  0  0  0  0
   12.4820   44.8553  132.4620 C   0  0  0  0  0  0  0  0  0  0  0  0
   10.8013   43.2059  132.5700 O   0  0  0  0  0  0  0  0  0  0  0  0
   10.2658   43.3992  131.3072 C   0  0  0  0  0  0  0  0  0  0  0  0
   10.1541   42.5600  130.2060 C   0  0  0  0  0  0  0  0  0  0  0  0
    9.5627   43.0540  129.0706 C   0  0  0  0  0  0  0  0  0  0  0  0
    9.0873   44.3405  129.0049 C   0  0  0  0  0  0  0  0  0  0  0  0
    9.1829   45.2218  130.1051 C   0  0  0  0  0  0  0  0  0  0  0  0
    9.7823   44.7113  131.2454 C   0  0  0  0  0  0  0  0  0  0  0  0
   10.0604   45.3018  132.5450 C   0  0  0  0  0  0  0  0  0  0  0  0
    9.4872   46.2833  133.0430 O   0  0  0  0  0  0  0  0  0  0  0  0
    7.1258   51.4543  128.5299 C   0  0  0  0  0  0  0  0  0  0  0  0
    6.9493   52.7787  128.9817 C   0  0  0  0  0  0  0  0  0  0  0  0
    7.0979   53.8770  128.1819 C   0  0  0  0  0  0  0  0  0  0  0  0
    7.4333   53.7414  126.8718 C   0  0  0  0  0  0  0  0  0  0  0  0
    7.6470   54.6612  125.8475 O   0  0  0  0  0  0  0  0  0  0  0  0
    7.9844   53.9657  124.6710 C   0  0  0  0  0  0  0  0  0  0  0  0
    7.9481   52.5982  125.0380 O   0  0  0  0  0  0  0  0  0  0  0  0
    7.6177   52.4792  126.3760 C   0  0  0  0  0  0  0  0  0  0  0  0
    7.4610   51.3622  127.2104 C   0  0  0  0  0  0  0  0  0  0  0  0
  9 10  1  0  0  0
 10 11  1  0  0  0
 10 12  1  0  0  0
 12 13  1  0  0  0
 13 14  2  0  0  0
 14 15  1  0  0  0
 15 16  2  0  0  0
 16 17  1  0  0  0
 17  1  1  0  0  0
  1  2  1  0  0  0
  2  3  1  0  0  0
  3  4  1  0  0  0
  4  5  1  0  0  0
  5  6  1  0  0  0
  4  7  1  0  0  0
  7  8  2  0  0  0
  7 21  1  0  0  0
 21 22  2  0  0  0
 22 23  1  0  0  0
 23 24  2  0  0  0
 24 25  1  0  0  0
 25 26  1  0  0  0
 26 27  1  0  0  0
 27 28  1  0  0  0
 28 29  2  0  0  0
 17 18  2  0  0  0
 18 19  1  0  0  0
 19 20  2  0  0  0
 19 10  1  0  0  0
 18 13  1  0  0  0
  6  1  1  0  0  0
 29 21  1  0  0  0
 28 24  1  0  0  0
M  END
> <minimizedAffinity>
6.95561

> <CNNscore>
0.3559827805

> <CNNaffinity>
6.7234764099

> <CNN_VS>
2.3934419155

> <CNNaffinity_variance>
0.2294974774

$$$$
[H]C([H])=C([H])C(=O)N([H])C1(C(=O)N([H])[C@]2([H])C([H])([H])C([H])([H])[C@]([H])(N3C([H])([H])C([H])([H])N(c4c([H])c(Cl)c(OC([H])([H])[H])c(Cl)c4[H])C([H])([H])C3([H])[H])C([H])([H])C2([H])[H])C([H])([H])C1([H])[H]


 35 38  0  0  0  0  0  0  0  0999 V2000
    7.9890   49.6441  129.4841 C   0  0  0  0  0  0  0  0  0  0  0  0
    7.2037   49.4201  128.2428 C   0  0  0  0  0  0  0  0  0  0  0  0
    7.2722   50.6956  127.4135 C   0  0  0  0  0  0  0  0  0  0  0  0
    7.3580   51.9052  128.3049 C   0  0  0  0  0  0  0  0  0  0  0  0
    6.5878   51.7118  129.5917 C   0  0  0  0  0  0  0  0  0  0  0  0
    7.2112   50.5830  130.3853 C   0  0  0  0  0  0  0  0  0  0  0  0
    8.8135   46.0918  131.4180 N   0  0  0  0  0  0  0  0  0  0  0  0
    9.1416   46.1218  129.9845 C   0  0  0  0  0  0  0  0  0  0  0  0
    8.3908   47.2830  129.3783 C   0  0  0  0  0  0  0  0  0  0  0  0
    8.4310   48.4705  130.1483 N   0  0  0  0  0  0  0  0  0  0  0  0
    8.1403   48.3683  131.5223 C   0  0  0  0  0  0  0  0  0  0  0  0
    7.7394   46.9234  131.8285 C   0  0  0  0  0  0  0  0  0  0  0  0
   11.0835   43.7839  134.0952 C   0  0  0  0  0  0  0  0  0  0  0  0
    9.8970   43.2965  133.6231 C   0  0  0  0  0  0  0  0  0  0  0  0
    9.3347   41.7344  134.1264 Cl  0  0  0  0  0  0  0  0  0  0  0  0
    9.1311   44.0437  132.7379 C   0  0  0  0  0  0  0  0  0  0  0  0
    9.5286   45.2842  132.3074 C   0  0  0  0  0  0  0  0  0  0  0  0
   10.7469   45.7552  132.8084 C   0  0  0  0  0  0  0  0  0  0  0  0
   11.5194   45.0130  133.6950 C   0  0  0  0  0  0  0  0  0  0  0  0
   13.0440   45.6469  134.2979 Cl  0  0  0  0  0  0  0  0  0  0  0  0
   11.6215   43.2677  136.3710 C   0  0  0  0  0  0  0  0  0  0  0  0
   11.8196   43.0122  134.9753 O   0  0  0  0  0  0  0  0  0  0  0  0
    6.7902   53.0211  127.5615 N   0  0  0  0  0  0  0  0  0  0  0  0
    7.3654   53.4372  126.3539 C   0  0  0  0  0  0  0  0  0  0  0  0
    8.3908   52.8150  125.9295 O   0  0  0  0  0  0  0  0  0  0  0  0
    5.9443   53.5250  127.9212 H   0  0  0  0  0  0  0  0  0  0  0  0
    6.8938   54.5643  125.4832 C   0  0  0  0  0  0  0  0  0  0  0  0
    7.7504   55.7840  125.5549 C   0  0  0  0  0  0  0  0  0  0  0  0
    6.3965   55.7862  126.1804 C   0  0  0  0  0  0  0  0  0  0  0  0
    6.3247   54.2119  124.2228 N   0  0  0  0  0  0  0  0  0  0  0  0
    5.0890   54.6396  123.7123 C   0  0  0  0  0  0  0  0  0  0  0  0
    4.3632   55.4111  124.3729 O   0  0  0  0  0  0  0  0  0  0  0  0
    6.8704   53.5591  123.5858 H   0  0  0  0  0  0  0  0  0  0  0  0
    4.5698   54.2298  122.4098 C   0  0  0  0  0  0  0  0  0  0  0  0
    3.7993   53.1884  122.2610 C   0  0  0  0  0  0  0  0  0  0  0  0
 21 22  1  0  0  0
 22 13  1  0  0  0
 13 14  2  0  0  0
 14 15  1  0  0  0
 14 16  1  0  0  0
 16 17  2  0  0  0
 17 18  1  0  0  0
 18 19  2  0  0  0
 19 20  1  0  0  0
 17  7  1  0  0  0
  7  8  1  0  0  0
  8  9  1  0  0  0
  9 10  1  0  0  0
 10  1  1  0  0  0
  1  2  1  0  0  0
  2  3  1  0  0  0
  3  4  1  0  0  0
  4  5  1  0  0  0
  5  6  1  0  0  0
  4 23  1  0  0  0
 23 24  1  0  0  0
 24 25  2  0  0  0
 24 27  1  0  0  0
 27 28  1  0  0  0
 28 29  1  0  0  0
 27 30  1  0  0  0
 30 31  1  0  0  0
 31 32  2  0  0  0
 31 34  1  0  0  0
 34 35  2  0  0  0
 10 11  1  0  0  0
 11 12  1  0  0  0
 19 13  1  0  0  0
 12  7  1  0  0  0
  6  1  1  0  0  0
 29 27  1  0  0  0
 23 26  1  0  0  0
 30 33  1  0  0  0
M  END
> <minimizedAffinity>
4.37646

> <CNNscore>
0.4129972458

> <CNNaffinity>
7.1489777565

> <CNN_VS>
2.9525082111

> <CNNaffinity_variance>
0.9969166517

$$$$
[H]C([H])=C([H])C(=O)N([H])C1(C(=O)N([H])[C@]2([H])C([H])([H])C([H])([H])[C@]([H])(N3C([H])([H])C([H])([H])N(c4c([H])c(Cl)c(OC([H])([H])[H])c(Cl)c4[H])C([H])([H])C3([H])[H])C([H])([H])C2([H])[H])C([H])([H])C1([H])[H]


 35 38  0  0  0  0  0  0  0  0999 V2000
    8.1140   49.6789  129.4569 C   0  0  0  0  0  0  0  0  0  0  0  0
    7.0159   49.4110  128.4924 C   0  0  0  0  0  0  0  0  0  0  0  0
    6.9276   50.6017  127.5471 C   0  0  0  0  0  0  0  0  0  0  0  0
    7.3107   51.8728  128.2559 C   0  0  0  0  0  0  0  0  0  0  0  0
    6.9019   51.8506  129.7115 C   0  0  0  0  0  0  0  0  0  0  0  0
    7.6543   50.7490  130.4276 C   0  0  0  0  0  0  0  0  0  0  0  0
    9.2759   46.1306  131.2172 N   0  0  0  0  0  0  0  0  0  0  0  0
    9.8691   46.4065  129.8998 C   0  0  0  0  0  0  0  0  0  0  0  0
    9.0238   47.4711  129.2430 C   0  0  0  0  0  0  0  0  0  0  0  0
    8.6550   48.5357  130.1006 N   0  0  0  0  0  0  0  0  0  0  0  0
    8.1249   48.2045  131.3624 C   0  0  0  0  0  0  0  0  0  0  0  0
    7.9892   46.6825  131.4487 C   0  0  0  0  0  0  0  0  0  0  0  0
   11.1923   43.7211  134.0753 C   0  0  0  0  0  0  0  0  0  0  0  0
   11.7518   44.9152  133.7158 C   0  0  0  0  0  0  0  0  0  0  0  0
   13.2429   45.4309  134.4371 Cl  0  0  0  0  0  0  0  0  0  0  0  0
   11.1348   45.7263  132.7724 C   0  0  0  0  0  0  0  0  0  0  0  0
    9.9551   45.3669  132.1713 C   0  0  0  0  0  0  0  0  0  0  0  0
    9.4078   44.1397  132.5602 C   0  0  0  0  0  0  0  0  0  0  0  0
   10.0195   43.3220  133.5040 C   0  0  0  0  0  0  0  0  0  0  0  0
    9.2938   41.7877  133.9609 Cl  0  0  0  0  0  0  0  0  0  0  0  0
   11.5545   43.2334  136.3918 C   0  0  0  0  0  0  0  0  0  0  0  0
   11.8346   42.9394  135.0178 O   0  0  0  0  0  0  0  0  0  0  0  0
    6.6244   52.9616  127.5748 N   0  0  0  0  0  0  0  0  0  0  0  0
    7.3057   53.7638  126.6504 C   0  0  0  0  0  0  0  0  0  0  0  0
    8.5327   53.5138  126.4254 O   0  0  0  0  0  0  0  0  0  0  0  0
    5.6128   53.1569  127.7680 H   0  0  0  0  0  0  0  0  0  0  0  0
    6.7338   54.9147  125.8763 C   0  0  0  0  0  0  0  0  0  0  0  0
    5.8172   55.7833  126.6714 C   0  0  0  0  0  0  0  0  0  0  0  0
    5.2645   54.8837  125.6179 C   0  0  0  0  0  0  0  0  0  0  0  0
    7.5881   55.5350  124.9161 N   0  0  0  0  0  0  0  0  0  0  0  0
    7.8323   55.0972  123.6050 C   0  0  0  0  0  0  0  0  0  0  0  0
    7.2757   54.0696  123.1660 O   0  0  0  0  0  0  0  0  0  0  0  0
    8.1059   56.4200  125.1962 H   0  0  0  0  0  0  0  0  0  0  0  0
    8.7279   55.7860  122.6790 C   0  0  0  0  0  0  0  0  0  0  0  0
    8.6138   55.6762  121.3846 C   0  0  0  0  0  0  0  0  0  0  0  0
 21 22  1  0  0  0
 22 13  1  0  0  0
 13 14  2  0  0  0
 14 15  1  0  0  0
 14 16  1  0  0  0
 16 17  2  0  0  0
 17 18  1  0  0  0
 18 19  2  0  0  0
 19 20  1  0  0  0
 17  7  1  0  0  0
  7  8  1  0  0  0
  8  9  1  0  0  0
  9 10  1  0  0  0
 10  1  1  0  0  0
  1  2  1  0  0  0
  2  3  1  0  0  0
  3  4  1  0  0  0
  4  5  1  0  0  0
  5  6  1  0  0  0
  4 23  1  0  0  0
 23 24  1  0  0  0
 24 25  2  0  0  0
 24 27  1  0  0  0
 27 28  1  0  0  0
 28 29  1  0  0  0
 27 30  1  0  0  0
 30 31  1  0  0  0
 31 32  2  0  0  0
 31 34  1  0  0  0
 34 35  2  0  0  0
 10 11  1  0  0  0
 11 12  1  0  0  0
 19 13  1  0  0  0
 12  7  1  0  0  0
  6  1  1  0  0  0
 29 27  1  0  0  0
 23 26  1  0  0  0
 30 33  1  0  0  0
M  END
> <minimizedAffinity>
4.03776

> <CNNscore>
0.3717211485

> <CNNaffinity>
7.1140069962

> <CNN_VS>
2.6444268227

> <CNNaffinity_variance>
0.9730796814

$$$$
[H]C([H])=C([H])C(=O)N([H])C1(C(=O)N([H])[C@]2([H])C([H])([H])C([H])([H])[C@]([H])(N3C([H])([H])C([H])([H])N(c4c([H])c(Cl)c(OC([H])([H])[H])c(Cl)c4[H])C([H])([H])C3([H])[H])C([H])([H])C2([H])[H])C([H])([H])C1([H])[H]


 35 38  0  0  0  0  0  0  0  0999 V2000
    8.0870   49.5861  129.3488 C   0  0  0  0  0  0  0  0  0  0  0  0
    7.1098   49.3291  128.2594 C   0  0  0  0  0  0  0  0  0  0  0  0
    7.0656   50.5670  127.3737 C   0  0  0  0  0  0  0  0  0  0  0  0
    7.3126   51.8103  128.1851 C   0  0  0  0  0  0  0  0  0  0  0  0
    6.7549   51.6884  129.5853 C   0  0  0  0  0  0  0  0  0  0  0  0
    7.4787   50.5795  130.3193 C   0  0  0  0  0  0  0  0  0  0  0  0
    9.2938   45.9739  130.9407 N   0  0  0  0  0  0  0  0  0  0  0  0
   10.1860   46.5441  129.9197 C   0  0  0  0  0  0  0  0  0  0  0  0
    9.3942   47.5848  129.1651 C   0  0  0  0  0  0  0  0  0  0  0  0
    8.6104   48.4311  129.9861 N   0  0  0  0  0  0  0  0  0  0  0  0
    7.8035   47.8245  130.9678 C   0  0  0  0  0  0  0  0  0  0  0  0
    7.9192   46.3054  130.8218 C   0  0  0  0  0  0  0  0  0  0  0  0
   10.9215   43.6130  134.0105 C   0  0  0  0  0  0  0  0  0  0  0  0
    9.7223   43.2639  133.4552 C   0  0  0  0  0  0  0  0  0  0  0  0
    8.8803   41.8542  134.0150 Cl  0  0  0  0  0  0  0  0  0  0  0  0
    9.1666   44.0312  132.4398 C   0  0  0  0  0  0  0  0  0  0  0  0
    9.7899   45.1551  131.9596 C   0  0  0  0  0  0  0  0  0  0  0  0
   11.0151   45.4859  132.5482 C   0  0  0  0  0  0  0  0  0  0  0  0
   11.5780   44.7227  133.5652 C   0  0  0  0  0  0  0  0  0  0  0  0
   13.1204   45.1784  134.2745 Cl  0  0  0  0  0  0  0  0  0  0  0  0
   11.4096   43.3736  136.3428 C   0  0  0  0  0  0  0  0  0  0  0  0
   11.4446   42.8255  135.0196 O   0  0  0  0  0  0  0  0  0  0  0  0
    6.6514   52.9072  127.4922 N   0  0  0  0  0  0  0  0  0  0  0  0
    7.3345   53.6487  126.5198 C   0  0  0  0  0  0  0  0  0  0  0  0
    8.5408   53.3368  126.2619 O   0  0  0  0  0  0  0  0  0  0  0  0
    5.6568   53.1537  127.7128 H   0  0  0  0  0  0  0  0  0  0  0  0
    6.7871   54.7996  125.7282 C   0  0  0  0  0  0  0  0  0  0  0  0
    7.1738   54.7815  124.2870 C   0  0  0  0  0  0  0  0  0  0  0  0
    7.7783   55.7865  125.2084 C   0  0  0  0  0  0  0  0  0  0  0  0
    5.4785   55.2544  126.0706 N   0  0  0  0  0  0  0  0  0  0  0  0
    4.3594   55.3012  125.2245 C   0  0  0  0  0  0  0  0  0  0  0  0
    4.4443   54.9176  124.0396 O   0  0  0  0  0  0  0  0  0  0  0  0
    5.3057   55.5998  127.0609 H   0  0  0  0  0  0  0  0  0  0  0  0
    3.0484   55.7866  125.6484 C   0  0  0  0  0  0  0  0  0  0  0  0
    2.2254   55.0558  126.3477 C   0  0  0  0  0  0  0  0  0  0  0  0
 21 22  1  0  0  0
 22 13  1  0  0  0
 13 14  2  0  0  0
 14 15  1  0  0  0
 14 16  1  0  0  0
 16 17  2  0  0  0
 17 18  1  0  0  0
 18 19  2  0  0  0
 19 20  1  0  0  0
 17  7  1  0  0  0
  7  8  1  0  0  0
  8  9  1  0  0  0
  9 10  1  0  0  0
 10  1  1  0  0  0
  1  2  1  0  0  0
  2  3  1  0  0  0
  3  4  1  0  0  0
  4  5  1  0  0  0
  5  6  1  0  0  0
  4 23  1  0  0  0
 23 24  1  0  0  0
 24 25  2  0  0  0
 24 27  1  0  0  0
 27 28  1  0  0  0
 28 29  1  0  0  0
 27 30  1  0  0  0
 30 31  1  0  0  0
 31 32  2  0  0  0
 31 34  1  0  0  0
 34 35  2  0  0  0
 10 11  1  0  0  0
 11 12  1  0  0  0
 19 13  1  0  0  0
 12  7  1  0  0  0
  6  1  1  0  0  0
 29 27  1  0  0  0
 23 26  1  0  0  0
 30 33  1  0  0  0
M  END
> <minimizedAffinity>
3.57685

> <CNNscore>
0.3391184509

> <CNNaffinity>
6.9707870483

> <CNN_VS>
2.3639225960

> <CNNaffinity_variance>
0.6267360449

$$$$
[H]C([H])=C([H])C(=O)N([H])C1(C(=O)N([H])[C@]2([H])C([H])([H])C([H])([H])[C@]([H])(N3C([H])([H])C([H])([H])N(c4c([H])c(Cl)c(OC([H])([H])[H])c(Cl)c4[H])C([H])([H])C3([H])[H])C([H])([H])C2([H])[H])C([H])([H])C1([H])[H]


 35 38  0  0  0  0  0  0  0  0999 V2000
    7.9509   49.9776  129.5068 C   0  0  0  0  0  0  0  0  0  0  0  0
    7.0813   49.6448  128.3489 C   0  0  0  0  0  0  0  0  0  0  0  0
    7.1288   50.8187  127.3800 C   0  0  0  0  0  0  0  0  0  0  0  0
    7.3035   52.1152  128.1239 C   0  0  0  0  0  0  0  0  0  0  0  0
    6.6136   52.0895  129.4692 C   0  0  0  0  0  0  0  0  0  0  0  0
    7.2577   51.0347  130.3438 C   0  0  0  0  0  0  0  0  0  0  0  0
    9.7012   46.9711  131.7286 N   0  0  0  0  0  0  0  0  0  0  0  0
    8.8585   47.9084  132.4868 C   0  0  0  0  0  0  0  0  0  0  0  0
    8.6788   49.1398  131.6319 C   0  0  0  0  0  0  0  0  0  0  0  0
    8.4046   48.8700  130.2693 N   0  0  0  0  0  0  0  0  0  0  0  0
    9.2272   47.9366  129.6097 C   0  0  0  0  0  0  0  0  0  0  0  0
   10.3332   47.4974  130.5721 C   0  0  0  0  0  0  0  0  0  0  0  0
   10.3293   43.0228  133.0185 C   0  0  0  0  0  0  0  0  0  0  0  0
    9.1524   43.3532  132.4069 C   0  0  0  0  0  0  0  0  0  0  0  0
    7.9281   42.1483  132.1649 Cl  0  0  0  0  0  0  0  0  0  0  0  0
    8.9246   44.6528  131.9736 C   0  0  0  0  0  0  0  0  0  0  0  0
    9.8585   45.6440  132.1397 C   0  0  0  0  0  0  0  0  0  0  0  0
   11.0521   45.2746  132.7688 C   0  0  0  0  0  0  0  0  0  0  0  0
   11.2876   43.9755  133.2053 C   0  0  0  0  0  0  0  0  0  0  0  0
   12.8036   43.5586  133.9912 Cl  0  0  0  0  0  0  0  0  0  0  0  0
   11.1689   40.8382  132.5108 C   0  0  0  0  0  0  0  0  0  0  0  0
   10.5215   41.7190  133.4369 O   0  0  0  0  0  0  0  0  0  0  0  0
    6.7177   53.1609  127.2970 N   0  0  0  0  0  0  0  0  0  0  0  0
    7.4882   53.8169  126.3285 C   0  0  0  0  0  0  0  0  0  0  0  0
    8.7060   53.4737  126.1940 O   0  0  0  0  0  0  0  0  0  0  0  0
    5.7128   53.4339  127.4168 H   0  0  0  0  0  0  0  0  0  0  0  0
    7.0245   54.9075  125.4085 C   0  0  0  0  0  0  0  0  0  0  0  0
    7.4469   54.7227  123.9893 C   0  0  0  0  0  0  0  0  0  0  0  0
    8.0808   55.7842  124.8234 C   0  0  0  0  0  0  0  0  0  0  0  0
    5.7340   55.4612  125.6624 N   0  0  0  0  0  0  0  0  0  0  0  0
    4.5472   55.1722  124.9706 C   0  0  0  0  0  0  0  0  0  0  0  0
    4.5463   54.3535  124.0283 O   0  0  0  0  0  0  0  0  0  0  0  0
    5.6325   56.1684  126.4494 H   0  0  0  0  0  0  0  0  0  0  0  0
    3.2600   55.7861  125.2873 C   0  0  0  0  0  0  0  0  0  0  0  0
    2.5271   55.3937  126.2920 C   0  0  0  0  0  0  0  0  0  0  0  0
 21 22  1  0  0  0
 22 13  1  0  0  0
 13 14  2  0  0  0
 14 15  1  0  0  0
 14 16  1  0  0  0
 16 17  2  0  0  0
 17 18  1  0  0  0
 18 19  2  0  0  0
 19 20  1  0  0  0
 17  7  1  0  0  0
  7  8  1  0  0  0
  8  9  1  0  0  0
  9 10  1  0  0  0
 10  1  1  0  0  0
  1  2  1  0  0  0
  2  3  1  0  0  0
  3  4  1  0  0  0
  4  5  1  0  0  0
  5  6  1  0  0  0
  4 23  1  0  0  0
 23 24  1  0  0  0
 24 25  2  0  0  0
 24 27  1  0  0  0
 27 28  1  0  0  0
 28 29  1  0  0  0
 27 30  1  0  0  0
 30 31  1  0  0  0
 31 32  2  0  0  0
 31 34  1  0  0  0
 34 35  2  0  0  0
 10 11  1  0  0  0
 11 12  1  0  0  0
 19 13  1  0  0  0
 12  7  1  0  0  0
  6  1  1  0  0  0
 29 27  1  0  0  0
 23 26  1  0  0  0
 30 33  1  0  0  0
M  END
> <minimizedAffinity>
3.77159

> <CNNscore>
0.3254326880

> <CNNaffinity>
6.9423918724

> <CNN_VS>
2.2592811584

> <CNNaffinity_variance>
0.7968562841

$$$$
[H]C([H])=C([H])C(=O)N([H])C1(C(=O)N([H])[C@]2([H])C([H])([H])C([H])([H])[C@]([H])(N3C([H])([H])C([H])([H])N(c4c([H])c(Cl)c(OC([H])([H])[H])c(Cl)c4[H])C([H])([H])C3([H])[H])C([H])([H])C2([H])[H])C([H])([H])C1([H])[H]


 35 38  0  0  0  0  0  0  0  0999 V2000
    7.8203   49.5328  129.4155 C   0  0  0  0  0  0  0  0  0  0  0  0
    6.9857   49.4291  128.1906 C   0  0  0  0  0  0  0  0  0  0  0  0
    7.1455   50.7262  127.4087 C   0  0  0  0  0  0  0  0  0  0  0  0
    7.3622   51.8864  128.3425 C   0  0  0  0  0  0  0  0  0  0  0  0
    6.6120   51.7095  129.6434 C   0  0  0  0  0  0  0  0  0  0  0  0
    7.1532   50.4991  130.3745 C   0  0  0  0  0  0  0  0  0  0  0  0
    8.6673   46.1249  131.5852 N   0  0  0  0  0  0  0  0  0  0  0  0
    7.4861   46.0412  130.7126 C   0  0  0  0  0  0  0  0  0  0  0  0
    7.0888   47.4547  130.3613 C   0  0  0  0  0  0  0  0  0  0  0  0
    8.1735   48.2989  130.0211 N   0  0  0  0  0  0  0  0  0  0  0  0
    9.2892   48.3072  130.8801 C   0  0  0  0  0  0  0  0  0  0  0  0
    8.9820   47.4151  132.0852 C   0  0  0  0  0  0  0  0  0  0  0  0
   11.0552   42.7673  132.4047 C   0  0  0  0  0  0  0  0  0  0  0  0
    9.8249   42.8787  132.9897 C   0  0  0  0  0  0  0  0  0  0  0  0
    9.2548   41.6401  134.0622 Cl  0  0  0  0  0  0  0  0  0  0  0  0
    9.0202   43.9809  132.7326 C   0  0  0  0  0  0  0  0  0  0  0  0
    9.4218   44.9888  131.8929 C   0  0  0  0  0  0  0  0  0  0  0  0
   10.6854   44.8457  131.3099 C   0  0  0  0  0  0  0  0  0  0  0  0
   11.4969   43.7451  131.5623 C   0  0  0  0  0  0  0  0  0  0  0  0
   13.0780   43.6092  130.8064 Cl  0  0  0  0  0  0  0  0  0  0  0  0
   11.4651   40.4393  132.0208 C   0  0  0  0  0  0  0  0  0  0  0  0
   11.8292   41.6560  132.6838 O   0  0  0  0  0  0  0  0  0  0  0  0
    6.8764   53.0771  127.6592 N   0  0  0  0  0  0  0  0  0  0  0  0
    7.3490   53.4069  126.3825 C   0  0  0  0  0  0  0  0  0  0  0  0
    8.2085   52.6402  125.8419 O   0  0  0  0  0  0  0  0  0  0  0  0
    6.1672   53.7002  128.1148 H   0  0  0  0  0  0  0  0  0  0  0  0
    6.9432   54.5947  125.5607 C   0  0  0  0  0  0  0  0  0  0  0  0
    7.8223   55.7865  125.7440 C   0  0  0  0  0  0  0  0  0  0  0  0
    6.4412   55.7853  126.3070 C   0  0  0  0  0  0  0  0  0  0  0  0
    6.4254   54.3315  124.2572 N   0  0  0  0  0  0  0  0  0  0  0  0
    5.0916   54.4685  123.8419 C   0  0  0  0  0  0  0  0  0  0  0  0
    4.2161   54.8600  124.6409 O   0  0  0  0  0  0  0  0  0  0  0  0
    7.0962   53.9948  123.5046 H   0  0  0  0  0  0  0  0  0  0  0  0
    4.6355   54.1736  122.4857 C   0  0  0  0  0  0  0  0  0  0  0  0
    3.6800   53.3210  122.2398 C   0  0  0  0  0  0  0  0  0  0  0  0
 21 22  1  0  0  0
 22 13  1  0  0  0
 13 14  2  0  0  0
 14 15  1  0  0  0
 14 16  1  0  0  0
 16 17  2  0  0  0
 17 18  1  0  0  0
 18 19  2  0  0  0
 19 20  1  0  0  0
 17  7  1  0  0  0
  7  8  1  0  0  0
  8  9  1  0  0  0
  9 10  1  0  0  0
 10  1  1  0  0  0
  1  2  1  0  0  0
  2  3  1  0  0  0
  3  4  1  0  0  0
  4  5  1  0  0  0
  5  6  1  0  0  0
  4 23  1  0  0  0
 23 24  1  0  0  0
 24 25  2  0  0  0
 24 27  1  0  0  0
 27 28  1  0  0  0
 28 29  1  0  0  0
 27 30  1  0  0  0
 30 31  1  0  0  0
 31 32  2  0  0  0
 31 34  1  0  0  0
 34 35  2  0  0  0
 10 11  1  0  0  0
 11 12  1  0  0  0
 19 13  1  0  0  0
 12  7  1  0  0  0
  6  1  1  0  0  0
 29 27  1  0  0  0
 23 26  1  0  0  0
 30 33  1  0  0  0
M  END
> <minimizedAffinity>
4.25364

> <CNNscore>
0.3116599321

> <CNNaffinity>
6.9998407364

> <CNN_VS>
2.1815698147

> <CNNaffinity_variance>
0.4954131246

$$$$
[H]C([H])=C([H])C(=O)N([H])C1(C(=O)N([H])[C@]2([H])C([H])([H])C([H])([H])[C@]([H])(N3C([H])([H])C([H])([H])N(c4c([H])c(Cl)c(OC([H])([H])[H])c(Cl)c4[H])C([H])([H])C3([H])[H])C([H])([H])C2([H])[H])C([H])([H])C1([H])[H]


 35 38  0  0  0  0  0  0  0  0999 V2000
    7.9046   50.0882  129.4035 C   0  0  0  0  0  0  0  0  0  0  0  0
    7.1577   49.7497  128.1644 C   0  0  0  0  0  0  0  0  0  0  0  0
    7.2505   50.9449  127.2252 C   0  0  0  0  0  0  0  0  0  0  0  0
    7.3083   52.2306  128.0052 C   0  0  0  0  0  0  0  0  0  0  0  0
    6.4992   52.1521  129.2803 C   0  0  0  0  0  0  0  0  0  0  0  0
    7.0990   51.1023  130.1917 C   0  0  0  0  0  0  0  0  0  0  0  0
    8.7526   46.9577  131.9568 N   0  0  0  0  0  0  0  0  0  0  0  0
    8.1343   46.5795  130.6770 C   0  0  0  0  0  0  0  0  0  0  0  0
    7.5128   47.8263  130.0951 C   0  0  0  0  0  0  0  0  0  0  0  0
    8.3270   48.9812  130.1847 N   0  0  0  0  0  0  0  0  0  0  0  0
    8.9181   49.2689  131.4300 C   0  0  0  0  0  0  0  0  0  0  0  0
    8.4201   48.2450  132.4528 C   0  0  0  0  0  0  0  0  0  0  0  0
   11.2217   44.2177  133.9676 C   0  0  0  0  0  0  0  0  0  0  0  0
   11.6562   45.4986  133.7710 C   0  0  0  0  0  0  0  0  0  0  0  0
   13.2167   45.9879  134.3497 Cl  0  0  0  0  0  0  0  0  0  0  0  0
   10.8557   46.4197  133.1081 C   0  0  0  0  0  0  0  0  0  0  0  0
    9.6137   46.0860  132.6302 C   0  0  0  0  0  0  0  0  0  0  0  0
    9.1978   44.7681  132.8470 C   0  0  0  0  0  0  0  0  0  0  0  0
    9.9934   43.8401  133.5099 C   0  0  0  0  0  0  0  0  0  0  0  0
    9.4277   42.1946  133.7586 Cl  0  0  0  0  0  0  0  0  0  0  0  0
   11.8114   43.1638  136.0357 C   0  0  0  0  0  0  0  0  0  0  0  0
   12.0456   43.3277  134.6318 O   0  0  0  0  0  0  0  0  0  0  0  0
    6.7625   53.2725  127.1466 N   0  0  0  0  0  0  0  0  0  0  0  0
    7.5487   53.8494  126.1410 C   0  0  0  0  0  0  0  0  0  0  0  0
    8.7447   53.4383  126.0014 O   0  0  0  0  0  0  0  0  0  0  0  0
    5.7752   53.6018  127.2709 H   0  0  0  0  0  0  0  0  0  0  0  0
    7.1255   54.9260  125.1856 C   0  0  0  0  0  0  0  0  0  0  0  0
    7.5978   54.7135  123.7862 C   0  0  0  0  0  0  0  0  0  0  0  0
    8.2078   55.7860  124.6239 C   0  0  0  0  0  0  0  0  0  0  0  0
    5.8302   55.4916  125.3827 N   0  0  0  0  0  0  0  0  0  0  0  0
    4.6555   55.1568  124.6910 C   0  0  0  0  0  0  0  0  0  0  0  0
    4.6714   54.2804  123.8023 O   0  0  0  0  0  0  0  0  0  0  0  0
    5.7147   56.2467  126.1218 H   0  0  0  0  0  0  0  0  0  0  0  0
    3.3624   55.7864  124.9470 C   0  0  0  0  0  0  0  0  0  0  0  0
    2.6401   55.4984  125.9939 C   0  0  0  0  0  0  0  0  0  0  0  0
 21 22  1  0  0  0
 22 13  1  0  0  0
 13 14  2  0  0  0
 14 15  1  0  0  0
 14 16  1  0  0  0
 16 17  2  0  0  0
 17 18  1  0  0  0
 18 19  2  0  0  0
 19 20  1  0  0  0
 17  7  1  0  0  0
  7  8  1  0  0  0
  8  9  1  0  0  0
  9 10  1  0  0  0
 10  1  1  0  0  0
  1  2  1  0  0  0
  2  3  1  0  0  0
  3  4  1  0  0  0
  4  5  1  0  0  0
  5  6  1  0  0  0
  4 23  1  0  0  0
 23 24  1  0  0  0
 24 25  2  0  0  0
 24 27  1  0  0  0
 27 28  1  0  0  0
 28 29  1  0  0  0
 27 30  1  0  0  0
 30 31  1  0  0  0
 31 32  2  0  0  0
 31 34  1  0  0  0
 34 35  2  0  0  0
 10 11  1  0  0  0
 11 12  1  0  0  0
 19 13  1  0  0  0
 12  7  1  0  0  0
  6  1  1  0  0  0
 29 27  1  0  0  0
 23 26  1  0  0  0
 30 33  1  0  0  0
M  END
> <minimizedAffinity>
3.94180

> <CNNscore>
0.3080966175

> <CNNaffinity>
6.9820566177

> <CNN_VS>
2.1511480808

> <CNNaffinity_variance>
0.6233209372

$$$$
[H]C([H])=C([H])C(=O)N([H])C1(C(=O)N([H])[C@]2([H])C([H])([H])C([H])([H])[C@]([H])(N3C([H])([H])C([H])([H])N(c4c([H])c(Cl)c(OC([H])([H])[H])c(Cl)c4[H])C([H])([H])C3([H])[H])C([H])([H])C2([H])[H])C([H])([H])C1([H])[H]


 35 38  0  0  0  0  0  0  0  0999 V2000
    8.5059   48.8144  130.2474 C   0  0  0  0  0  0  0  0  0  0  0  0
    7.5930   48.4447  131.3599 C   0  0  0  0  0  0  0  0  0  0  0  0
    8.3690   47.5540  132.3209 C   0  0  0  0  0  0  0  0  0  0  0  0
    9.3813   46.7249  131.5773 C   0  0  0  0  0  0  0  0  0  0  0  0
    8.8933   46.3451  130.1974 C   0  0  0  0  0  0  0  0  0  0  0  0
    8.7119   47.5978  129.3665 C   0  0  0  0  0  0  0  0  0  0  0  0
    7.0012   52.1212  128.2878 N   0  0  0  0  0  0  0  0  0  0  0  0
    7.7479   52.4042  129.5231 C   0  0  0  0  0  0  0  0  0  0  0  0
    7.8285   51.1135  130.3023 C   0  0  0  0  0  0  0  0  0  0  0  0
    8.1427   49.9768  129.5188 N   0  0  0  0  0  0  0  0  0  0  0  0
    7.4144   49.7815  128.3295 C   0  0  0  0  0  0  0  0  0  0  0  0
    6.3397   50.8669  128.2335 C   0  0  0  0  0  0  0  0  0  0  0  0
    7.0334   54.8734  125.1143 C   0  0  0  0  0  0  0  0  0  0  0  0
    5.8793   54.6683  125.8172 C   0  0  0  0  0  0  0  0  0  0  0  0
    4.4388   55.5406  125.4006 Cl  0  0  0  0  0  0  0  0  0  0  0  0
    5.8472   53.7624  126.8693 C   0  0  0  0  0  0  0  0  0  0  0  0
    6.9571   53.0466  127.2406 C   0  0  0  0  0  0  0  0  0  0  0  0
    8.1223   53.2787  126.5022 C   0  0  0  0  0  0  0  0  0  0  0  0
    8.1624   54.1840  125.4475 C   0  0  0  0  0  0  0  0  0  0  0  0
    9.6505   54.4420  124.5482 Cl  0  0  0  0  0  0  0  0  0  0  0  0
    8.1077   55.6890  123.1354 C   0  0  0  0  0  0  0  0  0  0  0  0
    7.0284   55.7830  124.0728 O   0  0  0  0  0  0  0  0  0  0  0  0
    9.6022   45.5194  132.3637 N   0  0  0  0  0  0  0  0  0  0  0  0
   10.7120   45.4173  133.2122 C   0  0  0  0  0  0  0  0  0  0  0  0
   11.5148   46.4025  133.2748 O   0  0  0  0  0  0  0  0  0  0  0  0
    8.9328   44.7149  132.3042 H   0  0  0  0  0  0  0  0  0  0  0  0
   11.0680   44.2447  134.0778 C   0  0  0  0  0  0  0  0  0  0  0  0
   10.6797   44.4089  135.5092 C   0  0  0  0  0  0  0  0  0  0  0  0
   12.1166   44.4719  135.1147 C   0  0  0  0  0  0  0  0  0  0  0  0
   10.9507   42.9495  133.4904 N   0  0  0  0  0  0  0  0  0  0  0  0
   11.5669   42.5057  132.3098 C   0  0  0  0  0  0  0  0  0  0  0  0
   12.3102   43.2677  131.6579 O   0  0  0  0  0  0  0  0  0  0  0  0
   10.3393   42.2275  133.9749 H   0  0  0  0  0  0  0  0  0  0  0  0
   11.3937   41.1606  131.7669 C   0  0  0  0  0  0  0  0  0  0  0  0
   10.2831   40.7716  131.2050 C   0  0  0  0  0  0  0  0  0  0  0  0
 21 22  1  0  0  0
 22 13  1  0  0  0
 13 14  2  0  0  0
 14 15  1  0  0  0
 14 16  1  0  0  0
 16 17  2  0  0  0
 17 18  1  0  0  0
 18 19  2  0  0  0
 19 20  1  0  0  0
 17  7  1  0  0  0
  7  8  1  0  0  0
  8  9  1  0  0  0
  9 10  1  0  0  0
 10  1  1  0  0  0
  1  2  1  0  0  0
  2  3  1  0  0  0
  3  4  1  0  0  0
  4  5  1  0  0  0
  5  6  1  0  0  0
  4 23  1  0  0  0
 23 24  1  0  0  0
 24 25  2  0  0  0
 24 27  1  0  0  0
 27 28  1  0  0  0
 28 29  1  0  0  0
 27 30  1  0  0  0
 30 31  1  0  0  0
 31 32  2  0  0  0
 31 34  1  0  0  0
 34 35  2  0  0  0
 10 11  1  0  0  0
 11 12  1  0  0  0
 19 13  1  0  0  0
 12  7  1  0  0  0
  6  1  1  0  0  0
 29 27  1  0  0  0
 23 26  1  0  0  0
 30 33  1  0  0  0
M  END
> <minimizedAffinity>
10.67375

> <CNNscore>
0.3033380508

> <CNNaffinity>
6.7929024696

> <CNN_VS>
2.0605456829

> <CNNaffinity_variance>
0.7053385973

$$$$
[H]C([H])=C([H])C(=O)N([H])C1(C(=O)N([H])[C@]2([H])C([H])([H])C([H])([H])[C@]([H])(N3C([H])([H])C([H])([H])N(c4c([H])c(Cl)c(OC([H])([H])[H])c(Cl)c4[H])C([H])([H])C3([H])[H])C([H])([H])C2([H])[H])C([H])([H])C1([H])[H]


 35 38  0  0  0  0  0  0  0  0999 V2000
    6.2929   48.7351  129.6732 C   0  0  0  0  0  0  0  0  0  0  0  0
    7.0625   49.8538  129.0698 C   0  0  0  0  0  0  0  0  0  0  0  0
    6.1226   51.0444  128.9352 C   0  0  0  0  0  0  0  0  0  0  0  0
    4.7136   50.5829  128.6770 C   0  0  0  0  0  0  0  0  0  0  0  0
    4.6787   49.3147  127.8543 C   0  0  0  0  0  0  0  0  0  0  0  0
    5.3324   48.1928  128.6330 C   0  0  0  0  0  0  0  0  0  0  0  0
    8.2840   45.8704  131.8796 N   0  0  0  0  0  0  0  0  0  0  0  0
    7.3101   45.3540  130.9058 C   0  0  0  0  0  0  0  0  0  0  0  0
    6.4002   46.4997  130.5331 C   0  0  0  0  0  0  0  0  0  0  0  0
    7.0700   47.7246  130.2969 N   0  0  0  0  0  0  0  0  0  0  0  0
    8.0161   48.1463  131.2508 C   0  0  0  0  0  0  0  0  0  0  0  0
    8.0069   47.1545  132.4164 C   0  0  0  0  0  0  0  0  0  0  0  0
   11.7315   43.7695  133.0405 C   0  0  0  0  0  0  0  0  0  0  0  0
   10.7507   43.1224  132.3423 C   0  0  0  0  0  0  0  0  0  0  0  0
   10.9308   41.4449  131.9384 Cl  0  0  0  0  0  0  0  0  0  0  0  0
    9.6029   43.7984  131.9497 C   0  0  0  0  0  0  0  0  0  0  0  0
    9.4096   45.1247  132.2427 C   0  0  0  0  0  0  0  0  0  0  0  0
   10.4310   45.7587  132.9579 C   0  0  0  0  0  0  0  0  0  0  0  0
   11.5832   45.0887  133.3545 C   0  0  0  0  0  0  0  0  0  0  0  0
   12.8400   45.9278  134.2522 Cl  0  0  0  0  0  0  0  0  0  0  0  0
   13.8919   42.9366  132.4286 C   0  0  0  0  0  0  0  0  0  0  0  0
   12.8607   43.0646  133.4149 O   0  0  0  0  0  0  0  0  0  0  0  0
    4.0434   51.6523  127.9506 N   0  0  0  0  0  0  0  0  0  0  0  0
    2.7261   51.4906  127.5025 C   0  0  0  0  0  0  0  0  0  0  0  0
    2.1374   50.3898  127.7481 O   0  0  0  0  0  0  0  0  0  0  0  0
    4.5389   52.5551  127.7555 H   0  0  0  0  0  0  0  0  0  0  0  0
    1.9116   52.4980  126.7457 C   0  0  0  0  0  0  0  0  0  0  0  0
    0.9480   53.2582  127.5944 C   0  0  0  0  0  0  0  0  0  0  0  0
    0.4478   52.2299  126.6369 C   0  0  0  0  0  0  0  0  0  0  0  0
    2.5653   53.1887  125.6817 N   0  0  0  0  0  0  0  0  0  0  0  0
    2.9391   54.5417  125.6656 C   0  0  0  0  0  0  0  0  0  0  0  0
    2.7110   55.2738  126.6506 O   0  0  0  0  0  0  0  0  0  0  0  0
    2.8042   52.6479  124.7984 H   0  0  0  0  0  0  0  0  0  0  0  0
    3.6034   55.1808  124.5324 C   0  0  0  0  0  0  0  0  0  0  0  0
    4.8151   55.6564  124.6102 C   0  0  0  0  0  0  0  0  0  0  0  0
 21 22  1  0  0  0
 22 13  1  0  0  0
 13 14  2  0  0  0
 14 15  1  0  0  0
 14 16  1  0  0  0
 16 17  2  0  0  0
 17 18  1  0  0  0
 18 19  2  0  0  0
 19 20  1  0  0  0
 17  7  1  0  0  0
  7  8  1  0  0  0
  8  9  1  0  0  0
  9 10  1  0  0  0
 10  1  1  0  0  0
  1  2  1  0  0  0
  2  3  1  0  0  0
  3  4  1  0  0  0
  4  5  1  0  0  0
  5  6  1  0  0  0
  4 23  1  0  0  0
 23 24  1  0  0  0
 24 25  2  0  0  0
 24 27  1  0  0  0
 27 28  1  0  0  0
 28 29  1  0  0  0
 27 30  1  0  0  0
 30 31  1  0  0  0
 31 32  2  0  0  0
 31 34  1  0  0  0
 34 35  2  0  0  0
 10 11  1  0  0  0
 11 12  1  0  0  0
 19 13  1  0  0  0
 12  7  1  0  0  0
  6  1  1  0  0  0
 29 27  1  0  0  0
 23 26  1  0  0  0
 30 33  1  0  0  0
M  END
> <minimizedAffinity>
14.28079

> <CNNscore>
0.2849555016

> <CNNaffinity>
6.9097123146

> <CNN_VS>
1.9689605236

> <CNNaffinity_variance>
0.8646839261

$$$$
[H]C([H])=C([H])C(=O)N([H])C1(C(=O)N([H])[C@]2([H])C([H])([H])C([H])([H])[C@]([H])(N3C([H])([H])C([H])([H])N(c4c([H])c(Cl)c(OC([H])([H])[H])c(Cl)c4[H])C([H])([H])C3([H])[H])C([H])([H])C2([H])[H])C([H])([H])C1([H])[H]


 35 38  0  0  0  0  0  0  0  0999 V2000
    6.7501   49.0642  129.6217 C   0  0  0  0  0  0  0  0  0  0  0  0
    7.3580   50.1943  128.8726 C   0  0  0  0  0  0  0  0  0  0  0  0
    6.3153   51.2997  128.7731 C   0  0  0  0  0  0  0  0  0  0  0  0
    4.9292   50.7180  128.6997 C   0  0  0  0  0  0  0  0  0  0  0  0
    4.9111   49.3985  127.9615 C   0  0  0  0  0  0  0  0  0  0  0  0
    5.7326   48.3832  128.7276 C   0  0  0  0  0  0  0  0  0  0  0  0
    9.3526   46.1518  130.9572 N   0  0  0  0  0  0  0  0  0  0  0  0
    9.9851   47.3524  130.3898 C   0  0  0  0  0  0  0  0  0  0  0  0
    8.9325   48.0727  129.5819 C   0  0  0  0  0  0  0  0  0  0  0  0
    7.6684   48.1587  130.2139 N   0  0  0  0  0  0  0  0  0  0  0  0
    7.1333   46.9797  130.7675 C   0  0  0  0  0  0  0  0  0  0  0  0
    8.0741   45.8179  130.4398 C   0  0  0  0  0  0  0  0  0  0  0  0
   11.1356   43.7769  133.9283 C   0  0  0  0  0  0  0  0  0  0  0  0
   11.7695   44.9094  133.4999 C   0  0  0  0  0  0  0  0  0  0  0  0
   13.2997   45.3619  134.1806 Cl  0  0  0  0  0  0  0  0  0  0  0  0
   11.1975   45.7080  132.5182 C   0  0  0  0  0  0  0  0  0  0  0  0
    9.9898   45.3968  131.9465 C   0  0  0  0  0  0  0  0  0  0  0  0
    9.3662   44.2320  132.4061 C   0  0  0  0  0  0  0  0  0  0  0  0
    9.9325   43.4273  133.3886 C   0  0  0  0  0  0  0  0  0  0  0  0
    9.1111   41.9722  133.9342 Cl  0  0  0  0  0  0  0  0  0  0  0  0
   11.4269   43.3430  136.2654 C   0  0  0  0  0  0  0  0  0  0  0  0
   11.7348   43.0060  134.9074 O   0  0  0  0  0  0  0  0  0  0  0  0
    4.1012   51.6833  127.9904 N   0  0  0  0  0  0  0  0  0  0  0  0
    2.8179   51.3328  127.5516 C   0  0  0  0  0  0  0  0  0  0  0  0
    2.4008   50.1547  127.7903 O   0  0  0  0  0  0  0  0  0  0  0  0
    4.4558   52.6513  127.8008 H   0  0  0  0  0  0  0  0  0  0  0  0
    1.8560   52.2156  126.8125 C   0  0  0  0  0  0  0  0  0  0  0  0
    0.8258   52.8521  127.6844 C   0  0  0  0  0  0  0  0  0  0  0  0
    0.4378   51.7561  126.7503 C   0  0  0  0  0  0  0  0  0  0  0  0
    2.3816   52.9742  125.7240 N   0  0  0  0  0  0  0  0  0  0  0  0
    2.6444   54.3531  125.7132 C   0  0  0  0  0  0  0  0  0  0  0  0
    2.4234   55.0483  126.7261 O   0  0  0  0  0  0  0  0  0  0  0  0
    2.6048   52.4689  124.8159 H   0  0  0  0  0  0  0  0  0  0  0  0
    3.1802   55.0623  124.5538 C   0  0  0  0  0  0  0  0  0  0  0  0
    4.3594   54.8042  124.0606 C   0  0  0  0  0  0  0  0  0  0  0  0
 21 22  1  0  0  0
 22 13  1  0  0  0
 13 14  2  0  0  0
 14 15  1  0  0  0
 14 16  1  0  0  0
 16 17  2  0  0  0
 17 18  1  0  0  0
 18 19  2  0  0  0
 19 20  1  0  0  0
 17  7  1  0  0  0
  7  8  1  0  0  0
  8  9  1  0  0  0
  9 10  1  0  0  0
 10  1  1  0  0  0
  1  2  1  0  0  0
  2  3  1  0  0  0
  3  4  1  0  0  0
  4  5  1  0  0  0
  5  6  1  0  0  0
  4 23  1  0  0  0
 23 24  1  0  0  0
 24 25  2  0  0  0
 24 27  1  0  0  0
 27 28  1  0  0  0
 28 29  1  0  0  0
 27 30  1  0  0  0
 30 31  1  0  0  0
 31 32  2  0  0  0
 31 34  1  0  0  0
 34 35  2  0  0  0
 10 11  1  0  0  0
 11 12  1  0  0  0
 19 13  1  0  0  0
 12  7  1  0  0  0
  6  1  1  0  0  0
 29 27  1  0  0  0
 23 26  1  0  0  0
 30 33  1  0  0  0
M  END
> <minimizedAffinity>
11.82319

> <CNNscore>
0.2807835042

> <CNNaffinity>
6.9327211380

> <CNN_VS>
1.9465937614

> <CNNaffinity_variance>
0.5897263288

$$$$
[H]c1c(C2([H])C([H])([H])N(C(=O)C([H])([H])C([H])([H])C([H])([H])[H])C2([H])[H])c([H])c2nc([H])n(C([H])([H])[H])c2c1[H]


 19 21  0  0  0  0  0  0  0  0999 V2000
    9.6168   47.6040  130.9173 C   0  0  0  0  0  0  0  0  0  0  0  0
    9.8822   48.9568  130.9310 C   0  0  0  0  0  0  0  0  0  0  0  0
    8.9934   49.8978  130.4574 C   0  0  0  0  0  0  0  0  0  0  0  0
    7.7924   49.5130  129.9468 C   0  0  0  0  0  0  0  0  0  0  0  0
    6.7284   50.1832  129.4156 N   0  0  0  0  0  0  0  0  0  0  0  0
    6.6520   51.6340  129.2678 C   0  0  0  0  0  0  0  0  0  0  0  0
    5.7857   49.2993  129.0604 C   0  0  0  0  0  0  0  0  0  0  0  0
    6.2576   48.0886  129.3676 N   0  0  0  0  0  0  0  0  0  0  0  0
    7.4855   48.1685  129.9139 C   0  0  0  0  0  0  0  0  0  0  0  0
    8.3964   47.2238  130.3978 C   0  0  0  0  0  0  0  0  0  0  0  0
   10.5891   43.1829  132.2480 C   0  0  0  0  0  0  0  0  0  0  0  0
   10.8907   42.3082  131.3923 O   0  0  0  0  0  0  0  0  0  0  0  0
   10.4318   44.5312  131.8506 N   0  0  0  0  0  0  0  0  0  0  0  0
   10.5275   45.2651  130.6244 C   0  0  0  0  0  0  0  0  0  0  0  0
   10.5260   46.5773  131.4069 C   0  0  0  0  0  0  0  0  0  0  0  0
   10.0993   45.7407  132.5622 C   0  0  0  0  0  0  0  0  0  0  0  0
   10.4121   42.7407  133.6526 C   0  0  0  0  0  0  0  0  0  0  0  0
   12.5961   43.8644  134.0897 C   0  0  0  0  0  0  0  0  0  0  0  0
   11.1994   43.6193  134.6078 C   0  0  0  0  0  0  0  0  0  0  0  0
 18 19  1  0  0  0
 19 17  1  0  0  0
 17 11  1  0  0  0
 11 12  2  0  0  0
 11 13  1  0  0  0
 13 14  1  0  0  0
 14 15  1  0  0  0
 15 16  1  0  0  0
 15  1  1  0  0  0
  1  2  2  0  0  0
  2  3  1  0  0  0
  3  4  2  0  0  0
  4  5  1  0  0  0
  5  6  1  0  0  0
  5  7  1  0  0  0
  7  8  2  0  0  0
  8  9  1  0  0  0
  9 10  2  0  0  0
 16 13  1  0  0  0
 10  1  1  0  0  0
  9  4  1  0  0  0
M  END
> <minimizedAffinity>
-5.02201

> <CNNscore>
0.4632751048

> <CNNaffinity>
6.6915283203

> <CNN_VS>
3.1000185013

> <CNNaffinity_variance>
0.5691080689

$$$$
[H]c1c(C2([H])C([H])([H])N(C(=O)C([H])([H])C([H])([H])C([H])([H])[H])C2([H])[H])c([H])c2nc([H])n(C([H])([H])[H])c2c1[H]


 19 21  0  0  0  0  0  0  0  0999 V2000
    9.4044   46.6575  129.8042 C   0  0  0  0  0  0  0  0  0  0  0  0
    9.7338   47.9548  130.1348 C   0  0  0  0  0  0  0  0  0  0  0  0
    8.8247   48.9900  130.0959 C   0  0  0  0  0  0  0  0  0  0  0  0
    7.5374   48.7603  129.7199 C   0  0  0  0  0  0  0  0  0  0  0  0
    6.4329   49.5510  129.5843 N   0  0  0  0  0  0  0  0  0  0  0  0
    6.4033   50.9869  129.8484 C   0  0  0  0  0  0  0  0  0  0  0  0
    5.4019   48.7986  129.1756 C   0  0  0  0  0  0  0  0  0  0  0  0
    5.8594   47.5497  129.0575 N   0  0  0  0  0  0  0  0  0  0  0  0
    7.1643   47.4764  129.3806 C   0  0  0  0  0  0  0  0  0  0  0  0
    8.0968   46.4347  129.4243 C   0  0  0  0  0  0  0  0  0  0  0  0
   11.4066   42.9507  131.9285 C   0  0  0  0  0  0  0  0  0  0  0  0
   10.8516   41.8195  131.9002 O   0  0  0  0  0  0  0  0  0  0  0  0
   10.8650   44.0191  131.1764 N   0  0  0  0  0  0  0  0  0  0  0  0
    9.7482   44.2034  130.2988 C   0  0  0  0  0  0  0  0  0  0  0  0
   10.3322   45.5355  129.8314 C   0  0  0  0  0  0  0  0  0  0  0  0
   11.2484   45.3978  130.9969 C   0  0  0  0  0  0  0  0  0  0  0  0
   12.6213   43.1015  132.7660 C   0  0  0  0  0  0  0  0  0  0  0  0
   11.1991   43.9236  134.6435 C   0  0  0  0  0  0  0  0  0  0  0  0
   12.4340   44.1829  133.8146 C   0  0  0  0  0  0  0  0  0  0  0  0
 18 19  1  0  0  0
 19 17  1  0  0  0
 17 11  1  0  0  0
 11 12  2  0  0  0
 11 13  1  0  0  0
 13 14  1  0  0  0
 14 15  1  0  0  0
 15 16  1  0  0  0
 15  1  1  0  0  0
  1  2  2  0  0  0
  2  3  1  0  0  0
  3  4  2  0  0  0
  4  5  1  0  0  0
  5  6  1  0  0  0
  5  7  1  0  0  0
  7  8  2  0  0  0
  8  9  1  0  0  0
  9 10  2  0  0  0
 16 13  1  0  0  0
 10  1  1  0  0  0
  9  4  1  0  0  0
M  END
> <minimizedAffinity>
-6.28842

> <CNNscore>
0.4065456390

> <CNNaffinity>
6.6322126389

> <CNN_VS>
2.6962971687

> <CNNaffinity_variance>
0.1662003696

$$$$
[H]c1c(C2([H])C([H])([H])N(C(=O)C([H])([H])C([H])([H])C([H])([H])[H])C2([H])[H])c([H])c2nc([H])n(C([H])([H])[H])c2c1[H]


 19 21  0  0  0  0  0  0  0  0999 V2000
    9.0086   46.3942  129.7468 C   0  0  0  0  0  0  0  0  0  0  0  0
    7.6834   46.1087  129.4956 C   0  0  0  0  0  0  0  0  0  0  0  0
    6.7026   47.0766  129.4670 C   0  0  0  0  0  0  0  0  0  0  0  0
    7.0176   48.3811  129.6917 C   0  0  0  0  0  0  0  0  0  0  0  0
    6.2953   49.5387  129.7300 N   0  0  0  0  0  0  0  0  0  0  0  0
    4.8543   49.6249  129.5098 C   0  0  0  0  0  0  0  0  0  0  0  0
    7.1188   50.5613  129.9988 C   0  0  0  0  0  0  0  0  0  0  0  0
    8.3439   50.0458  130.1269 N   0  0  0  0  0  0  0  0  0  0  0  0
    8.3323   48.7116  129.9471 C   0  0  0  0  0  0  0  0  0  0  0  0
    9.3181   47.7196  129.9733 C   0  0  0  0  0  0  0  0  0  0  0  0
   11.4681   42.9959  131.9065 C   0  0  0  0  0  0  0  0  0  0  0  0
   11.0664   41.8015  131.8838 O   0  0  0  0  0  0  0  0  0  0  0  0
   10.7951   43.9791  131.1445 N   0  0  0  0  0  0  0  0  0  0  0  0
    9.6687   44.0096  130.2604 C   0  0  0  0  0  0  0  0  0  0  0  0
   10.0754   45.4038  129.7863 C   0  0  0  0  0  0  0  0  0  0  0  0
   10.9954   45.3950  130.9569 C   0  0  0  0  0  0  0  0  0  0  0  0
   12.6479   43.3102  132.7485 C   0  0  0  0  0  0  0  0  0  0  0  0
   11.2333   43.9317  134.7071 C   0  0  0  0  0  0  0  0  0  0  0  0
   12.3235   44.3875  133.7675 C   0  0  0  0  0  0  0  0  0  0  0  0
 18 19  1  0  0  0
 19 17  1  0  0  0
 17 11  1  0  0  0
 11 12  2  0  0  0
 11 13  1  0  0  0
 13 14  1  0  0  0
 14 15  1  0  0  0
 15 16  1  0  0  0
 15  1  1  0  0  0
  1  2  2  0  0  0
  2  3  1  0  0  0
  3  4  2  0  0  0
  4  5  1  0  0  0
  5  6  1  0  0  0
  5  7  1  0  0  0
  7  8  2  0  0  0
  8  9  1  0  0  0
  9 10  2  0  0  0
 16 13  1  0  0  0
 10  1  1  0  0  0
  9  4  1  0  0  0
M  END
> <minimizedAffinity>
-6.42212

> <CNNscore>
0.3849613369

> <CNNaffinity>
6.6812353134

> <CNN_VS>
2.5720171928

> <CNNaffinity_variance>
0.1842410862

$$$$
[H]c1c(C2([H])C([H])([H])N(C(=O)C([H])([H])C([H])([H])C([H])([H])[H])C2([H])[H])c([H])c2nc([H])n(C([H])([H])[H])c2c1[H]


 19 21  0  0  0  0  0  0  0  0999 V2000
   10.7264   46.1021  133.2408 C   0  0  0  0  0  0  0  0  0  0  0  0
   11.8683   45.3553  133.4384 C   0  0  0  0  0  0  0  0  0  0  0  0
   12.9216   45.7907  134.2133 C   0  0  0  0  0  0  0  0  0  0  0  0
   12.8685   47.0046  134.8256 C   0  0  0  0  0  0  0  0  0  0  0  0
   13.7227   47.6981  135.6335 N   0  0  0  0  0  0  0  0  0  0  0  0
   15.0344   47.2184  136.0597 C   0  0  0  0  0  0  0  0  0  0  0  0
   13.1623   48.8705  135.9614 C   0  0  0  0  0  0  0  0  0  0  0  0
   11.9690   48.9077  135.3633 N   0  0  0  0  0  0  0  0  0  0  0  0
   11.7440   47.7852  134.6550 C   0  0  0  0  0  0  0  0  0  0  0  0
   10.6819   47.3314  133.8659 C   0  0  0  0  0  0  0  0  0  0  0  0
    8.7169   43.3235  130.0000 C   0  0  0  0  0  0  0  0  0  0  0  0
    8.2367   42.2044  130.3248 O   0  0  0  0  0  0  0  0  0  0  0  0
    9.1942   44.2015  131.0008 N   0  0  0  0  0  0  0  0  0  0  0  0
    9.2990   44.1813  132.4291 C   0  0  0  0  0  0  0  0  0  0  0  0
    9.5917   45.6808  132.4312 C   0  0  0  0  0  0  0  0  0  0  0  0
    9.7861   45.5162  130.9643 C   0  0  0  0  0  0  0  0  0  0  0  0
    8.7558   43.6640  128.5570 C   0  0  0  0  0  0  0  0  0  0  0  0
   10.9460   44.6499  127.8828 C   0  0  0  0  0  0  0  0  0  0  0  0
   10.1252   43.3854  127.9642 C   0  0  0  0  0  0  0  0  0  0  0  0
 18 19  1  0  0  0
 19 17  1  0  0  0
 17 11  1  0  0  0
 11 12  2  0  0  0
 11 13  1  0  0  0
 13 14  1  0  0  0
 14 15  1  0  0  0
 15 16  1  0  0  0
 15  1  1  0  0  0
  1  2  2  0  0  0
  2  3  1  0  0  0
  3  4  2  0  0  0
  4  5  1  0  0  0
  5  6  1  0  0  0
  5  7  1  0  0  0
  7  8  2  0  0  0
  8  9  1  0  0  0
  9 10  2  0  0  0
 16 13  1  0  0  0
 10  1  1  0  0  0
  9  4  1  0  0  0
M  END
> <minimizedAffinity>
8.73497

> <CNNscore>
0.3447653949

> <CNNaffinity>
6.2028007507

> <CNN_VS>
2.1385109425

> <CNNaffinity_variance>
0.9734683037

$$$$
[H]c1c(C2([H])C([H])([H])N(C(=O)C([H])([H])C([H])([H])C([H])([H])[H])C2([H])[H])c([H])c2nc([H])n(C([H])([H])[H])c2c1[H]


 19 21  0  0  0  0  0  0  0  0999 V2000
    8.4255   46.4689  130.4519 C   0  0  0  0  0  0  0  0  0  0  0  0
    7.1367   46.2395  130.0190 C   0  0  0  0  0  0  0  0  0  0  0  0
    6.2687   47.2562  129.6835 C   0  0  0  0  0  0  0  0  0  0  0  0
    6.6651   48.5549  129.7705 C   0  0  0  0  0  0  0  0  0  0  0  0
    6.0583   49.7512  129.5177 N   0  0  0  0  0  0  0  0  0  0  0  0
    4.6858   49.9009  129.0419 C   0  0  0  0  0  0  0  0  0  0  0  0
    6.9206   50.7441  129.7758 C   0  0  0  0  0  0  0  0  0  0  0  0
    8.0553   50.1720  130.1859 N   0  0  0  0  0  0  0  0  0  0  0  0
    7.9470   48.8301  130.1993 C   0  0  0  0  0  0  0  0  0  0  0  0
    8.8180   47.7889  130.5367 C   0  0  0  0  0  0  0  0  0  0  0  0
   10.2073   43.3247  133.4852 C   0  0  0  0  0  0  0  0  0  0  0  0
    9.6988   42.1762  133.5898 O   0  0  0  0  0  0  0  0  0  0  0  0
    9.7495   44.2080  132.4799 N   0  0  0  0  0  0  0  0  0  0  0  0
    8.7699   44.1669  131.4359 C   0  0  0  0  0  0  0  0  0  0  0  0
    9.3741   45.4258  130.8161 C   0  0  0  0  0  0  0  0  0  0  0  0
   10.1114   45.5523  132.1034 C   0  0  0  0  0  0  0  0  0  0  0  0
   11.2792   43.6933  134.4417 C   0  0  0  0  0  0  0  0  0  0  0  0
   12.6724   43.2186  132.4275 C   0  0  0  0  0  0  0  0  0  0  0  0
   12.5795   43.9949  133.7190 C   0  0  0  0  0  0  0  0  0  0  0  0
 18 19  1  0  0  0
 19 17  1  0  0  0
 17 11  1  0  0  0
 11 12  2  0  0  0
 11 13  1  0  0  0
 13 14  1  0  0  0
 14 15  1  0  0  0
 15 16  1  0  0  0
 15  1  1  0  0  0
  1  2  2  0  0  0
  2  3  1  0  0  0
  3  4  2  0  0  0
  4  5  1  0  0  0
  5  6  1  0  0  0
  5  7  1  0  0  0
  7  8  2  0  0  0
  8  9  1  0  0  0
  9 10  2  0  0  0
 16 13  1  0  0  0
 10  1  1  0  0  0
  9  4  1  0  0  0
M  END
> <minimizedAffinity>
-4.92345

> <CNNscore>
0.2990986109

> <CNNaffinity>
6.5343542099

> <CNN_VS>
1.9544162750

> <CNNaffinity_variance>
0.2629831433

$$$$
[H]c1c(C2([H])C([H])([H])N(C(=O)C([H])([H])C([H])([H])C([H])([H])[H])C2([H])[H])c([H])c2nc([H])n(C([H])([H])[H])c2c1[H]


 19 21  0  0  0  0  0  0  0  0999 V2000
   10.0146   47.1224  131.2551 C   0  0  0  0  0  0  0  0  0  0  0  0
   10.0011   46.4112  132.4362 C   0  0  0  0  0  0  0  0  0  0  0  0
   10.4080   45.0972  132.5222 C   0  0  0  0  0  0  0  0  0  0  0  0
   10.8483   44.4402  131.4150 C   0  0  0  0  0  0  0  0  0  0  0  0
   11.3053   43.1754  131.1811 N   0  0  0  0  0  0  0  0  0  0  0  0
   11.4308   42.1371  132.2003 C   0  0  0  0  0  0  0  0  0  0  0  0
   11.6124   43.0528  129.8824 C   0  0  0  0  0  0  0  0  0  0  0  0
   11.3495   44.2309  129.3115 N   0  0  0  0  0  0  0  0  0  0  0  0
   10.8785   45.1142  130.2118 C   0  0  0  0  0  0  0  0  0  0  0  0
   10.4628   46.4477  130.1382 C   0  0  0  0  0  0  0  0  0  0  0  0
    6.9661   50.4397  129.8538 C   0  0  0  0  0  0  0  0  0  0  0  0
    5.9857   50.7565  130.5798 O   0  0  0  0  0  0  0  0  0  0  0  0
    7.9439   49.5430  130.3439 N   0  0  0  0  0  0  0  0  0  0  0  0
    8.1625   48.8147  131.5577 C   0  0  0  0  0  0  0  0  0  0  0  0
    9.5941   48.5100  131.1198 C   0  0  0  0  0  0  0  0  0  0  0  0
    9.1529   48.9927  129.7823 C   0  0  0  0  0  0  0  0  0  0  0  0
    7.0411   51.0370  128.4983 C   0  0  0  0  0  0  0  0  0  0  0  0
    7.1024   53.1702  127.2062 C   0  0  0  0  0  0  0  0  0  0  0  0
    7.2391   52.5403  128.5714 C   0  0  0  0  0  0  0  0  0  0  0  0
 18 19  1  0  0  0
 19 17  1  0  0  0
 17 11  1  0  0  0
 11 12  2  0  0  0
 11 13  1  0  0  0
 13 14  1  0  0  0
 14 15  1  0  0  0
 15 16  1  0  0  0
 15  1  1  0  0  0
  1  2  2  0  0  0
  2  3  1  0  0  0
  3  4  2  0  0  0
  4  5  1  0  0  0
  5  6  1  0  0  0
  5  7  1  0  0  0
  7  8  2  0  0  0
  8  9  1  0  0  0
  9 10  2  0  0  0
 16 13  1  0  0  0
 10  1  1  0  0  0
  9  4  1  0  0  0
M  END
> <minimizedAffinity>
-1.57270

> <CNNscore>
0.2897342145

> <CNNaffinity>
6.1791634560

> <CNN_VS>
1.7903150320

> <CNNaffinity_variance>
0.8142598271

$$$$
[H]c1c(C2([H])C([H])([H])N(C(=O)C([H])([H])C([H])([H])C([H])([H])[H])C2([H])[H])c([H])c2nc([H])n(C([H])([H])[H])c2c1[H]


 19 21  0  0  0  0  0  0  0  0999 V2000
    9.1931   48.0838  132.2392 C   0  0  0  0  0  0  0  0  0  0  0  0
    9.1956   49.4612  132.1798 C   0  0  0  0  0  0  0  0  0  0  0  0
    8.6114   50.1661  131.1495 C   0  0  0  0  0  0  0  0  0  0  0  0
    7.9963   49.5088  130.1293 C   0  0  0  0  0  0  0  0  0  0  0  0
    7.3450   49.9092  128.9984 N   0  0  0  0  0  0  0  0  0  0  0  0
    7.1506   51.3011  128.6021 C   0  0  0  0  0  0  0  0  0  0  0  0
    6.9233   48.8278  128.3285 C   0  0  0  0  0  0  0  0  0  0  0  0
    7.3083   47.7623  129.0354 N   0  0  0  0  0  0  0  0  0  0  0  0
    7.9702   48.1297  130.1487 C   0  0  0  0  0  0  0  0  0  0  0  0
    8.5669   47.4264  131.2002 C   0  0  0  0  0  0  0  0  0  0  0  0
   11.5625   44.3263  133.8294 C   0  0  0  0  0  0  0  0  0  0  0  0
   12.8226   44.3076  133.8081 O   0  0  0  0  0  0  0  0  0  0  0  0
   10.8703   45.5079  133.4758 N   0  0  0  0  0  0  0  0  0  0  0  0
   11.2290   46.8295  133.0563 C   0  0  0  0  0  0  0  0  0  0  0  0
    9.7975   47.3004  133.3076 C   0  0  0  0  0  0  0  0  0  0  0  0
    9.4716   45.8506  133.3990 C   0  0  0  0  0  0  0  0  0  0  0  0
   10.8617   43.0827  134.2320 C   0  0  0  0  0  0  0  0  0  0  0  0
   10.8930   42.2850  131.8685 C   0  0  0  0  0  0  0  0  0  0  0  0
   10.0355   42.5236  133.0879 C   0  0  0  0  0  0  0  0  0  0  0  0
 18 19  1  0  0  0
 19 17  1  0  0  0
 17 11  1  0  0  0
 11 12  2  0  0  0
 11 13  1  0  0  0
 13 14  1  0  0  0
 14 15  1  0  0  0
 15 16  1  0  0  0
 15  1  1  0  0  0
  1  2  2  0  0  0
  2  3  1  0  0  0
  3  4  2  0  0  0
  4  5  1  0  0  0
  5  6  1  0  0  0
  5  7  1  0  0  0
  7  8  2  0  0  0
  8  9  1  0  0  0
  9 10  2  0  0  0
 16 13  1  0  0  0
 10  1  1  0  0  0
  9  4  1  0  0  0
M  END
> <minimizedAffinity>
-5.35711

> <CNNscore>
0.2882397473

> <CNNaffinity>
6.4864168167

> <CNN_VS>
1.8696430922

> <CNNaffinity_variance>
0.2378967553

$$$$
[H]c1c(C2([H])C([H])([H])N(C(=O)C([H])([H])C([H])([H])C([H])([H])[H])C2([H])[H])c([H])c2nc([H])n(C([H])([H])[H])c2c1[H]


 19 21  0  0  0  0  0  0  0  0999 V2000
    9.9897   47.2739  131.6554 C   0  0  0  0  0  0  0  0  0  0  0  0
   10.0693   46.3158  130.6672 C   0  0  0  0  0  0  0  0  0  0  0  0
   10.4782   45.0224  130.9111 C   0  0  0  0  0  0  0  0  0  0  0  0
   10.8264   44.6374  132.1689 C   0  0  0  0  0  0  0  0  0  0  0  0
   11.2595   43.4644  132.7164 N   0  0  0  0  0  0  0  0  0  0  0  0
   11.4638   42.2261  131.9700 C   0  0  0  0  0  0  0  0  0  0  0  0
   11.4609   43.6409  134.0296 C   0  0  0  0  0  0  0  0  0  0  0  0
   11.1560   44.9128  134.2985 N   0  0  0  0  0  0  0  0  0  0  0  0
   10.7614   45.5643  133.1884 C   0  0  0  0  0  0  0  0  0  0  0  0
   10.3447   46.8738  132.9274 C   0  0  0  0  0  0  0  0  0  0  0  0
    7.0239   50.4979  129.9030 C   0  0  0  0  0  0  0  0  0  0  0  0
    5.9827   50.8213  130.5354 O   0  0  0  0  0  0  0  0  0  0  0  0
    7.9696   49.6322  130.5002 N   0  0  0  0  0  0  0  0  0  0  0  0
    8.0967   48.9451  131.7504 C   0  0  0  0  0  0  0  0  0  0  0  0
    9.5635   48.6498  131.4418 C   0  0  0  0  0  0  0  0  0  0  0  0
    9.2280   49.0842  130.0577 C   0  0  0  0  0  0  0  0  0  0  0  0
    7.2028   51.0544  128.5399 C   0  0  0  0  0  0  0  0  0  0  0  0
    7.2139   53.1246  127.1479 C   0  0  0  0  0  0  0  0  0  0  0  0
    6.9805   52.5559  128.5268 C   0  0  0  0  0  0  0  0  0  0  0  0
 18 19  1  0  0  0
 19 17  1  0  0  0
 17 11  1  0  0  0
 11 12  2  0  0  0
 11 13  1  0  0  0
 13 14  1  0  0  0
 14 15  1  0  0  0
 15 16  1  0  0  0
 15  1  1  0  0  0
  1  2  2  0  0  0
  2  3  1  0  0  0
  3  4  2  0  0  0
  4  5  1  0  0  0
  5  6  1  0  0  0
  5  7  1  0  0  0
  7  8  2  0  0  0
  8  9  1  0  0  0
  9 10  2  0  0  0
 16 13  1  0  0  0
 10  1  1  0  0  0
  9  4  1  0  0  0
M  END
> <minimizedAffinity>
-3.52318

> <CNNscore>
0.2168730795

> <CNNaffinity>
6.1513433456

> <CNN_VS>
1.3340607882

> <CNNaffinity_variance>
0.3486050963

$$$$
[H]c1c(C2([H])C([H])([H])N(C(=O)C([H])([H])C([H])([H])C([H])([H])[H])C2([H])[H])c([H])c2nc([H])n(C([H])([H])[H])c2c1[H]


 19 21  0  0  0  0  0  0  0  0999 V2000
   10.3633   47.4658  132.3808 C   0  0  0  0  0  0  0  0  0  0  0  0
    9.9921   47.2631  133.6930 C   0  0  0  0  0  0  0  0  0  0  0  0
   10.3793   46.1559  134.4169 C   0  0  0  0  0  0  0  0  0  0  0  0
   11.1616   45.2005  133.8456 C   0  0  0  0  0  0  0  0  0  0  0  0
   11.6964   44.0241  134.2854 N   0  0  0  0  0  0  0  0  0  0  0  0
   11.5154   43.4817  135.6290 C   0  0  0  0  0  0  0  0  0  0  0  0
   12.4015   43.4641  133.2927 C   0  0  0  0  0  0  0  0  0  0  0  0
   12.3072   44.2842  132.2431 N   0  0  0  0  0  0  0  0  0  0  0  0
   11.5564   45.3632  132.5339 C   0  0  0  0  0  0  0  0  0  0  0  0
   11.1566   46.4915  131.8104 C   0  0  0  0  0  0  0  0  0  0  0  0
    7.1984   49.9928  129.9601 C   0  0  0  0  0  0  0  0  0  0  0  0
    6.4364   50.8026  130.5533 O   0  0  0  0  0  0  0  0  0  0  0  0
    8.2299   49.3430  130.6772 N   0  0  0  0  0  0  0  0  0  0  0  0
    8.7074   49.3418  132.0275 C   0  0  0  0  0  0  0  0  0  0  0  0
    9.9772   48.6194  131.5803 C   0  0  0  0  0  0  0  0  0  0  0  0
    9.2442   48.3877  130.3052 C   0  0  0  0  0  0  0  0  0  0  0  0
    6.9660   49.7614  128.5136 C   0  0  0  0  0  0  0  0  0  0  0  0
    5.6274   47.6976  128.9288 C   0  0  0  0  0  0  0  0  0  0  0  0
    6.8207   48.2810  128.2112 C   0  0  0  0  0  0  0  0  0  0  0  0
 18 19  1  0  0  0
 19 17  1  0  0  0
 17 11  1  0  0  0
 11 12  2  0  0  0
 11 13  1  0  0  0
 13 14  1  0  0  0
 14 15  1  0  0  0
 15 16  1  0  0  0
 15  1  1  0  0  0
  1  2  2  0  0  0
  2  3  1  0  0  0
  3  4  2  0  0  0
  4  5  1  0  0  0
  5  6  1  0  0  0
  5  7  1  0  0  0
  7  8  2  0  0  0
  8  9  1  0  0  0
  9 10  2  0  0  0
 16 13  1  0  0  0
 10  1  1  0  0  0
  9  4  1  0  0  0
M  END
> <minimizedAffinity>
-5.67884

> <CNNscore>
0.2166322321

> <CNNaffinity>
6.1718606949

> <CNN_VS>
1.3370239735

> <CNNaffinity_variance>
0.0737542510

$$$$
[H]c1c([H])c([H])c(C([H])([H])N([H])C(=O)c2c([H])c([H])c(Cl)c3c2c2c(=O)n([H])c4c(C([H])([H])[H])c(C#N)n(C([H])([H])C(F)(F)F)c5c([H])c([H])c([H])c([H])c5c4c32)c([H])c1[H]


 43 48  0  0  0  0  0  0  0  0999 V2000
    9.1190   43.4594  130.5578 C   0  0  0  0  0  0  0  0  0  0  0  0
    8.8935   44.2153  129.3902 C   0  0  0  0  0  0  0  0  0  0  0  0
    8.5481   43.5314  128.1427 C   0  0  0  0  0  0  0  0  0  0  0  0
    8.8955   45.6206  129.3728 C   0  0  0  0  0  0  0  0  0  0  0  0
    8.0887   46.1253  128.4505 N   0  0  0  0  0  0  0  0  0  0  0  0
    7.7878   47.4307  128.4853 C   0  0  0  0  0  0  0  0  0  0  0  0
    7.0346   47.9228  127.6190 O   0  0  0  0  0  0  0  0  0  0  0  0
    8.3098   48.2618  129.4888 C   0  0  0  0  0  0  0  0  0  0  0  0
    8.3462   49.4790  130.1276 C   0  0  0  0  0  0  0  0  0  0  0  0
    7.8642   50.7514  130.1232 C   0  0  0  0  0  0  0  0  0  0  0  0
    8.2213   51.6000  131.1617 C   0  0  0  0  0  0  0  0  0  0  0  0
    9.0383   51.1238  132.1489 C   0  0  0  0  0  0  0  0  0  0  0  0
    9.5294   49.8365  132.1651 C   0  0  0  0  0  0  0  0  0  0  0  0
   10.3741   49.3008  133.5934 Cl  0  0  0  0  0  0  0  0  0  0  0  0
    9.1893   48.9790  131.1327 C   0  0  0  0  0  0  0  0  0  0  0  0
    9.1590   47.7758  130.4710 C   0  0  0  0  0  0  0  0  0  0  0  0
    9.4296   46.4450  130.3559 C   0  0  0  0  0  0  0  0  0  0  0  0
   10.4916   46.0536  131.1491 C   0  0  0  0  0  0  0  0  0  0  0  0
   11.3980   47.0655  131.2904 C   0  0  0  0  0  0  0  0  0  0  0  0
   12.5115   46.8193  132.0905 C   0  0  0  0  0  0  0  0  0  0  0  0
   12.6925   45.6147  132.7125 C   0  0  0  0  0  0  0  0  0  0  0  0
   11.7674   44.6019  132.5514 C   0  0  0  0  0  0  0  0  0  0  0  0
   10.6783   44.8095  131.7724 C   0  0  0  0  0  0  0  0  0  0  0  0
   10.0349   43.6109  131.5491 N   0  0  0  0  0  0  0  0  0  0  0  0
    7.7244   45.4608  127.7348 H   0  0  0  0  0  0  0  0  0  0  0  0
    6.9977   51.1968  129.0520 C   0  0  0  0  0  0  0  0  0  0  0  0
    5.9899   50.5081  128.6908 O   0  0  0  0  0  0  0  0  0  0  0  0
    7.2286   52.4015  128.3668 N   0  0  0  0  0  0  0  0  0  0  0  0
    8.0480   52.9947  128.6670 H   0  0  0  0  0  0  0  0  0  0  0  0
    6.4193   52.8799  127.2791 C   0  0  0  0  0  0  0  0  0  0  0  0
    7.2608   53.5901  126.2899 C   0  0  0  0  0  0  0  0  0  0  0  0
    6.9756   53.5011  124.9331 C   0  0  0  0  0  0  0  0  0  0  0  0
    7.7255   54.1524  123.9760 C   0  0  0  0  0  0  0  0  0  0  0  0
    8.8077   54.9302  124.3503 C   0  0  0  0  0  0  0  0  0  0  0  0
    9.1085   55.0342  125.6767 C   0  0  0  0  0  0  0  0  0  0  0  0
    8.3545   54.3799  126.6407 C   0  0  0  0  0  0  0  0  0  0  0  0
    7.4324   41.4757  130.7691 N   0  0  0  0  0  0  0  0  0  0  0  0
    8.1898   42.3386  130.6685 C   0  0  0  0  0  0  0  0  0  0  0  0
   10.3266   42.4668  132.3241 C   0  0  0  0  0  0  0  0  0  0  0  0
    9.8082   42.3741  133.7195 C   0  0  0  0  0  0  0  0  0  0  0  0
   10.7002   42.9766  134.6316 F   0  0  0  0  0  0  0  0  0  0  0  0
    9.2849   41.2004  134.1613 F   0  0  0  0  0  0  0  0  0  0  0  0
    8.6984   43.2621  133.9423 F   0  0  0  0  0  0  0  0  0  0  0  0
 37 38  3  0  0  0
 38  1  1  0  0  0
  1  2  2  0  0  0
  2  3  1  0  0  0
  2  4  1  0  0  0
  4  5  1  0  0  0
  5  6  1  0  0  0
  6  7  2  0  0  0
  6  8  1  0  0  0
  8  9  2  0  0  0
  9 10  1  0  0  0
 10 11  2  0  0  0
 11 12  1  0  0  0
 12 13  2  0  0  0
 13 14  1  0  0  0
 13 15  1  0  0  0
 15 16  2  0  0  0
 16 17  1  0  0  0
 17 18  1  0  0  0
 18 19  2  0  0  0
 19 20  1  0  0  0
 20 21  2  0  0  0
 21 22  1  0  0  0
 22 23  2  0  0  0
 23 24  1  0  0  0
 24 39  1  0  0  0
 39 40  1  0  0  0
 40 41  1  0  0  0
 40 42  1  0  0  0
 40 43  1  0  0  0
 10 26  1  0  0  0
 26 27  2  0  0  0
 26 28  1  0  0  0
 28 30  1  0  0  0
 30 31  1  0  0  0
 31 32  2  0  0  0
 32 33  1  0  0  0
 33 34  2  0  0  0
 34 35  1  0  0  0
 35 36  2  0  0  0
 24  1  1  0  0  0
 36 31  1  0  0  0
 17  4  2  0  0  0
 23 18  1  0  0  0
 16  8  1  0  0  0
 15  9  1  0  0  0
  5 25  1  0  0  0
 28 29  1  0  0  0
M  END
> <minimizedAffinity>
6.36523

> <CNNscore>
0.4891469479

> <CNNaffinity>
8.0279750824

> <CNN_VS>
3.9268596172

> <CNNaffinity_variance>
0.7141152620

$$$$
[H]c1c([H])c([H])c(C([H])([H])N([H])C(=O)c2c([H])c([H])c(Cl)c3c2c2c(=O)n([H])c4c(C([H])([H])[H])c(C#N)n(C([H])([H])C(F)(F)F)c5c([H])c([H])c([H])c([H])c5c4c32)c([H])c1[H]


 43 48  0  0  0  0  0  0  0  0999 V2000
    9.2932   43.0704  132.8062 C   0  0  0  0  0  0  0  0  0  0  0  0
    8.6280   43.3984  131.6081 C   0  0  0  0  0  0  0  0  0  0  0  0
    7.9498   42.3472  130.8476 C   0  0  0  0  0  0  0  0  0  0  0  0
    8.5009   44.7161  131.1363 C   0  0  0  0  0  0  0  0  0  0  0  0
    7.3929   44.9073  130.4348 N   0  0  0  0  0  0  0  0  0  0  0  0
    7.0074   46.1575  130.1449 C   0  0  0  0  0  0  0  0  0  0  0  0
    5.9694   46.3539  129.4785 O   0  0  0  0  0  0  0  0  0  0  0  0
    7.7576   47.2603  130.5821 C   0  0  0  0  0  0  0  0  0  0  0  0
    7.8969   48.6194  130.7383 C   0  0  0  0  0  0  0  0  0  0  0  0
    7.3311   49.8309  130.4864 C   0  0  0  0  0  0  0  0  0  0  0  0
    7.9365   50.9669  131.0051 C   0  0  0  0  0  0  0  0  0  0  0  0
    9.0732   50.8241  131.7512 C   0  0  0  0  0  0  0  0  0  0  0  0
    9.6527   49.6022  132.0153 C   0  0  0  0  0  0  0  0  0  0  0  0
   10.9668   49.5500  133.1602 Cl  0  0  0  0  0  0  0  0  0  0  0  0
    9.0660   48.4593  131.4990 C   0  0  0  0  0  0  0  0  0  0  0  0
    8.9236   47.1055  131.3159 C   0  0  0  0  0  0  0  0  0  0  0  0
    9.2563   45.8055  131.5536 C   0  0  0  0  0  0  0  0  0  0  0  0
   10.5512   45.6701  132.0173 C   0  0  0  0  0  0  0  0  0  0  0  0
   11.3608   46.6430  131.5040 C   0  0  0  0  0  0  0  0  0  0  0  0
   12.6936   46.6452  131.9092 C   0  0  0  0  0  0  0  0  0  0  0  0
   13.1756   45.7133  132.7867 C   0  0  0  0  0  0  0  0  0  0  0  0
   12.3420   44.7334  133.2891 C   0  0  0  0  0  0  0  0  0  0  0  0
   11.0424   44.7012  132.9068 C   0  0  0  0  0  0  0  0  0  0  0  0
   10.4691   43.5170  133.3184 N   0  0  0  0  0  0  0  0  0  0  0  0
    6.8716   44.0529  130.1434 H   0  0  0  0  0  0  0  0  0  0  0  0
    6.1229   49.9181  129.6932 C   0  0  0  0  0  0  0  0  0  0  0  0
    6.0015   50.7880  128.7718 O   0  0  0  0  0  0  0  0  0  0  0  0
    5.0365   49.0523  129.9032 N   0  0  0  0  0  0  0  0  0  0  0  0
    5.1281   48.3119  130.6495 H   0  0  0  0  0  0  0  0  0  0  0  0
    3.8035   49.1099  129.1660 C   0  0  0  0  0  0  0  0  0  0  0  0
    2.9321   47.9727  129.5379 C   0  0  0  0  0  0  0  0  0  0  0  0
    1.5562   48.1428  129.6285 C   0  0  0  0  0  0  0  0  0  0  0  0
    0.7042   47.1107  129.9621 C   0  0  0  0  0  0  0  0  0  0  0  0
    1.2089   45.8481  130.2219 C   0  0  0  0  0  0  0  0  0  0  0  0
    2.5566   45.6547  130.1393 C   0  0  0  0  0  0  0  0  0  0  0  0
    3.4149   46.6922  129.8031 C   0  0  0  0  0  0  0  0  0  0  0  0
    7.9557   41.3239  134.2153 N   0  0  0  0  0  0  0  0  0  0  0  0
    8.5555   42.0798  133.5848 C   0  0  0  0  0  0  0  0  0  0  0  0
   11.1004   42.6900  134.2735 C   0  0  0  0  0  0  0  0  0  0  0  0
   11.6124   43.2897  135.5395 C   0  0  0  0  0  0  0  0  0  0  0  0
   12.8801   43.8773  135.3443 F   0  0  0  0  0  0  0  0  0  0  0  0
   11.5067   42.5912  136.7003 F   0  0  0  0  0  0  0  0  0  0  0  0
   10.9086   44.4952  135.8880 F   0  0  0  0  0  0  0  0  0  0  0  0
 37 38  3  0  0  0
 38  1  1  0  0  0
  1  2  2  0  0  0
  2  3  1  0  0  0
  2  4  1  0  0  0
  4  5  1  0  0  0
  5  6  1  0  0  0
  6  7  2  0  0  0
  6  8  1  0  0  0
  8  9  2  0  0  0
  9 10  1  0  0  0
 10 11  2  0  0  0
 11 12  1  0  0  0
 12 13  2  0  0  0
 13 14  1  0  0  0
 13 15  1  0  0  0
 15 16  2  0  0  0
 16 17  1  0  0  0
 17 18  1  0  0  0
 18 19  2  0  0  0
 19 20  1  0  0  0
 20 21  2  0  0  0
 21 22  1  0  0  0
 22 23  2  0  0  0
 23 24  1  0  0  0
 24 39  1  0  0  0
 39 40  1  0  0  0
 40 41  1  0  0  0
 40 42  1  0  0  0
 40 43  1  0  0  0
 10 26  1  0  0  0
 26 27  2  0  0  0
 26 28  1  0  0  0
 28 30  1  0  0  0
 30 31  1  0  0  0
 31 32  2  0  0  0
 32 33  1  0  0  0
 33 34  2  0  0  0
 34 35  1  0  0  0
 35 36  2  0  0  0
 24  1  1  0  0  0
 36 31  1  0  0  0
 17  4  2  0  0  0
 23 18  1  0  0  0
 16  8  1  0  0  0
 15  9  1  0  0  0
  5 25  1  0  0  0
 28 29  1  0  0  0
M  END
> <minimizedAffinity>
21.66909

> <CNNscore>
0.4683859646

> <CNNaffinity>
8.2302074432

> <CNN_VS>
3.8549137115

> <CNNaffinity_variance>
1.2681415081

$$$$
[H]c1c([H])c([H])c(C([H])([H])N([H])C(=O)c2c([H])c([H])c(Cl)c3c2c2c(=O)n([H])c4c(C([H])([H])[H])c(C#N)n(C([H])([H])C(F)(F)F)c5c([H])c([H])c([H])c([H])c5c4c32)c([H])c1[H]


 43 48  0  0  0  0  0  0  0  0999 V2000
    9.2117   43.4042  131.3801 C   0  0  0  0  0  0  0  0  0  0  0  0
    8.9165   44.1544  130.2245 C   0  0  0  0  0  0  0  0  0  0  0  0
    8.4910   43.4648  129.0051 C   0  0  0  0  0  0  0  0  0  0  0  0
    8.9227   45.5596  130.1986 C   0  0  0  0  0  0  0  0  0  0  0  0
    8.0616   46.0624  129.3257 N   0  0  0  0  0  0  0  0  0  0  0  0
    7.7685   47.3692  129.3715 C   0  0  0  0  0  0  0  0  0  0  0  0
    6.9644   47.8595  128.5511 O   0  0  0  0  0  0  0  0  0  0  0  0
    8.3554   48.2038  130.3354 C   0  0  0  0  0  0  0  0  0  0  0  0
    8.4365   49.4244  130.9634 C   0  0  0  0  0  0  0  0  0  0  0  0
    7.9600   50.6987  130.9816 C   0  0  0  0  0  0  0  0  0  0  0  0
    8.3846   51.5518  131.9906 C   0  0  0  0  0  0  0  0  0  0  0  0
    9.2601   51.0778  132.9276 C   0  0  0  0  0  0  0  0  0  0  0  0
    9.7463   49.7886  132.9207 C   0  0  0  0  0  0  0  0  0  0  0  0
   10.6767   49.2575  134.2964 Cl  0  0  0  0  0  0  0  0  0  0  0  0
    9.3389   48.9266  131.9167 C   0  0  0  0  0  0  0  0  0  0  0  0
    9.2626   47.7198  131.2653 C   0  0  0  0  0  0  0  0  0  0  0  0
    9.5205   46.3873  131.1415 C   0  0  0  0  0  0  0  0  0  0  0  0
   10.6285   45.9960  131.8690 C   0  0  0  0  0  0  0  0  0  0  0  0
   11.5459   47.0048  131.9471 C   0  0  0  0  0  0  0  0  0  0  0  0
   12.7063   46.7586  132.6775 C   0  0  0  0  0  0  0  0  0  0  0  0
   12.9213   45.5567  133.2941 C   0  0  0  0  0  0  0  0  0  0  0  0
   11.9841   44.5469  133.1972 C   0  0  0  0  0  0  0  0  0  0  0  0
   10.8492   44.7546  132.4867 C   0  0  0  0  0  0  0  0  0  0  0  0
   10.1885   43.5575  132.3112 N   0  0  0  0  0  0  0  0  0  0  0  0
    7.6507   45.3953  128.6381 H   0  0  0  0  0  0  0  0  0  0  0  0
    7.0298   51.1417  129.9641 C   0  0  0  0  0  0  0  0  0  0  0  0
    5.7806   51.2110  130.1991 O   0  0  0  0  0  0  0  0  0  0  0  0
    7.4610   51.5124  128.6792 N   0  0  0  0  0  0  0  0  0  0  0  0
    8.4955   51.4803  128.4737 H   0  0  0  0  0  0  0  0  0  0  0  0
    6.5818   51.9332  127.6224 C   0  0  0  0  0  0  0  0  0  0  0  0
    7.2302   52.9840  126.8061 C   0  0  0  0  0  0  0  0  0  0  0  0
    7.0820   52.9911  125.4247 C   0  0  0  0  0  0  0  0  0  0  0  0
    7.6594   53.9548  124.6244 C   0  0  0  0  0  0  0  0  0  0  0  0
    8.4200   54.9641  125.1892 C   0  0  0  0  0  0  0  0  0  0  0  0
    8.5806   54.9798  126.5436 C   0  0  0  0  0  0  0  0  0  0  0  0
    7.9997   54.0111  127.3501 C   0  0  0  0  0  0  0  0  0  0  0  0
    7.5305   41.4282  131.6862 N   0  0  0  0  0  0  0  0  0  0  0  0
    8.2870   42.2880  131.5554 C   0  0  0  0  0  0  0  0  0  0  0  0
   10.5238   42.4166  133.0733 C   0  0  0  0  0  0  0  0  0  0  0  0
   11.2665   41.2957  132.4282 C   0  0  0  0  0  0  0  0  0  0  0  0
   10.3799   40.4011  131.7924 F   0  0  0  0  0  0  0  0  0  0  0  0
   12.2697   40.6803  133.1076 F   0  0  0  0  0  0  0  0  0  0  0  0
   11.9671   41.7228  131.2463 F   0  0  0  0  0  0  0  0  0  0  0  0
 37 38  3  0  0  0
 38  1  1  0  0  0
  1  2  2  0  0  0
  2  3  1  0  0  0
  2  4  1  0  0  0
  4  5  1  0  0  0
  5  6  1  0  0  0
  6  7  2  0  0  0
  6  8  1  0  0  0
  8  9  2  0  0  0
  9 10  1  0  0  0
 10 11  2  0  0  0
 11 12  1  0  0  0
 12 13  2  0  0  0
 13 14  1  0  0  0
 13 15  1  0  0  0
 15 16  2  0  0  0
 16 17  1  0  0  0
 17 18  1  0  0  0
 18 19  2  0  0  0
 19 20  1  0  0  0
 20 21  2  0  0  0
 21 22  1  0  0  0
 22 23  2  0  0  0
 23 24  1  0  0  0
 24 39  1  0  0  0
 39 40  1  0  0  0
 40 41  1  0  0  0
 40 42  1  0  0  0
 40 43  1  0  0  0
 10 26  1  0  0  0
 26 27  2  0  0  0
 26 28  1  0  0  0
 28 30  1  0  0  0
 30 31  1  0  0  0
 31 32  2  0  0  0
 32 33  1  0  0  0
 33 34  2  0  0  0
 34 35  1  0  0  0
 35 36  2  0  0  0
 24  1  1  0  0  0
 36 31  1  0  0  0
 17  4  2  0  0  0
 23 18  1  0  0  0
 16  8  1  0  0  0
 15  9  1  0  0  0
  5 25  1  0  0  0
 28 29  1  0  0  0
M  END
> <minimizedAffinity>
16.14133

> <CNNscore>
0.3922959864

> <CNNaffinity>
7.9942178726

> <CNN_VS>
3.1360995770

> <CNNaffinity_variance>
0.8018544912

$$$$
[H]c1c([H])c([H])c(C([H])([H])N([H])C(=O)c2c([H])c([H])c(Cl)c3c2c2c(=O)n([H])c4c(C([H])([H])[H])c(C#N)n(C([H])([H])C(F)(F)F)c5c([H])c([H])c([H])c([H])c5c4c32)c([H])c1[H]


 43 48  0  0  0  0  0  0  0  0999 V2000
    7.9485   47.8852  130.7804 C   0  0  0  0  0  0  0  0  0  0  0  0
    7.7587   46.6670  130.0983 C   0  0  0  0  0  0  0  0  0  0  0  0
    6.4316   46.3282  129.5811 C   0  0  0  0  0  0  0  0  0  0  0  0
    8.8083   45.7802  129.8034 C   0  0  0  0  0  0  0  0  0  0  0  0
    8.6011   45.0882  128.6923 N   0  0  0  0  0  0  0  0  0  0  0  0
    9.6156   44.4029  128.1474 C   0  0  0  0  0  0  0  0  0  0  0  0
    9.4345   43.7402  127.1043 O   0  0  0  0  0  0  0  0  0  0  0  0
   10.8904   44.4181  128.7346 C   0  0  0  0  0  0  0  0  0  0  0  0
   12.2273   44.1000  128.6872 C   0  0  0  0  0  0  0  0  0  0  0  0
   13.1948   43.4689  127.9682 C   0  0  0  0  0  0  0  0  0  0  0  0
   14.5090   43.5537  128.4061 C   0  0  0  0  0  0  0  0  0  0  0  0
   14.7802   44.2703  129.5383 C   0  0  0  0  0  0  0  0  0  0  0  0
   13.8090   44.9160  130.2721 C   0  0  0  0  0  0  0  0  0  0  0  0
   14.3236   45.9717  131.5609 Cl  0  0  0  0  0  0  0  0  0  0  0  0
   12.4917   44.8353  129.8536 C   0  0  0  0  0  0  0  0  0  0  0  0
   11.1501   45.1264  129.8978 C   0  0  0  0  0  0  0  0  0  0  0  0
   10.0645   45.7810  130.3981 C   0  0  0  0  0  0  0  0  0  0  0  0
   10.2676   46.2250  131.6910 C   0  0  0  0  0  0  0  0  0  0  0  0
   11.1061   45.3886  132.3714 C   0  0  0  0  0  0  0  0  0  0  0  0
   11.4224   45.7298  133.6844 C   0  0  0  0  0  0  0  0  0  0  0  0
   10.9168   46.8568  134.2718 C   0  0  0  0  0  0  0  0  0  0  0  0
   10.0648   47.6860  133.5688 C   0  0  0  0  0  0  0  0  0  0  0  0
    9.7328   47.3755  132.2923 C   0  0  0  0  0  0  0  0  0  0  0  0
    8.6943   48.1809  131.8763 N   0  0  0  0  0  0  0  0  0  0  0  0
    7.6376   45.1193  128.2959 H   0  0  0  0  0  0  0  0  0  0  0  0
   12.8464   42.7289  126.7734 C   0  0  0  0  0  0  0  0  0  0  0  0
   11.6351   42.6155  126.3987 O   0  0  0  0  0  0  0  0  0  0  0  0
   13.8233   42.1060  125.9783 N   0  0  0  0  0  0  0  0  0  0  0  0
   14.8343   42.2071  126.2632 H   0  0  0  0  0  0  0  0  0  0  0  0
   13.5344   41.3366  124.7988 C   0  0  0  0  0  0  0  0  0  0  0  0
   13.0383   39.9933  125.1736 C   0  0  0  0  0  0  0  0  0  0  0  0
   11.8502   39.5097  124.6401 C   0  0  0  0  0  0  0  0  0  0  0  0
   11.3537   38.2613  124.9527 C   0  0  0  0  0  0  0  0  0  0  0  0
   12.0418   37.4377  125.8270 C   0  0  0  0  0  0  0  0  0  0  0  0
   13.2115   37.8890  126.3644 C   0  0  0  0  0  0  0  0  0  0  0  0
   13.7124   39.1446  126.0502 C   0  0  0  0  0  0  0  0  0  0  0  0
    6.5695   49.8264  129.7059 N   0  0  0  0  0  0  0  0  0  0  0  0
    7.1933   48.9749  130.1689 C   0  0  0  0  0  0  0  0  0  0  0  0
    8.3325   49.3410  132.5962 C   0  0  0  0  0  0  0  0  0  0  0  0
    9.1557   50.5769  132.4580 C   0  0  0  0  0  0  0  0  0  0  0  0
   10.1518   50.4135  131.4723 F   0  0  0  0  0  0  0  0  0  0  0  0
    9.5914   51.2179  133.5742 F   0  0  0  0  0  0  0  0  0  0  0  0
    8.4323   51.6364  131.8067 F   0  0  0  0  0  0  0  0  0  0  0  0
 37 38  3  0  0  0
 38  1  1  0  0  0
  1  2  2  0  0  0
  2  3  1  0  0  0
  2  4  1  0  0  0
  4  5  1  0  0  0
  5  6  1  0  0  0
  6  7  2  0  0  0
  6  8  1  0  0  0
  8  9  2  0  0  0
  9 10  1  0  0  0
 10 11  2  0  0  0
 11 12  1  0  0  0
 12 13  2  0  0  0
 13 14  1  0  0  0
 13 15  1  0  0  0
 15 16  2  0  0  0
 16 17  1  0  0  0
 17 18  1  0  0  0
 18 19  2  0  0  0
 19 20  1  0  0  0
 20 21  2  0  0  0
 21 22  1  0  0  0
 22 23  2  0  0  0
 23 24  1  0  0  0
 24 39  1  0  0  0
 39 40  1  0  0  0
 40 41  1  0  0  0
 40 42  1  0  0  0
 40 43  1  0  0  0
 10 26  1  0  0  0
 26 27  2  0  0  0
 26 28  1  0  0  0
 28 30  1  0  0  0
 30 31  1  0  0  0
 31 32  2  0  0  0
 32 33  1  0  0  0
 33 34  2  0  0  0
 34 35  1  0  0  0
 35 36  2  0  0  0
 24  1  1  0  0  0
 36 31  1  0  0  0
 17  4  2  0  0  0
 23 18  1  0  0  0
 16  8  1  0  0  0
 15  9  1  0  0  0
  5 25  1  0  0  0
 28 29  1  0  0  0
M  END
> <minimizedAffinity>
27.94402

> <CNNscore>
0.3828178942

> <CNNaffinity>
7.6381707191

> <CNN_VS>
2.9240283966

> <CNNaffinity_variance>
0.9162910581

$$$$
[H]c1c([H])c([H])c(C([H])([H])N([H])C(=O)c2c([H])c([H])c(Cl)c3c2c2c(=O)n([H])c4c(C([H])([H])[H])c(C#N)n(C([H])([H])C(F)(F)F)c5c([H])c([H])c([H])c([H])c5c4c32)c([H])c1[H]


 43 48  0  0  0  0  0  0  0  0999 V2000
    9.6530   44.5147  128.7116 C   0  0  0  0  0  0  0  0  0  0  0  0
   10.1418   45.8332  128.8008 C   0  0  0  0  0  0  0  0  0  0  0  0
   10.4962   46.5562  127.5781 C   0  0  0  0  0  0  0  0  0  0  0  0
   10.2288   46.5397  130.0126 C   0  0  0  0  0  0  0  0  0  0  0  0
   10.0840   47.8479  129.8575 N   0  0  0  0  0  0  0  0  0  0  0  0
    9.8838   48.6182  130.9357 C   0  0  0  0  0  0  0  0  0  0  0  0
    9.7527   49.8536  130.8067 O   0  0  0  0  0  0  0  0  0  0  0  0
    9.8181   48.0543  132.2194 C   0  0  0  0  0  0  0  0  0  0  0  0
    9.5659   48.1826  133.5650 C   0  0  0  0  0  0  0  0  0  0  0  0
    9.2338   49.0546  134.5553 C   0  0  0  0  0  0  0  0  0  0  0  0
    9.0120   48.5563  135.8316 C   0  0  0  0  0  0  0  0  0  0  0  0
    9.1314   47.2108  136.0423 C   0  0  0  0  0  0  0  0  0  0  0  0
    9.4639   46.3186  135.0464 C   0  0  0  0  0  0  0  0  0  0  0  0
    9.3628   44.6155  135.4061 Cl  0  0  0  0  0  0  0  0  0  0  0  0
    9.6961   46.7997  133.7690 C   0  0  0  0  0  0  0  0  0  0  0  0
    9.9667   46.6916  132.4268 C   0  0  0  0  0  0  0  0  0  0  0  0
   10.1840   45.9810  131.2843 C   0  0  0  0  0  0  0  0  0  0  0  0
   10.6187   44.6942  131.5398 C   0  0  0  0  0  0  0  0  0  0  0  0
   11.3545   44.6436  132.6893 C   0  0  0  0  0  0  0  0  0  0  0  0
   11.8363   43.3981  133.0857 C   0  0  0  0  0  0  0  0  0  0  0  0
   11.5836   42.2688  132.3566 C   0  0  0  0  0  0  0  0  0  0  0  0
   10.8430   42.3423  131.1932 C   0  0  0  0  0  0  0  0  0  0  0  0
   10.3679   43.5416  130.7783 C   0  0  0  0  0  0  0  0  0  0  0  0
    9.8868   43.4277  129.4914 N   0  0  0  0  0  0  0  0  0  0  0  0
   10.1338   48.2106  128.8816 H   0  0  0  0  0  0  0  0  0  0  0  0
    9.1171   50.4692  134.2695 C   0  0  0  0  0  0  0  0  0  0  0  0
    9.5482   50.9578  133.1759 O   0  0  0  0  0  0  0  0  0  0  0  0
    8.5267   51.3613  135.1804 N   0  0  0  0  0  0  0  0  0  0  0  0
    8.1456   50.9699  136.0832 H   0  0  0  0  0  0  0  0  0  0  0  0
    8.4083   52.7775  134.9625 C   0  0  0  0  0  0  0  0  0  0  0  0
    7.7969   53.4269  136.1438 C   0  0  0  0  0  0  0  0  0  0  0  0
    6.8266   54.4080  135.9818 C   0  0  0  0  0  0  0  0  0  0  0  0
    6.2225   55.0338  137.0523 C   0  0  0  0  0  0  0  0  0  0  0  0
    6.5750   54.6936  138.3469 C   0  0  0  0  0  0  0  0  0  0  0  0
    7.5251   53.7327  138.5330 C   0  0  0  0  0  0  0  0  0  0  0  0
    8.1333   53.1017  137.4568 C   0  0  0  0  0  0  0  0  0  0  0  0
    8.0467   44.2421  126.6695 N   0  0  0  0  0  0  0  0  0  0  0  0
    8.7549   44.3430  127.5732 C   0  0  0  0  0  0  0  0  0  0  0  0
    9.6464   42.1642  128.9079 C   0  0  0  0  0  0  0  0  0  0  0  0
   10.2550   41.8389  127.5856 C   0  0  0  0  0  0  0  0  0  0  0  0
   10.4925   40.4533  127.4653 F   0  0  0  0  0  0  0  0  0  0  0  0
   11.2666   42.6102  127.1077 F   0  0  0  0  0  0  0  0  0  0  0  0
    9.3036   41.9507  126.5122 F   0  0  0  0  0  0  0  0  0  0  0  0
 37 38  3  0  0  0
 38  1  1  0  0  0
  1  2  2  0  0  0
  2  3  1  0  0  0
  2  4  1  0  0  0
  4  5  1  0  0  0
  5  6  1  0  0  0
  6  7  2  0  0  0
  6  8  1  0  0  0
  8  9  2  0  0  0
  9 10  1  0  0  0
 10 11  2  0  0  0
 11 12  1  0  0  0
 12 13  2  0  0  0
 13 14  1  0  0  0
 13 15  1  0  0  0
 15 16  2  0  0  0
 16 17  1  0  0  0
 17 18  1  0  0  0
 18 19  2  0  0  0
 19 20  1  0  0  0
 20 21  2  0  0  0
 21 22  1  0  0  0
 22 23  2  0  0  0
 23 24  1  0  0  0
 24 39  1  0  0  0
 39 40  1  0  0  0
 40 41  1  0  0  0
 40 42  1  0  0  0
 40 43  1  0  0  0
 10 26  1  0  0  0
 26 27  2  0  0  0
 26 28  1  0  0  0
 28 30  1  0  0  0
 30 31  1  0  0  0
 31 32  2  0  0  0
 32 33  1  0  0  0
 33 34  2  0  0  0
 34 35  1  0  0  0
 35 36  2  0  0  0
 24  1  1  0  0  0
 36 31  1  0  0  0
 17  4  2  0  0  0
 23 18  1  0  0  0
 16  8  1  0  0  0
 15  9  1  0  0  0
  5 25  1  0  0  0
 28 29  1  0  0  0
M  END
> <minimizedAffinity>
39.20180

> <CNNscore>
0.3615284264

> <CNNaffinity>
7.6153573990

> <CNN_VS>
2.7531681061

> <CNNaffinity_variance>
0.6956013441

$$$$
[H]c1c([H])c([H])c(C([H])([H])N([H])C(=O)c2c([H])c([H])c(Cl)c3c2c2c(=O)n([H])c4c(C([H])([H])[H])c(C#N)n(C([H])([H])C(F)(F)F)c5c([H])c([H])c([H])c([H])c5c4c32)c([H])c1[H]


 43 48  0  0  0  0  0  0  0  0999 V2000
    7.8178   48.8035  131.5840 C   0  0  0  0  0  0  0  0  0  0  0  0
    7.5716   47.8045  130.6212 C   0  0  0  0  0  0  0  0  0  0  0  0
    6.3725   47.8870  129.7854 C   0  0  0  0  0  0  0  0  0  0  0  0
    8.4719   46.7597  130.3512 C   0  0  0  0  0  0  0  0  0  0  0  0
    8.4152   46.3429  129.0944 N   0  0  0  0  0  0  0  0  0  0  0  0
    9.3820   45.5429  128.6241 C   0  0  0  0  0  0  0  0  0  0  0  0
    9.3389   45.1359  127.4441 O   0  0  0  0  0  0  0  0  0  0  0  0
   10.4523   45.1514  129.4434 C   0  0  0  0  0  0  0  0  0  0  0  0
   11.6737   44.5382  129.5950 C   0  0  0  0  0  0  0  0  0  0  0  0
   12.6489   43.8317  128.9615 C   0  0  0  0  0  0  0  0  0  0  0  0
   13.8067   43.5235  129.6619 C   0  0  0  0  0  0  0  0  0  0  0  0
   13.9237   43.9449  130.9572 C   0  0  0  0  0  0  0  0  0  0  0  0
   12.9442   44.6636  131.6073 C   0  0  0  0  0  0  0  0  0  0  0  0
   13.3191   45.3237  133.1770 Cl  0  0  0  0  0  0  0  0  0  0  0  0
   11.7795   44.9730  130.9256 C   0  0  0  0  0  0  0  0  0  0  0  0
   10.5493   45.5621  130.7640 C   0  0  0  0  0  0  0  0  0  0  0  0
    9.5201   46.3576  131.1704 C   0  0  0  0  0  0  0  0  0  0  0  0
    9.4809   46.5064  132.5439 C   0  0  0  0  0  0  0  0  0  0  0  0
    9.9509   45.3887  133.1725 C   0  0  0  0  0  0  0  0  0  0  0  0
    9.9947   45.4089  134.5648 C   0  0  0  0  0  0  0  0  0  0  0  0
    9.5857   46.5026  135.2770 C   0  0  0  0  0  0  0  0  0  0  0  0
    9.1070   47.6206  134.6225 C   0  0  0  0  0  0  0  0  0  0  0  0
    9.0452   47.6271  133.2689 C   0  0  0  0  0  0  0  0  0  0  0  0
    8.3143   48.7164  132.8451 N   0  0  0  0  0  0  0  0  0  0  0  0
    7.6026   46.6712  128.5300 H   0  0  0  0  0  0  0  0  0  0  0  0
   12.4693   43.4172  127.5858 C   0  0  0  0  0  0  0  0  0  0  0  0
   11.3316   43.4899  127.0193 O   0  0  0  0  0  0  0  0  0  0  0  0
   13.5357   42.9190  126.8185 N   0  0  0  0  0  0  0  0  0  0  0  0
   14.4901   42.8711  127.2662 H   0  0  0  0  0  0  0  0  0  0  0  0
   13.4110   42.4679  125.4592 C   0  0  0  0  0  0  0  0  0  0  0  0
   13.0648   41.0291  125.4280 C   0  0  0  0  0  0  0  0  0  0  0  0
   14.0069   40.0889  125.0294 C   0  0  0  0  0  0  0  0  0  0  0  0
   13.7329   38.7375  124.9935 C   0  0  0  0  0  0  0  0  0  0  0  0
   12.4829   38.2708  125.3619 C   0  0  0  0  0  0  0  0  0  0  0  0
   11.5401   39.1737  125.7577 C   0  0  0  0  0  0  0  0  0  0  0  0
   11.8147   40.5337  125.7949 C   0  0  0  0  0  0  0  0  0  0  0  0
    7.1875   51.1934  130.7381 N   0  0  0  0  0  0  0  0  0  0  0  0
    7.4584   50.1313  131.0948 C   0  0  0  0  0  0  0  0  0  0  0  0
    8.0157   49.7841  133.7201 C   0  0  0  0  0  0  0  0  0  0  0  0
    7.4817   49.4900  135.0812 C   0  0  0  0  0  0  0  0  0  0  0  0
    7.1292   50.6790  135.7540 F   0  0  0  0  0  0  0  0  0  0  0  0
    8.1207   48.5854  135.8687 F   0  0  0  0  0  0  0  0  0  0  0  0
    6.1634   48.9161  135.0306 F   0  0  0  0  0  0  0  0  0  0  0  0
 37 38  3  0  0  0
 38  1  1  0  0  0
  1  2  2  0  0  0
  2  3  1  0  0  0
  2  4  1  0  0  0
  4  5  1  0  0  0
  5  6  1  0  0  0
  6  7  2  0  0  0
  6  8  1  0  0  0
  8  9  2  0  0  0
  9 10  1  0  0  0
 10 11  2  0  0  0
 11 12  1  0  0  0
 12 13  2  0  0  0
 13 14  1  0  0  0
 13 15  1  0  0  0
 15 16  2  0  0  0
 16 17  1  0  0  0
 17 18  1  0  0  0
 18 19  2  0  0  0
 19 20  1  0  0  0
 20 21  2  0  0  0
 21 22  1  0  0  0
 22 23  2  0  0  0
 23 24  1  0  0  0
 24 39  1  0  0  0
 39 40  1  0  0  0
 40 41  1  0  0  0
 40 42  1  0  0  0
 40 43  1  0  0  0
 10 26  1  0  0  0
 26 27  2  0  0  0
 26 28  1  0  0  0
 28 30  1  0  0  0
 30 31  1  0  0  0
 31 32  2  0  0  0
 32 33  1  0  0  0
 33 34  2  0  0  0
 34 35  1  0  0  0
 35 36  2  0  0  0
 24  1  1  0  0  0
 36 31  1  0  0  0
 17  4  2  0  0  0
 23 18  1  0  0  0
 16  8  1  0  0  0
 15  9  1  0  0  0
  5 25  1  0  0  0
 28 29  1  0  0  0
M  END
> <minimizedAffinity>
36.47108

> <CNNscore>
0.3562453389

> <CNNaffinity>
7.9395074844

> <CNN_VS>
2.8284125328

> <CNNaffinity_variance>
0.7959197760

$$$$
[H]c1c([H])c([H])c(C([H])([H])N([H])C(=O)c2c([H])c([H])c(Cl)c3c2c2c(=O)n([H])c4c(C([H])([H])[H])c(C#N)n(C([H])([H])C(F)(F)F)c5c([H])c([H])c([H])c([H])c5c4c32)c([H])c1[H]


 43 48  0  0  0  0  0  0  0  0999 V2000
    8.8860   49.0194  132.6206 C   0  0  0  0  0  0  0  0  0  0  0  0
    8.1604   48.9666  131.4139 C   0  0  0  0  0  0  0  0  0  0  0  0
    7.3474   50.1150  131.0093 C   0  0  0  0  0  0  0  0  0  0  0  0
    8.2417   47.8890  130.5154 C   0  0  0  0  0  0  0  0  0  0  0  0
    8.0495   48.2532  129.2557 N   0  0  0  0  0  0  0  0  0  0  0  0
    8.3515   47.3954  128.2714 C   0  0  0  0  0  0  0  0  0  0  0  0
    8.1694   47.7212  127.0795 O   0  0  0  0  0  0  0  0  0  0  0  0
    8.8743   46.1253  128.5605 C   0  0  0  0  0  0  0  0  0  0  0  0
    9.4364   44.9441  128.1367 C   0  0  0  0  0  0  0  0  0  0  0  0
    9.8170   44.2220  127.0480 C   0  0  0  0  0  0  0  0  0  0  0  0
   10.4700   43.0138  127.2481 C   0  0  0  0  0  0  0  0  0  0  0  0
   10.7087   42.5994  128.5289 C   0  0  0  0  0  0  0  0  0  0  0  0
   10.3308   43.3241  129.6382 C   0  0  0  0  0  0  0  0  0  0  0  0
   10.8945   42.7862  131.1981 Cl  0  0  0  0  0  0  0  0  0  0  0  0
    9.6715   44.5279  129.4567 C   0  0  0  0  0  0  0  0  0  0  0  0
    9.0886   45.7032  129.8635 C   0  0  0  0  0  0  0  0  0  0  0  0
    8.7405   46.6247  130.8054 C   0  0  0  0  0  0  0  0  0  0  0  0
    8.6819   46.0826  132.0754 C   0  0  0  0  0  0  0  0  0  0  0  0
    8.3035   44.7710  132.0324 C   0  0  0  0  0  0  0  0  0  0  0  0
    8.2287   44.0872  133.2438 C   0  0  0  0  0  0  0  0  0  0  0  0
    8.5228   44.7008  134.4304 C   0  0  0  0  0  0  0  0  0  0  0  0
    8.8969   46.0300  134.4529 C   0  0  0  0  0  0  0  0  0  0  0  0
    8.9708   46.7231  133.2909 C   0  0  0  0  0  0  0  0  0  0  0  0
    9.1099   48.0674  133.5630 N   0  0  0  0  0  0  0  0  0  0  0  0
    7.6668   49.2101  129.0997 H   0  0  0  0  0  0  0  0  0  0  0  0
    9.5407   44.7159  125.7152 C   0  0  0  0  0  0  0  0  0  0  0  0
    8.8042   44.0607  124.9097 O   0  0  0  0  0  0  0  0  0  0  0  0
   10.0697   45.9328  125.2533 N   0  0  0  0  0  0  0  0  0  0  0  0
   10.6658   46.4986  125.9151 H   0  0  0  0  0  0  0  0  0  0  0  0
    9.8521   46.4588  123.9331 C   0  0  0  0  0  0  0  0  0  0  0  0
   10.2199   47.8918  123.8869 C   0  0  0  0  0  0  0  0  0  0  0  0
    9.2713   48.8495  123.5505 C   0  0  0  0  0  0  0  0  0  0  0  0
    9.5651   50.1963  123.5036 C   0  0  0  0  0  0  0  0  0  0  0  0
   10.8430   50.6404  123.7971 C   0  0  0  0  0  0  0  0  0  0  0  0
   11.7927   49.7200  124.1308 C   0  0  0  0  0  0  0  0  0  0  0  0
   11.4982   48.3646  124.1790 C   0  0  0  0  0  0  0  0  0  0  0  0
    9.9280   51.3739  133.0623 N   0  0  0  0  0  0  0  0  0  0  0  0
    9.4685   50.3387  132.8482 C   0  0  0  0  0  0  0  0  0  0  0  0
    9.4601   48.5217  134.8536 C   0  0  0  0  0  0  0  0  0  0  0  0
   10.7192   48.0336  135.4868 C   0  0  0  0  0  0  0  0  0  0  0  0
   10.4470   47.3410  136.6855 F   0  0  0  0  0  0  0  0  0  0  0  0
   11.7923   48.8635  135.5667 F   0  0  0  0  0  0  0  0  0  0  0  0
   11.2905   46.9266  134.7669 F   0  0  0  0  0  0  0  0  0  0  0  0
 37 38  3  0  0  0
 38  1  1  0  0  0
  1  2  2  0  0  0
  2  3  1  0  0  0
  2  4  1  0  0  0
  4  5  1  0  0  0
  5  6  1  0  0  0
  6  7  2  0  0  0
  6  8  1  0  0  0
  8  9  2  0  0  0
  9 10  1  0  0  0
 10 11  2  0  0  0
 11 12  1  0  0  0
 12 13  2  0  0  0
 13 14  1  0  0  0
 13 15  1  0  0  0
 15 16  2  0  0  0
 16 17  1  0  0  0
 17 18  1  0  0  0
 18 19  2  0  0  0
 19 20  1  0  0  0
 20 21  2  0  0  0
 21 22  1  0  0  0
 22 23  2  0  0  0
 23 24  1  0  0  0
 24 39  1  0  0  0
 39 40  1  0  0  0
 40 41  1  0  0  0
 40 42  1  0  0  0
 40 43  1  0  0  0
 10 26  1  0  0  0
 26 27  2  0  0  0
 26 28  1  0  0  0
 28 30  1  0  0  0
 30 31  1  0  0  0
 31 32  2  0  0  0
 32 33  1  0  0  0
 33 34  2  0  0  0
 34 35  1  0  0  0
 35 36  2  0  0  0
 24  1  1  0  0  0
 36 31  1  0  0  0
 17  4  2  0  0  0
 23 18  1  0  0  0
 16  8  1  0  0  0
 15  9  1  0  0  0
  5 25  1  0  0  0
 28 29  1  0  0  0
M  END
> <minimizedAffinity>
39.70518

> <CNNscore>
0.3362183273

> <CNNaffinity>
7.5516052246

> <CNN_VS>
2.5389881134

> <CNNaffinity_variance>
0.6542150974

$$$$
[H]c1c([H])c([H])c(C([H])([H])N([H])C(=O)c2c([H])c([H])c(Cl)c3c2c2c(=O)n([H])c4c(C([H])([H])[H])c(C#N)n(C([H])([H])C(F)(F)F)c5c([H])c([H])c([H])c([H])c5c4c32)c([H])c1[H]


 43 48  0  0  0  0  0  0  0  0999 V2000
    7.9214   48.3040  130.5866 C   0  0  0  0  0  0  0  0  0  0  0  0
    7.3279   47.2028  129.9382 C   0  0  0  0  0  0  0  0  0  0  0  0
    6.2944   47.4314  128.9268 C   0  0  0  0  0  0  0  0  0  0  0  0
    7.7395   45.8753  130.1470 C   0  0  0  0  0  0  0  0  0  0  0  0
    7.5644   45.1081  129.0807 N   0  0  0  0  0  0  0  0  0  0  0  0
    8.1427   43.8999  129.0397 C   0  0  0  0  0  0  0  0  0  0  0  0
    7.9813   43.1621  128.0449 O   0  0  0  0  0  0  0  0  0  0  0  0
    8.9344   43.4457  130.1060 C   0  0  0  0  0  0  0  0  0  0  0  0
    9.7986   42.5169  130.6364 C   0  0  0  0  0  0  0  0  0  0  0  0
   10.4281   41.3310  130.4155 C   0  0  0  0  0  0  0  0  0  0  0  0
   11.3376   40.8763  131.3600 C   0  0  0  0  0  0  0  0  0  0  0  0
   11.5684   41.6386  132.4713 C   0  0  0  0  0  0  0  0  0  0  0  0
   10.9393   42.8423  132.7034 C   0  0  0  0  0  0  0  0  0  0  0  0
   11.4922   43.8094  134.0448 Cl  0  0  0  0  0  0  0  0  0  0  0  0
   10.0232   43.3069  131.7750 C   0  0  0  0  0  0  0  0  0  0  0  0
    9.1416   44.2147  131.2408 C   0  0  0  0  0  0  0  0  0  0  0  0
    8.5066   45.4202  131.2128 C   0  0  0  0  0  0  0  0  0  0  0  0
    8.4818   46.0307  132.4525 C   0  0  0  0  0  0  0  0  0  0  0  0
    8.4386   45.1044  133.4552 C   0  0  0  0  0  0  0  0  0  0  0  0
    8.4372   45.5794  134.7648 C   0  0  0  0  0  0  0  0  0  0  0  0
    8.4787   46.9187  135.0394 C   0  0  0  0  0  0  0  0  0  0  0  0
    8.5151   47.8396  134.0108 C   0  0  0  0  0  0  0  0  0  0  0  0
    8.5094   47.4074  132.7266 C   0  0  0  0  0  0  0  0  0  0  0  0
    8.2953   48.4749  131.8810 N   0  0  0  0  0  0  0  0  0  0  0  0
    6.9738   45.4993  128.3161 H   0  0  0  0  0  0  0  0  0  0  0  0
   10.1458   40.5705  129.2161 C   0  0  0  0  0  0  0  0  0  0  0  0
    9.6321   39.4076  129.2794 O   0  0  0  0  0  0  0  0  0  0  0  0
   10.4246   41.0783  127.9360 N   0  0  0  0  0  0  0  0  0  0  0  0
   10.8320   42.0491  127.8644 H   0  0  0  0  0  0  0  0  0  0  0  0
   10.1915   40.3588  126.7133 C   0  0  0  0  0  0  0  0  0  0  0  0
   11.4281   39.6689  126.2826 C   0  0  0  0  0  0  0  0  0  0  0  0
   11.7836   38.4491  126.8448 C   0  0  0  0  0  0  0  0  0  0  0  0
   12.9209   37.7653  126.4685 C   0  0  0  0  0  0  0  0  0  0  0  0
   13.7583   38.2883  125.4982 C   0  0  0  0  0  0  0  0  0  0  0  0
   13.4314   39.4846  124.9302 C   0  0  0  0  0  0  0  0  0  0  0  0
   12.2870   40.1733  125.3075 C   0  0  0  0  0  0  0  0  0  0  0  0
    8.2879   50.3015  128.9433 N   0  0  0  0  0  0  0  0  0  0  0  0
    8.1456   49.4189  129.6708 C   0  0  0  0  0  0  0  0  0  0  0  0
    8.4216   49.8064  132.3348 C   0  0  0  0  0  0  0  0  0  0  0  0
    9.7768   50.4200  132.4411 C   0  0  0  0  0  0  0  0  0  0  0  0
    9.6944   51.7520  132.8988 F   0  0  0  0  0  0  0  0  0  0  0  0
   10.6716   50.2426  131.4339 F   0  0  0  0  0  0  0  0  0  0  0  0
   10.5206   49.8943  133.5549 F   0  0  0  0  0  0  0  0  0  0  0  0
 37 38  3  0  0  0
 38  1  1  0  0  0
  1  2  2  0  0  0
  2  3  1  0  0  0
  2  4  1  0  0  0
  4  5  1  0  0  0
  5  6  1  0  0  0
  6  7  2  0  0  0
  6  8  1  0  0  0
  8  9  2  0  0  0
  9 10  1  0  0  0
 10 11  2  0  0  0
 11 12  1  0  0  0
 12 13  2  0  0  0
 13 14  1  0  0  0
 13 15  1  0  0  0
 15 16  2  0  0  0
 16 17  1  0  0  0
 17 18  1  0  0  0
 18 19  2  0  0  0
 19 20  1  0  0  0
 20 21  2  0  0  0
 21 22  1  0  0  0
 22 23  2  0  0  0
 23 24  1  0  0  0
 24 39  1  0  0  0
 39 40  1  0  0  0
 40 41  1  0  0  0
 40 42  1  0  0  0
 40 43  1  0  0  0
 10 26  1  0  0  0
 26 27  2  0  0  0
 26 28  1  0  0  0
 28 30  1  0  0  0
 30 31  1  0  0  0
 31 32  2  0  0  0
 32 33  1  0  0  0
 33 34  2  0  0  0
 34 35  1  0  0  0
 35 36  2  0  0  0
 24  1  1  0  0  0
 36 31  1  0  0  0
 17  4  2  0  0  0
 23 18  1  0  0  0
 16  8  1  0  0  0
 15  9  1  0  0  0
  5 25  1  0  0  0
 28 29  1  0  0  0
M  END
> <minimizedAffinity>
22.38486

> <CNNscore>
0.3262212276

> <CNNaffinity>
7.9694061279

> <CNN_VS>
2.5997893810

> <CNNaffinity_variance>
0.5756455064

$$$$
[H]c1c([H])c([H])c(C([H])([H])N([H])C(=O)c2c([H])c([H])c(Cl)c3c2c2c(=O)n([H])c4c(C([H])([H])[H])c(C#N)n(C([H])([H])C(F)(F)F)c5c([H])c([H])c([H])c([H])c5c4c32)c([H])c1[H]


 43 48  0  0  0  0  0  0  0  0999 V2000
    9.6809   48.8805  133.0345 C   0  0  0  0  0  0  0  0  0  0  0  0
    8.7767   48.3426  132.0973 C   0  0  0  0  0  0  0  0  0  0  0  0
    7.8029   49.2212  131.4468 C   0  0  0  0  0  0  0  0  0  0  0  0
    8.8128   47.0018  131.6775 C   0  0  0  0  0  0  0  0  0  0  0  0
    8.3840   46.8399  130.4339 N   0  0  0  0  0  0  0  0  0  0  0  0
    8.6019   45.6733  129.8115 C   0  0  0  0  0  0  0  0  0  0  0  0
    8.1977   45.5027  128.6421 O   0  0  0  0  0  0  0  0  0  0  0  0
    9.2836   44.6304  130.4579 C   0  0  0  0  0  0  0  0  0  0  0  0
    9.8790   43.3916  130.4174 C   0  0  0  0  0  0  0  0  0  0  0  0
   10.1442   42.3110  129.6342 C   0  0  0  0  0  0  0  0  0  0  0  0
   10.9332   41.2935  130.1521 C   0  0  0  0  0  0  0  0  0  0  0  0
   11.4160   41.4186  131.4250 C   0  0  0  0  0  0  0  0  0  0  0  0
   11.1567   42.5098  132.2255 C   0  0  0  0  0  0  0  0  0  0  0  0
   12.0158   42.6383  133.7374 Cl  0  0  0  0  0  0  0  0  0  0  0  0
   10.3648   43.5304  131.7272 C   0  0  0  0  0  0  0  0  0  0  0  0
    9.7466   44.7565  131.7586 C   0  0  0  0  0  0  0  0  0  0  0  0
    9.4705   45.9640  132.3269 C   0  0  0  0  0  0  0  0  0  0  0  0
    9.6717   45.9602  133.6943 C   0  0  0  0  0  0  0  0  0  0  0  0
    9.4182   44.7273  134.2245 C   0  0  0  0  0  0  0  0  0  0  0  0
    9.6073   44.5698  135.5956 C   0  0  0  0  0  0  0  0  0  0  0  0
   10.0311   45.6053  136.3824 C   0  0  0  0  0  0  0  0  0  0  0  0
   10.2754   46.8464  135.8278 C   0  0  0  0  0  0  0  0  0  0  0  0
   10.0924   47.0318  134.4981 C   0  0  0  0  0  0  0  0  0  0  0  0
   10.1452   48.3784  134.2079 N   0  0  0  0  0  0  0  0  0  0  0  0
    7.8915   47.6500  130.0008 H   0  0  0  0  0  0  0  0  0  0  0  0
    9.6085   42.2377  128.2910 C   0  0  0  0  0  0  0  0  0  0  0  0
    9.0137   43.2322  127.7640 O   0  0  0  0  0  0  0  0  0  0  0  0
    9.7199   41.0729  127.5131 N   0  0  0  0  0  0  0  0  0  0  0  0
   10.2278   40.2458  127.9270 H   0  0  0  0  0  0  0  0  0  0  0  0
    9.1844   40.9336  126.1862 C   0  0  0  0  0  0  0  0  0  0  0  0
    9.8466   39.8120  125.4830 C   0  0  0  0  0  0  0  0  0  0  0  0
    9.1882   39.1361  124.4633 C   0  0  0  0  0  0  0  0  0  0  0  0
    9.7684   38.0917  123.7740 C   0  0  0  0  0  0  0  0  0  0  0  0
   11.0521   37.6792  124.0869 C   0  0  0  0  0  0  0  0  0  0  0  0
   11.7204   38.3269  125.0841 C   0  0  0  0  0  0  0  0  0  0  0  0
   11.1381   39.3783  125.7782 C   0  0  0  0  0  0  0  0  0  0  0  0
   10.5640   51.2395  132.3414 N   0  0  0  0  0  0  0  0  0  0  0  0
   10.1643   50.1977  132.6305 C   0  0  0  0  0  0  0  0  0  0  0  0
   10.6562   49.3094  135.1389 C   0  0  0  0  0  0  0  0  0  0  0  0
   12.0983   49.2546  135.5153 C   0  0  0  0  0  0  0  0  0  0  0  0
   12.7776   50.4141  135.0855 F   0  0  0  0  0  0  0  0  0  0  0  0
   12.7976   48.1064  135.3170 F   0  0  0  0  0  0  0  0  0  0  0  0
   12.2944   49.4463  136.9277 F   0  0  0  0  0  0  0  0  0  0  0  0
 37 38  3  0  0  0
 38  1  1  0  0  0
  1  2  2  0  0  0
  2  3  1  0  0  0
  2  4  1  0  0  0
  4  5  1  0  0  0
  5  6  1  0  0  0
  6  7  2  0  0  0
  6  8  1  0  0  0
  8  9  2  0  0  0
  9 10  1  0  0  0
 10 11  2  0  0  0
 11 12  1  0  0  0
 12 13  2  0  0  0
 13 14  1  0  0  0
 13 15  1  0  0  0
 15 16  2  0  0  0
 16 17  1  0  0  0
 17 18  1  0  0  0
 18 19  2  0  0  0
 19 20  1  0  0  0
 20 21  2  0  0  0
 21 22  1  0  0  0
 22 23  2  0  0  0
 23 24  1  0  0  0
 24 39  1  0  0  0
 39 40  1  0  0  0
 40 41  1  0  0  0
 40 42  1  0  0  0
 40 43  1  0  0  0
 10 26  1  0  0  0
 26 27  2  0  0  0
 26 28  1  0  0  0
 28 30  1  0  0  0
 30 31  1  0  0  0
 31 32  2  0  0  0
 32 33  1  0  0  0
 33 34  2  0  0  0
 34 35  1  0  0  0
 35 36  2  0  0  0
 24  1  1  0  0  0
 36 31  1  0  0  0
 17  4  2  0  0  0
 23 18  1  0  0  0
 16  8  1  0  0  0
 15  9  1  0  0  0
  5 25  1  0  0  0
 28 29  1  0  0  0
M  END
> <minimizedAffinity>
39.61899

> <CNNscore>
0.3218542635

> <CNNaffinity>
7.6637549400

> <CNN_VS>
2.4666121006

> <CNNaffinity_variance>
0.7632765770

$$$$
[H]c1nc(N2C([H])([H])C([H])([H])N(C(=O)N([H])C([H])([H])C([H])([H])[H])C([H])([H])C2([H])[H])c([H])c([H])c1-c1c([H])c(F)c([H])c(S(=O)(=O)c2c([H])c([H])c([H])c([H])c2[H])c1[H]


 34 37  0  0  0  0  0  0  0  0999 V2000
   10.7820   45.0003  132.2096 C   0  0  0  0  0  0  0  0  0  0  0  0
   11.7214   45.9967  132.3865 C   0  0  0  0  0  0  0  0  0  0  0  0
   11.3348   47.3348  132.3584 C   0  0  0  0  0  0  0  0  0  0  0  0
   10.0176   47.6883  132.1550 C   0  0  0  0  0  0  0  0  0  0  0  0
    9.1227   46.6537  131.9845 C   0  0  0  0  0  0  0  0  0  0  0  0
    9.5036   45.3647  132.0129 N   0  0  0  0  0  0  0  0  0  0  0  0
   11.4610   39.0328  130.1232 N   0  0  0  0  0  0  0  0  0  0  0  0
   11.3177   39.5170  131.4391 C   0  0  0  0  0  0  0  0  0  0  0  0
   11.1660   38.6955  132.3752 O   0  0  0  0  0  0  0  0  0  0  0  0
   11.3378   40.8977  131.7486 N   0  0  0  0  0  0  0  0  0  0  0  0
   11.5166   41.8481  130.6759 C   0  0  0  0  0  0  0  0  0  0  0  0
   12.1105   43.1139  131.3038 C   0  0  0  0  0  0  0  0  0  0  0  0
   11.1290   43.6292  132.2278 N   0  0  0  0  0  0  0  0  0  0  0  0
   10.5136   42.7135  133.1702 C   0  0  0  0  0  0  0  0  0  0  0  0
   11.1819   41.3566  133.0938 C   0  0  0  0  0  0  0  0  0  0  0  0
   11.5865   39.6775  129.3217 H   0  0  0  0  0  0  0  0  0  0  0  0
   12.1352   37.2570  128.5876 C   0  0  0  0  0  0  0  0  0  0  0  0
   11.4321   37.6152  129.8767 C   0  0  0  0  0  0  0  0  0  0  0  0
    9.5448   49.0657  132.1112 C   0  0  0  0  0  0  0  0  0  0  0  0
   10.0140   50.0550  132.9442 C   0  0  0  0  0  0  0  0  0  0  0  0
    9.5678   51.3583  132.9078 C   0  0  0  0  0  0  0  0  0  0  0  0
   10.0552   52.3220  133.7515 F   0  0  0  0  0  0  0  0  0  0  0  0
    8.5873   51.7226  131.9862 C   0  0  0  0  0  0  0  0  0  0  0  0
    8.1096   50.7406  131.1466 C   0  0  0  0  0  0  0  0  0  0  0  0
    8.5708   49.4386  131.1992 C   0  0  0  0  0  0  0  0  0  0  0  0
    6.8641   51.2171  129.9854 S   0  0  0  0  0  0  0  0  0  0  0  0
    5.8424   52.0630  130.7085 O   0  0  0  0  0  0  0  0  0  0  0  0
    7.4400   51.9444  128.8276 O   0  0  0  0  0  0  0  0  0  0  0  0
    6.1202   49.7403  129.3975 C   0  0  0  0  0  0  0  0  0  0  0  0
    4.8080   49.4081  129.7002 C   0  0  0  0  0  0  0  0  0  0  0  0
    4.1988   48.2579  129.2528 C   0  0  0  0  0  0  0  0  0  0  0  0
    4.9073   47.3802  128.4654 C   0  0  0  0  0  0  0  0  0  0  0  0
    6.2243   47.6952  128.1508 C   0  0  0  0  0  0  0  0  0  0  0  0
    6.8104   48.8488  128.6088 C   0  0  0  0  0  0  0  0  0  0  0  0
 17 18  1  0  0  0
 18  7  1  0  0  0
  7  8  1  0  0  0
  8  9  2  0  0  0
  8 10  1  0  0  0
 10 11  1  0  0  0
 11 12  1  0  0  0
 12 13  1  0  0  0
 13 14  1  0  0  0
 14 15  1  0  0  0
 13  1  1  0  0  0
  1  2  2  0  0  0
  2  3  1  0  0  0
  3  4  2  0  0  0
  4  5  1  0  0  0
  5  6  2  0  0  0
  4 19  1  0  0  0
 19 20  2  0  0  0
 20 21  1  0  0  0
 21 22  1  0  0  0
 21 23  2  0  0  0
 23 24  1  0  0  0
 24 25  2  0  0  0
 24 26  1  0  0  0
 26 27  2  0  0  0
 26 28  2  0  0  0
 26 29  1  0  0  0
 29 30  2  0  0  0
 30 31  1  0  0  0
 31 32  2  0  0  0
 32 33  1  0  0  0
 33 34  2  0  0  0
 15 10  1  0  0  0
  6  1  1  0  0  0
 25 19  1  0  0  0
 34 29  1  0  0  0
  7 16  1  0  0  0
M  END
> <minimizedAffinity>
35.41713

> <CNNscore>
0.5784944296

> <CNNaffinity>
7.6416320801

> <CNN_VS>
4.4206414223

> <CNNaffinity_variance>
2.3306519985

$$$$
[H]c1nc(N2C([H])([H])C([H])([H])N(C(=O)N([H])C([H])([H])C([H])([H])[H])C([H])([H])C2([H])[H])c([H])c([H])c1-c1c([H])c(F)c([H])c(S(=O)(=O)c2c([H])c([H])c([H])c([H])c2[H])c1[H]


 34 37  0  0  0  0  0  0  0  0999 V2000
    8.2664   47.0022  129.9459 C   0  0  0  0  0  0  0  0  0  0  0  0
    8.4663   46.1052  128.9153 C   0  0  0  0  0  0  0  0  0  0  0  0
    9.0500   44.8663  129.1704 C   0  0  0  0  0  0  0  0  0  0  0  0
    9.4367   44.5137  130.4461 C   0  0  0  0  0  0  0  0  0  0  0  0
    9.2135   45.4467  131.4361 C   0  0  0  0  0  0  0  0  0  0  0  0
    8.6496   46.6404  131.1820 N   0  0  0  0  0  0  0  0  0  0  0  0
    7.1134   52.6060  127.1721 N   0  0  0  0  0  0  0  0  0  0  0  0
    6.9632   52.2188  128.5190 C   0  0  0  0  0  0  0  0  0  0  0  0
    6.6865   53.0935  129.3749 O   0  0  0  0  0  0  0  0  0  0  0  0
    7.1127   50.8783  128.9469 N   0  0  0  0  0  0  0  0  0  0  0  0
    7.4268   49.8661  127.9657 C   0  0  0  0  0  0  0  0  0  0  0  0
    6.9246   48.5333  128.5319 C   0  0  0  0  0  0  0  0  0  0  0  0
    7.6801   48.2718  129.7334 N   0  0  0  0  0  0  0  0  0  0  0  0
    7.8201   49.3345  130.7114 C   0  0  0  0  0  0  0  0  0  0  0  0
    6.9613   50.5198  130.3227 C   0  0  0  0  0  0  0  0  0  0  0  0
    7.3435   51.9153  126.4345 H   0  0  0  0  0  0  0  0  0  0  0  0
    8.2761   54.6966  126.6786 C   0  0  0  0  0  0  0  0  0  0  0  0
    6.9473   53.9870  126.8032 C   0  0  0  0  0  0  0  0  0  0  0  0
   10.0544   43.2379  130.7831 C   0  0  0  0  0  0  0  0  0  0  0  0
   11.0639   43.1055  131.7085 C   0  0  0  0  0  0  0  0  0  0  0  0
   11.6525   41.9014  132.0283 C   0  0  0  0  0  0  0  0  0  0  0  0
   12.6569   41.8017  132.9553 F   0  0  0  0  0  0  0  0  0  0  0  0
   11.2213   40.7368  131.3947 C   0  0  0  0  0  0  0  0  0  0  0  0
   10.2110   40.8567  130.4661 C   0  0  0  0  0  0  0  0  0  0  0  0
    9.6335   42.0745  130.1595 C   0  0  0  0  0  0  0  0  0  0  0  0
    9.6770   39.3715  129.6686 S   0  0  0  0  0  0  0  0  0  0  0  0
    9.9062   38.2174  130.6161 O   0  0  0  0  0  0  0  0  0  0  0  0
    8.2550   39.4502  129.2532 O   0  0  0  0  0  0  0  0  0  0  0  0
   10.6643   39.1791  128.2305 C   0  0  0  0  0  0  0  0  0  0  0  0
   11.7675   38.3386  128.2042 C   0  0  0  0  0  0  0  0  0  0  0  0
   12.5589   38.1677  127.0913 C   0  0  0  0  0  0  0  0  0  0  0  0
   12.2598   38.8541  125.9372 C   0  0  0  0  0  0  0  0  0  0  0  0
   11.1577   39.7015  125.9433 C   0  0  0  0  0  0  0  0  0  0  0  0
   10.3830   39.8557  127.0659 C   0  0  0  0  0  0  0  0  0  0  0  0
 17 18  1  0  0  0
 18  7  1  0  0  0
  7  8  1  0  0  0
  8  9  2  0  0  0
  8 10  1  0  0  0
 10 11  1  0  0  0
 11 12  1  0  0  0
 12 13  1  0  0  0
 13 14  1  0  0  0
 14 15  1  0  0  0
 13  1  1  0  0  0
  1  2  2  0  0  0
  2  3  1  0  0  0
  3  4  2  0  0  0
  4  5  1  0  0  0
  5  6  2  0  0  0
  4 19  1  0  0  0
 19 20  2  0  0  0
 20 21  1  0  0  0
 21 22  1  0  0  0
 21 23  2  0  0  0
 23 24  1  0  0  0
 24 25  2  0  0  0
 24 26  1  0  0  0
 26 27  2  0  0  0
 26 28  2  0  0  0
 26 29  1  0  0  0
 29 30  2  0  0  0
 30 31  1  0  0  0
 31 32  2  0  0  0
 32 33  1  0  0  0
 33 34  2  0  0  0
 15 10  1  0  0  0
  6  1  1  0  0  0
 25 19  1  0  0  0
 34 29  1  0  0  0
  7 16  1  0  0  0
M  END
> <minimizedAffinity>
30.60888

> <CNNscore>
0.4837980866

> <CNNaffinity>
6.9794664383

> <CNN_VS>
3.3766524792

> <CNNaffinity_variance>
0.6206813455

$$$$
[H]c1nc(N2C([H])([H])C([H])([H])N(C(=O)N([H])C([H])([H])C([H])([H])[H])C([H])([H])C2([H])[H])c([H])c([H])c1-c1c([H])c(F)c([H])c(S(=O)(=O)c2c([H])c([H])c([H])c([H])c2[H])c1[H]


 34 37  0  0  0  0  0  0  0  0999 V2000
    7.7305   50.1180  129.9798 C   0  0  0  0  0  0  0  0  0  0  0  0
    7.2698   48.8250  129.8298 C   0  0  0  0  0  0  0  0  0  0  0  0
    7.7177   47.8198  130.6841 C   0  0  0  0  0  0  0  0  0  0  0  0
    8.6225   48.0934  131.6881 C   0  0  0  0  0  0  0  0  0  0  0  0
    9.0485   49.4003  131.7923 C   0  0  0  0  0  0  0  0  0  0  0  0
    8.6115   50.3648  130.9639 N   0  0  0  0  0  0  0  0  0  0  0  0
    7.7432   54.1227  125.0415 N   0  0  0  0  0  0  0  0  0  0  0  0
    7.1988   54.2839  126.3315 C   0  0  0  0  0  0  0  0  0  0  0  0
    6.7473   55.4062  126.6642 O   0  0  0  0  0  0  0  0  0  0  0  0
    7.1407   53.2269  127.2706 N   0  0  0  0  0  0  0  0  0  0  0  0
    7.6546   51.9314  126.8921 C   0  0  0  0  0  0  0  0  0  0  0  0
    6.9339   50.8993  127.7665 C   0  0  0  0  0  0  0  0  0  0  0  0
    7.3055   51.1695  129.1345 N   0  0  0  0  0  0  0  0  0  0  0  0
    7.2306   52.5354  129.6182 C   0  0  0  0  0  0  0  0  0  0  0  0
    6.5887   53.4256  128.5746 C   0  0  0  0  0  0  0  0  0  0  0  0
    8.1281   53.2131  124.7279 H   0  0  0  0  0  0  0  0  0  0  0  0
    7.8396   54.7870  122.6929 C   0  0  0  0  0  0  0  0  0  0  0  0
    7.7714   55.2390  124.1337 C   0  0  0  0  0  0  0  0  0  0  0  0
    9.1344   47.0917  132.6139 C   0  0  0  0  0  0  0  0  0  0  0  0
    9.1080   47.2398  133.9815 C   0  0  0  0  0  0  0  0  0  0  0  0
    9.5934   46.2961  134.8605 C   0  0  0  0  0  0  0  0  0  0  0  0
    9.5528   46.4727  136.2189 F   0  0  0  0  0  0  0  0  0  0  0  0
   10.1473   45.1167  134.3646 C   0  0  0  0  0  0  0  0  0  0  0  0
   10.1793   44.9570  132.9968 C   0  0  0  0  0  0  0  0  0  0  0  0
    9.6869   45.9162  132.1319 C   0  0  0  0  0  0  0  0  0  0  0  0
   10.8877   43.4577  132.3828 S   0  0  0  0  0  0  0  0  0  0  0  0
   12.3300   43.3990  132.8286 O   0  0  0  0  0  0  0  0  0  0  0  0
   10.1353   42.2645  132.8423 O   0  0  0  0  0  0  0  0  0  0  0  0
   10.7980   43.5285  130.6315 C   0  0  0  0  0  0  0  0  0  0  0  0
    9.7556   42.9464  129.9254 C   0  0  0  0  0  0  0  0  0  0  0  0
    9.6592   42.9868  128.5531 C   0  0  0  0  0  0  0  0  0  0  0  0
   10.6332   43.6307  127.8258 C   0  0  0  0  0  0  0  0  0  0  0  0
   11.6865   44.2207  128.5152 C   0  0  0  0  0  0  0  0  0  0  0  0
   11.7610   44.1673  129.8847 C   0  0  0  0  0  0  0  0  0  0  0  0
 17 18  1  0  0  0
 18  7  1  0  0  0
  7  8  1  0  0  0
  8  9  2  0  0  0
  8 10  1  0  0  0
 10 11  1  0  0  0
 11 12  1  0  0  0
 12 13  1  0  0  0
 13 14  1  0  0  0
 14 15  1  0  0  0
 13  1  1  0  0  0
  1  2  2  0  0  0
  2  3  1  0  0  0
  3  4  2  0  0  0
  4  5  1  0  0  0
  5  6  2  0  0  0
  4 19  1  0  0  0
 19 20  2  0  0  0
 20 21  1  0  0  0
 21 22  1  0  0  0
 21 23  2  0  0  0
 23 24  1  0  0  0
 24 25  2  0  0  0
 24 26  1  0  0  0
 26 27  2  0  0  0
 26 28  2  0  0  0
 26 29  1  0  0  0
 29 30  2  0  0  0
 30 31  1  0  0  0
 31 32  2  0  0  0
 32 33  1  0  0  0
 33 34  2  0  0  0
 15 10  1  0  0  0
  6  1  1  0  0  0
 25 19  1  0  0  0
 34 29  1  0  0  0
  7 16  1  0  0  0
M  END
> <minimizedAffinity>
2.23320

> <CNNscore>
0.4750607312

> <CNNaffinity>
7.5800247192

> <CNN_VS>
3.6009721756

> <CNNaffinity_variance>
0.3394463062

$$$$
[H]c1nc(N2C([H])([H])C([H])([H])N(C(=O)N([H])C([H])([H])C([H])([H])[H])C([H])([H])C2([H])[H])c([H])c([H])c1-c1c([H])c(F)c([H])c(S(=O)(=O)c2c([H])c([H])c([H])c([H])c2[H])c1[H]


 34 37  0  0  0  0  0  0  0  0999 V2000
    7.3970   48.7149  130.1129 C   0  0  0  0  0  0  0  0  0  0  0  0
    6.7255   47.5574  129.7724 C   0  0  0  0  0  0  0  0  0  0  0  0
    7.0838   46.3442  130.3559 C   0  0  0  0  0  0  0  0  0  0  0  0
    8.1074   46.2752  131.2773 C   0  0  0  0  0  0  0  0  0  0  0  0
    8.7429   47.4605  131.5800 C   0  0  0  0  0  0  0  0  0  0  0  0
    8.3913   48.6274  131.0126 N   0  0  0  0  0  0  0  0  0  0  0  0
    7.5531   53.5956  126.0410 N   0  0  0  0  0  0  0  0  0  0  0  0
    7.1930   53.5693  127.4034 C   0  0  0  0  0  0  0  0  0  0  0  0
    6.9840   54.6546  127.9973 O   0  0  0  0  0  0  0  0  0  0  0  0
    7.0575   52.3636  128.1318 N   0  0  0  0  0  0  0  0  0  0  0  0
    7.2924   51.1108  127.4526 C   0  0  0  0  0  0  0  0  0  0  0  0
    6.5057   50.0410  128.2179 C   0  0  0  0  0  0  0  0  0  0  0  0
    7.0695   49.9680  129.5443 N   0  0  0  0  0  0  0  0  0  0  0  0
    7.2882   51.2021  130.2754 C   0  0  0  0  0  0  0  0  0  0  0  0
    6.6982   52.3719  129.5157 C   0  0  0  0  0  0  0  0  0  0  0  0
    7.7361   52.7221  125.5142 H   0  0  0  0  0  0  0  0  0  0  0  0
    7.4616   54.7091  123.8689 C   0  0  0  0  0  0  0  0  0  0  0  0
    7.6732   54.8567  125.3582 C   0  0  0  0  0  0  0  0  0  0  0  0
    8.5355   45.0415  131.9234 C   0  0  0  0  0  0  0  0  0  0  0  0
    7.6941   44.2401  132.6599 C   0  0  0  0  0  0  0  0  0  0  0  0
    8.0955   43.0740  133.2747 C   0  0  0  0  0  0  0  0  0  0  0  0
    7.2328   42.2964  134.0022 F   0  0  0  0  0  0  0  0  0  0  0  0
    9.4216   42.6592  133.1608 C   0  0  0  0  0  0  0  0  0  0  0  0
   10.2738   43.4535  132.4257 C   0  0  0  0  0  0  0  0  0  0  0  0
    9.8510   44.6201  131.8166 C   0  0  0  0  0  0  0  0  0  0  0  0
   11.9532   42.9163  132.2929 S   0  0  0  0  0  0  0  0  0  0  0  0
   12.7097   43.4279  133.4963 O   0  0  0  0  0  0  0  0  0  0  0  0
   12.0522   41.4400  132.1850 O   0  0  0  0  0  0  0  0  0  0  0  0
   12.6026   43.6239  130.8241 C   0  0  0  0  0  0  0  0  0  0  0  0
   11.7817   44.0785  129.8027 C   0  0  0  0  0  0  0  0  0  0  0  0
   12.2628   44.6380  128.6409 C   0  0  0  0  0  0  0  0  0  0  0  0
   13.6212   44.7623  128.4626 C   0  0  0  0  0  0  0  0  0  0  0  0
   14.4610   44.3125  129.4751 C   0  0  0  0  0  0  0  0  0  0  0  0
   13.9575   43.7579  130.6253 C   0  0  0  0  0  0  0  0  0  0  0  0
 17 18  1  0  0  0
 18  7  1  0  0  0
  7  8  1  0  0  0
  8  9  2  0  0  0
  8 10  1  0  0  0
 10 11  1  0  0  0
 11 12  1  0  0  0
 12 13  1  0  0  0
 13 14  1  0  0  0
 14 15  1  0  0  0
 13  1  1  0  0  0
  1  2  2  0  0  0
  2  3  1  0  0  0
  3  4  2  0  0  0
  4  5  1  0  0  0
  5  6  2  0  0  0
  4 19  1  0  0  0
 19 20  2  0  0  0
 20 21  1  0  0  0
 21 22  1  0  0  0
 21 23  2  0  0  0
 23 24  1  0  0  0
 24 25  2  0  0  0
 24 26  1  0  0  0
 26 27  2  0  0  0
 26 28  2  0  0  0
 26 29  1  0  0  0
 29 30  2  0  0  0
 30 31  1  0  0  0
 31 32  2  0  0  0
 32 33  1  0  0  0
 33 34  2  0  0  0
 15 10  1  0  0  0
  6  1  1  0  0  0
 25 19  1  0  0  0
 34 29  1  0  0  0
  7 16  1  0  0  0
M  END
> <minimizedAffinity>
7.05127

> <CNNscore>
0.4691232741

> <CNNaffinity>
7.5714325905

> <CNN_VS>
3.5519351959

> <CNNaffinity_variance>
1.8298442364

$$$$
[H]c1nc(N2C([H])([H])C([H])([H])N(C(=O)N([H])C([H])([H])C([H])([H])[H])C([H])([H])C2([H])[H])c([H])c([H])c1-c1c([H])c(F)c([H])c(S(=O)(=O)c2c([H])c([H])c([H])c([H])c2[H])c1[H]


 34 37  0  0  0  0  0  0  0  0999 V2000
    8.4107   48.0631  129.6176 C   0  0  0  0  0  0  0  0  0  0  0  0
    9.3897   48.8208  129.0058 C   0  0  0  0  0  0  0  0  0  0  0  0
    9.0980   50.1053  128.5522 C   0  0  0  0  0  0  0  0  0  0  0  0
    7.8367   50.6415  128.7036 C   0  0  0  0  0  0  0  0  0  0  0  0
    6.8987   49.8418  129.3210 C   0  0  0  0  0  0  0  0  0  0  0  0
    7.1880   48.6030  129.7560 N   0  0  0  0  0  0  0  0  0  0  0  0
    7.3360   42.5026  132.5074 N   0  0  0  0  0  0  0  0  0  0  0  0
    8.5515   43.1762  132.2719 C   0  0  0  0  0  0  0  0  0  0  0  0
    9.6027   42.7324  132.7938 O   0  0  0  0  0  0  0  0  0  0  0  0
    8.6348   44.3375  131.4676 N   0  0  0  0  0  0  0  0  0  0  0  0
    7.4290   44.8507  130.8604 C   0  0  0  0  0  0  0  0  0  0  0  0
    7.8628   45.6458  129.6239 C   0  0  0  0  0  0  0  0  0  0  0  0
    8.6606   46.7539  130.0911 N   0  0  0  0  0  0  0  0  0  0  0  0
    9.7186   46.4934  131.0493 C   0  0  0  0  0  0  0  0  0  0  0  0
    9.8828   45.0019  131.2547 C   0  0  0  0  0  0  0  0  0  0  0  0
    6.4453   42.8371  132.0967 H   0  0  0  0  0  0  0  0  0  0  0  0
    6.2050   41.3728  134.3540 C   0  0  0  0  0  0  0  0  0  0  0  0
    7.3205   41.3256  133.3353 C   0  0  0  0  0  0  0  0  0  0  0  0
    7.4623   51.9748  128.2510 C   0  0  0  0  0  0  0  0  0  0  0  0
    6.7015   52.8433  128.9991 C   0  0  0  0  0  0  0  0  0  0  0  0
    6.3431   54.1041  128.5738 C   0  0  0  0  0  0  0  0  0  0  0  0
    5.5837   54.9469  129.3427 F   0  0  0  0  0  0  0  0  0  0  0  0
    6.7604   54.5503  127.3207 C   0  0  0  0  0  0  0  0  0  0  0  0
    7.5228   53.6895  126.5623 C   0  0  0  0  0  0  0  0  0  0  0  0
    7.8716   52.4282  127.0075 C   0  0  0  0  0  0  0  0  0  0  0  0
    8.0418   54.2682  124.9741 S   0  0  0  0  0  0  0  0  0  0  0  0
    6.8146   54.6885  124.1998 O   0  0  0  0  0  0  0  0  0  0  0  0
    9.0140   55.3833  125.0850 O   0  0  0  0  0  0  0  0  0  0  0  0
    8.8319   52.9222  124.1717 C   0  0  0  0  0  0  0  0  0  0  0  0
   10.1948   52.6933  124.2913 C   0  0  0  0  0  0  0  0  0  0  0  0
   10.8406   51.6462  123.6744 C   0  0  0  0  0  0  0  0  0  0  0  0
   10.1189   50.7712  122.8961 C   0  0  0  0  0  0  0  0  0  0  0  0
    8.7513   50.9835  122.7637 C   0  0  0  0  0  0  0  0  0  0  0  0
    8.1292   52.0352  123.3889 C   0  0  0  0  0  0  0  0  0  0  0  0
 17 18  1  0  0  0
 18  7  1  0  0  0
  7  8  1  0  0  0
  8  9  2  0  0  0
  8 10  1  0  0  0
 10 11  1  0  0  0
 11 12  1  0  0  0
 12 13  1  0  0  0
 13 14  1  0  0  0
 14 15  1  0  0  0
 13  1  1  0  0  0
  1  2  2  0  0  0
  2  3  1  0  0  0
  3  4  2  0  0  0
  4  5  1  0  0  0
  5  6  2  0  0  0
  4 19  1  0  0  0
 19 20  2  0  0  0
 20 21  1  0  0  0
 21 22  1  0  0  0
 21 23  2  0  0  0
 23 24  1  0  0  0
 24 25  2  0  0  0
 24 26  1  0  0  0
 26 27  2  0  0  0
 26 28  2  0  0  0
 26 29  1  0  0  0
 29 30  2  0  0  0
 30 31  1  0  0  0
 31 32  2  0  0  0
 32 33  1  0  0  0
 33 34  2  0  0  0
 15 10  1  0  0  0
  6  1  1  0  0  0
 25 19  1  0  0  0
 34 29  1  0  0  0
  7 16  1  0  0  0
M  END
> <minimizedAffinity>
41.10018

> <CNNscore>
0.4675942361

> <CNNaffinity>
6.5912375450

> <CNN_VS>
3.0820245743

> <CNNaffinity_variance>
1.6601428986

$$$$
[H]c1nc(N2C([H])([H])C([H])([H])N(C(=O)N([H])C([H])([H])C([H])([H])[H])C([H])([H])C2([H])[H])c([H])c([H])c1-c1c([H])c(F)c([H])c(S(=O)(=O)c2c([H])c([H])c([H])c([H])c2[H])c1[H]


 34 37  0  0  0  0  0  0  0  0999 V2000
    7.5870   49.1418  129.4182 C   0  0  0  0  0  0  0  0  0  0  0  0
    8.2609   49.0040  130.6155 C   0  0  0  0  0  0  0  0  0  0  0  0
    8.5923   47.7365  131.0892 C   0  0  0  0  0  0  0  0  0  0  0  0
    8.2568   46.6037  130.3782 C   0  0  0  0  0  0  0  0  0  0  0  0
    7.5853   46.7997  129.1904 C   0  0  0  0  0  0  0  0  0  0  0  0
    7.2690   48.0262  128.7399 N   0  0  0  0  0  0  0  0  0  0  0  0
    7.5159   54.1228  125.4672 N   0  0  0  0  0  0  0  0  0  0  0  0
    7.2310   54.0617  126.8462 C   0  0  0  0  0  0  0  0  0  0  0  0
    7.0539   55.1314  127.4776 O   0  0  0  0  0  0  0  0  0  0  0  0
    7.1365   52.8380  127.5505 N   0  0  0  0  0  0  0  0  0  0  0  0
    7.3349   51.6030  126.8284 C   0  0  0  0  0  0  0  0  0  0  0  0
    6.5921   50.5128  127.6086 C   0  0  0  0  0  0  0  0  0  0  0  0
    7.2278   50.4080  128.8999 N   0  0  0  0  0  0  0  0  0  0  0  0
    7.4852   51.6240  129.6486 C   0  0  0  0  0  0  0  0  0  0  0  0
    6.8535   52.8110  128.9518 C   0  0  0  0  0  0  0  0  0  0  0  0
    7.6705   53.2631  124.9096 H   0  0  0  0  0  0  0  0  0  0  0  0
    8.6593   55.4106  123.7351 C   0  0  0  0  0  0  0  0  0  0  0  0
    7.5974   55.4008  124.8107 C   0  0  0  0  0  0  0  0  0  0  0  0
    8.5693   45.2494  130.8154 C   0  0  0  0  0  0  0  0  0  0  0  0
    7.8864   44.1365  130.3819 C   0  0  0  0  0  0  0  0  0  0  0  0
    8.1770   42.8543  130.7947 C   0  0  0  0  0  0  0  0  0  0  0  0
    7.4779   41.7650  130.3444 F   0  0  0  0  0  0  0  0  0  0  0  0
    9.2150   42.6436  131.7011 C   0  0  0  0  0  0  0  0  0  0  0  0
    9.9062   43.7504  132.1424 C   0  0  0  0  0  0  0  0  0  0  0  0
    9.5988   45.0288  131.7158 C   0  0  0  0  0  0  0  0  0  0  0  0
   11.2178   43.4678  133.2942 S   0  0  0  0  0  0  0  0  0  0  0  0
   10.6899   42.5919  134.4062 O   0  0  0  0  0  0  0  0  0  0  0  0
   12.4001   42.8527  132.6424 O   0  0  0  0  0  0  0  0  0  0  0  0
   11.6880   45.0347  133.9295 C   0  0  0  0  0  0  0  0  0  0  0  0
   10.7625   46.0420  134.1588 C   0  0  0  0  0  0  0  0  0  0  0  0
   11.1022   47.2793  134.6566 C   0  0  0  0  0  0  0  0  0  0  0  0
   12.4186   47.5524  134.9481 C   0  0  0  0  0  0  0  0  0  0  0  0
   13.3617   46.5556  134.7252 C   0  0  0  0  0  0  0  0  0  0  0  0
   12.9986   45.3288  134.2279 C   0  0  0  0  0  0  0  0  0  0  0  0
 17 18  1  0  0  0
 18  7  1  0  0  0
  7  8  1  0  0  0
  8  9  2  0  0  0
  8 10  1  0  0  0
 10 11  1  0  0  0
 11 12  1  0  0  0
 12 13  1  0  0  0
 13 14  1  0  0  0
 14 15  1  0  0  0
 13  1  1  0  0  0
  1  2  2  0  0  0
  2  3  1  0  0  0
  3  4  2  0  0  0
  4  5  1  0  0  0
  5  6  2  0  0  0
  4 19  1  0  0  0
 19 20  2  0  0  0
 20 21  1  0  0  0
 21 22  1  0  0  0
 21 23  2  0  0  0
 23 24  1  0  0  0
 24 25  2  0  0  0
 24 26  1  0  0  0
 26 27  2  0  0  0
 26 28  2  0  0  0
 26 29  1  0  0  0
 29 30  2  0  0  0
 30 31  1  0  0  0
 31 32  2  0  0  0
 32 33  1  0  0  0
 33 34  2  0  0  0
 15 10  1  0  0  0
  6  1  1  0  0  0
 25 19  1  0  0  0
 34 29  1  0  0  0
  7 16  1  0  0  0
M  END
> <minimizedAffinity>
10.75533

> <CNNscore>
0.4565307200

> <CNNaffinity>
7.5225524902

> <CNN_VS>
3.4342763424

> <CNNaffinity_variance>
1.2363516092

$$$$
[H]c1nc(N2C([H])([H])C([H])([H])N(C(=O)N([H])C([H])([H])C([H])([H])[H])C([H])([H])C2([H])[H])c([H])c([H])c1-c1c([H])c(F)c([H])c(S(=O)(=O)c2c([H])c([H])c([H])c([H])c2[H])c1[H]


 34 37  0  0  0  0  0  0  0  0999 V2000
    7.6878   51.4656  129.0694 C   0  0  0  0  0  0  0  0  0  0  0  0
    7.6701   50.1331  128.7079 C   0  0  0  0  0  0  0  0  0  0  0  0
    8.0158   49.1526  129.6352 C   0  0  0  0  0  0  0  0  0  0  0  0
    8.3796   49.4901  130.9217 C   0  0  0  0  0  0  0  0  0  0  0  0
    8.3798   50.8342  131.2281 C   0  0  0  0  0  0  0  0  0  0  0  0
    8.0448   51.7745  130.3275 N   0  0  0  0  0  0  0  0  0  0  0  0
    4.6439   54.4185  124.3323 N   0  0  0  0  0  0  0  0  0  0  0  0
    5.9473   54.6190  124.8298 C   0  0  0  0  0  0  0  0  0  0  0  0
    6.7210   55.3898  124.2123 O   0  0  0  0  0  0  0  0  0  0  0  0
    6.4206   53.9835  126.0022 N   0  0  0  0  0  0  0  0  0  0  0  0
    5.5332   53.0985  126.7200 C   0  0  0  0  0  0  0  0  0  0  0  0
    6.0225   53.0674  128.1722 C   0  0  0  0  0  0  0  0  0  0  0  0
    7.3471   52.4948  128.1608 N   0  0  0  0  0  0  0  0  0  0  0  0
    8.3140   52.9988  127.2035 C   0  0  0  0  0  0  0  0  0  0  0  0
    7.7517   54.2024  126.4762 C   0  0  0  0  0  0  0  0  0  0  0  0
    3.9744   53.7889  124.8111 H   0  0  0  0  0  0  0  0  0  0  0  0
    3.7302   54.1261  122.0860 C   0  0  0  0  0  0  0  0  0  0  0  0
    4.2247   55.0965  123.1340 C   0  0  0  0  0  0  0  0  0  0  0  0
    8.7550   48.5180  131.9400 C   0  0  0  0  0  0  0  0  0  0  0  0
    8.2172   48.5007  133.2062 C   0  0  0  0  0  0  0  0  0  0  0  0
    8.5712   47.5848  134.1730 C   0  0  0  0  0  0  0  0  0  0  0  0
    8.0170   47.5933  135.4264 F   0  0  0  0  0  0  0  0  0  0  0  0
    9.5245   46.6108  133.8796 C   0  0  0  0  0  0  0  0  0  0  0  0
   10.0703   46.6180  132.6149 C   0  0  0  0  0  0  0  0  0  0  0  0
    9.7013   47.5459  131.6591 C   0  0  0  0  0  0  0  0  0  0  0  0
   11.2804   45.3788  132.2586 S   0  0  0  0  0  0  0  0  0  0  0  0
   12.4039   46.0246  131.4821 O   0  0  0  0  0  0  0  0  0  0  0  0
   11.7854   44.7310  133.4940 O   0  0  0  0  0  0  0  0  0  0  0  0
   10.4895   44.1582  131.2766 C   0  0  0  0  0  0  0  0  0  0  0  0
    9.5198   43.3130  131.7956 C   0  0  0  0  0  0  0  0  0  0  0  0
    8.8829   42.3478  131.0494 C   0  0  0  0  0  0  0  0  0  0  0  0
    9.2082   42.1961  129.7214 C   0  0  0  0  0  0  0  0  0  0  0  0
   10.1779   43.0338  129.1823 C   0  0  0  0  0  0  0  0  0  0  0  0
   10.7995   43.9894  129.9467 C   0  0  0  0  0  0  0  0  0  0  0  0
 17 18  1  0  0  0
 18  7  1  0  0  0
  7  8  1  0  0  0
  8  9  2  0  0  0
  8 10  1  0  0  0
 10 11  1  0  0  0
 11 12  1  0  0  0
 12 13  1  0  0  0
 13 14  1  0  0  0
 14 15  1  0  0  0
 13  1  1  0  0  0
  1  2  2  0  0  0
  2  3  1  0  0  0
  3  4  2  0  0  0
  4  5  1  0  0  0
  5  6  2  0  0  0
  4 19  1  0  0  0
 19 20  2  0  0  0
 20 21  1  0  0  0
 21 22  1  0  0  0
 21 23  2  0  0  0
 23 24  1  0  0  0
 24 25  2  0  0  0
 24 26  1  0  0  0
 26 27  2  0  0  0
 26 28  2  0  0  0
 26 29  1  0  0  0
 29 30  2  0  0  0
 30 31  1  0  0  0
 31 32  2  0  0  0
 32 33  1  0  0  0
 33 34  2  0  0  0
 15 10  1  0  0  0
  6  1  1  0  0  0
 25 19  1  0  0  0
 34 29  1  0  0  0
  7 16  1  0  0  0
M  END
> <minimizedAffinity>
13.62502

> <CNNscore>
0.4380428195

> <CNNaffinity>
7.1210150719

> <CNN_VS>
3.1193094254

> <CNNaffinity_variance>
1.1725406647

$$$$
[H]c1nc(N2C([H])([H])C([H])([H])N(C(=O)N([H])C([H])([H])C([H])([H])[H])C([H])([H])C2([H])[H])c([H])c([H])c1-c1c([H])c(F)c([H])c(S(=O)(=O)c2c([H])c([H])c([H])c([H])c2[H])c1[H]


 34 37  0  0  0  0  0  0  0  0999 V2000
    7.6597   50.8237  129.3803 C   0  0  0  0  0  0  0  0  0  0  0  0
    7.0571   49.5971  129.1826 C   0  0  0  0  0  0  0  0  0  0  0  0
    7.3267   48.5385  130.0471 C   0  0  0  0  0  0  0  0  0  0  0  0
    8.1933   48.6927  131.1085 C   0  0  0  0  0  0  0  0  0  0  0  0
    8.7661   49.9375  131.2586 C   0  0  0  0  0  0  0  0  0  0  0  0
    8.5009   50.9543  130.4200 N   0  0  0  0  0  0  0  0  0  0  0  0
    4.5401   54.6179  125.3432 N   0  0  0  0  0  0  0  0  0  0  0  0
    5.9263   54.4279  125.5135 C   0  0  0  0  0  0  0  0  0  0  0  0
    6.7168   54.9582  124.6960 O   0  0  0  0  0  0  0  0  0  0  0  0
    6.4649   53.6601  126.5731 N   0  0  0  0  0  0  0  0  0  0  0  0
    5.5604   53.0509  127.5200 C   0  0  0  0  0  0  0  0  0  0  0  0
    6.3505   52.8520  128.8182 C   0  0  0  0  0  0  0  0  0  0  0  0
    7.4180   51.9255  128.5269 N   0  0  0  0  0  0  0  0  0  0  0  0
    8.2322   52.1520  127.3475 C   0  0  0  0  0  0  0  0  0  0  0  0
    7.8765   53.4804  126.7132 C   0  0  0  0  0  0  0  0  0  0  0  0
    3.8536   54.1959  125.9948 H   0  0  0  0  0  0  0  0  0  0  0  0
    3.8308   54.5736  123.0063 C   0  0  0  0  0  0  0  0  0  0  0  0
    4.0577   55.4113  124.2439 C   0  0  0  0  0  0  0  0  0  0  0  0
    8.5222   47.6291  132.0483 C   0  0  0  0  0  0  0  0  0  0  0  0
    8.6192   47.8215  133.4072 C   0  0  0  0  0  0  0  0  0  0  0  0
    8.9324   46.8190  134.2992 C   0  0  0  0  0  0  0  0  0  0  0  0
    9.0216   47.0423  135.6484 F   0  0  0  0  0  0  0  0  0  0  0  0
    9.1692   45.5290  133.8267 C   0  0  0  0  0  0  0  0  0  0  0  0
    9.0750   45.3239  132.4678 C   0  0  0  0  0  0  0  0  0  0  0  0
    8.7594   46.3435  131.5895 C   0  0  0  0  0  0  0  0  0  0  0  0
    9.3812   43.6834  131.8832 S   0  0  0  0  0  0  0  0  0  0  0  0
   10.4603   43.0687  132.7434 O   0  0  0  0  0  0  0  0  0  0  0  0
    8.1499   42.8559  131.8947 O   0  0  0  0  0  0  0  0  0  0  0  0
    9.9373   43.8262  130.2248 C   0  0  0  0  0  0  0  0  0  0  0  0
   11.1847   44.3450  129.9106 C   0  0  0  0  0  0  0  0  0  0  0  0
   11.6470   44.4681  128.6201 C   0  0  0  0  0  0  0  0  0  0  0  0
   10.8495   44.0630  127.5750 C   0  0  0  0  0  0  0  0  0  0  0  0
    9.5954   43.5401  127.8692 C   0  0  0  0  0  0  0  0  0  0  0  0
    9.1561   43.4272  129.1647 C   0  0  0  0  0  0  0  0  0  0  0  0
 17 18  1  0  0  0
 18  7  1  0  0  0
  7  8  1  0  0  0
  8  9  2  0  0  0
  8 10  1  0  0  0
 10 11  1  0  0  0
 11 12  1  0  0  0
 12 13  1  0  0  0
 13 14  1  0  0  0
 14 15  1  0  0  0
 13  1  1  0  0  0
  1  2  2  0  0  0
  2  3  1  0  0  0
  3  4  2  0  0  0
  4  5  1  0  0  0
  5  6  2  0  0  0
  4 19  1  0  0  0
 19 20  2  0  0  0
 20 21  1  0  0  0
 21 22  1  0  0  0
 21 23  2  0  0  0
 23 24  1  0  0  0
 24 25  2  0  0  0
 24 26  1  0  0  0
 26 27  2  0  0  0
 26 28  2  0  0  0
 26 29  1  0  0  0
 29 30  2  0  0  0
 30 31  1  0  0  0
 31 32  2  0  0  0
 32 33  1  0  0  0
 33 34  2  0  0  0
 15 10  1  0  0  0
  6  1  1  0  0  0
 25 19  1  0  0  0
 34 29  1  0  0  0
  7 16  1  0  0  0
M  END
> <minimizedAffinity>
9.67833

> <CNNscore>
0.4323393703

> <CNNaffinity>
7.2767233849

> <CNN_VS>
3.1460139751

> <CNNaffinity_variance>
0.5005396008

$$$$
[H]c1nc(N2C([H])([H])C([H])([H])N(C(=O)N([H])C([H])([H])C([H])([H])[H])C([H])([H])C2([H])[H])c([H])c([H])c1-c1c([H])c(F)c([H])c(S(=O)(=O)c2c([H])c([H])c([H])c([H])c2[H])c1[H]


 34 37  0  0  0  0  0  0  0  0999 V2000
    7.7521   50.4918  129.5319 C   0  0  0  0  0  0  0  0  0  0  0  0
    7.7127   49.1235  129.3505 C   0  0  0  0  0  0  0  0  0  0  0  0
    8.2809   48.2761  130.2991 C   0  0  0  0  0  0  0  0  0  0  0  0
    8.8891   48.7821  131.4284 C   0  0  0  0  0  0  0  0  0  0  0  0
    8.8995   50.1545  131.5585 C   0  0  0  0  0  0  0  0  0  0  0  0
    8.3489   50.9657  130.6386 N   0  0  0  0  0  0  0  0  0  0  0  0
    7.3700   54.2279  124.4014 N   0  0  0  0  0  0  0  0  0  0  0  0
    6.6753   54.3034  125.6255 C   0  0  0  0  0  0  0  0  0  0  0  0
    5.9529   55.3037  125.8530 O   0  0  0  0  0  0  0  0  0  0  0  0
    6.7600   53.2928  126.6124 N   0  0  0  0  0  0  0  0  0  0  0  0
    7.5864   52.1367  126.3546 C   0  0  0  0  0  0  0  0  0  0  0  0
    7.0298   50.9971  127.2152 C   0  0  0  0  0  0  0  0  0  0  0  0
    7.1908   51.3901  128.5945 N   0  0  0  0  0  0  0  0  0  0  0  0
    6.7637   52.7183  128.9930 C   0  0  0  0  0  0  0  0  0  0  0  0
    6.0482   53.4036  127.8475 C   0  0  0  0  0  0  0  0  0  0  0  0
    7.9782   53.4200  124.1751 H   0  0  0  0  0  0  0  0  0  0  0  0
    6.1285   55.0181  122.4520 C   0  0  0  0  0  0  0  0  0  0  0  0
    7.2398   55.2904  123.4397 C   0  0  0  0  0  0  0  0  0  0  0  0
    9.5048   47.9552  132.4579 C   0  0  0  0  0  0  0  0  0  0  0  0
   10.3373   48.4537  133.4332 C   0  0  0  0  0  0  0  0  0  0  0  0
   10.9237   47.6748  134.4070 C   0  0  0  0  0  0  0  0  0  0  0  0
   11.7491   48.2014  135.3659 F   0  0  0  0  0  0  0  0  0  0  0  0
   10.6774   46.3028  134.4293 C   0  0  0  0  0  0  0  0  0  0  0  0
    9.8453   45.7919  133.4577 C   0  0  0  0  0  0  0  0  0  0  0  0
    9.2668   46.5907  132.4892 C   0  0  0  0  0  0  0  0  0  0  0  0
    9.5450   44.0497  133.4968 S   0  0  0  0  0  0  0  0  0  0  0  0
   10.5788   43.4119  134.3951 O   0  0  0  0  0  0  0  0  0  0  0  0
    8.1694   43.7382  133.9568 O   0  0  0  0  0  0  0  0  0  0  0  0
    9.7261   43.4618  131.8532 C   0  0  0  0  0  0  0  0  0  0  0  0
    9.4125   44.2470  130.7536 C   0  0  0  0  0  0  0  0  0  0  0  0
    9.5451   43.8127  129.4544 C   0  0  0  0  0  0  0  0  0  0  0  0
   10.0095   42.5409  129.2109 C   0  0  0  0  0  0  0  0  0  0  0  0
   10.3294   41.7381  130.3000 C   0  0  0  0  0  0  0  0  0  0  0  0
   10.1888   42.1936  131.5871 C   0  0  0  0  0  0  0  0  0  0  0  0
 17 18  1  0  0  0
 18  7  1  0  0  0
  7  8  1  0  0  0
  8  9  2  0  0  0
  8 10  1  0  0  0
 10 11  1  0  0  0
 11 12  1  0  0  0
 12 13  1  0  0  0
 13 14  1  0  0  0
 14 15  1  0  0  0
 13  1  1  0  0  0
  1  2  2  0  0  0
  2  3  1  0  0  0
  3  4  2  0  0  0
  4  5  1  0  0  0
  5  6  2  0  0  0
  4 19  1  0  0  0
 19 20  2  0  0  0
 20 21  1  0  0  0
 21 22  1  0  0  0
 21 23  2  0  0  0
 23 24  1  0  0  0
 24 25  2  0  0  0
 24 26  1  0  0  0
 26 27  2  0  0  0
 26 28  2  0  0  0
 26 29  1  0  0  0
 29 30  2  0  0  0
 30 31  1  0  0  0
 31 32  2  0  0  0
 32 33  1  0  0  0
 33 34  2  0  0  0
 15 10  1  0  0  0
  6  1  1  0  0  0
 25 19  1  0  0  0
 34 29  1  0  0  0
  7 16  1  0  0  0
M  END
> <minimizedAffinity>
12.63565

> <CNNscore>
0.4245503843

> <CNNaffinity>
7.1921968460

> <CNN_VS>
3.0534498692

> <CNNaffinity_variance>
0.9042347670

$$$$
[H]c1nc2nc(-c3nc(-c4c([H])c([H])c([H])c(N(C(=O)c5c([H])c([H])c([H])c6nc([H])c([H])c([H])c56)C([H])([H])[H])c4[H])sc3[H])c([H])c([H])c2nc1[H]


 35 40  0  0  0  0  0  0  0  0999 V2000
    8.1861   49.9482  130.4694 C   0  0  0  0  0  0  0  0  0  0  0  0
    8.4832   51.1996  130.9421 C   0  0  0  0  0  0  0  0  0  0  0  0
    9.1050   51.3620  132.1520 C   0  0  0  0  0  0  0  0  0  0  0  0
    9.4378   50.2239  132.9055 C   0  0  0  0  0  0  0  0  0  0  0  0
    9.1601   48.9778  132.4648 C   0  0  0  0  0  0  0  0  0  0  0  0
    8.5370   48.8340  131.2543 C   0  0  0  0  0  0  0  0  0  0  0  0
    9.5017   47.7759  133.2269 C   0  0  0  0  0  0  0  0  0  0  0  0
    9.9181   46.5973  132.8544 N   0  0  0  0  0  0  0  0  0  0  0  0
   10.1681   45.6666  133.7103 C   0  0  0  0  0  0  0  0  0  0  0  0
    9.9762   45.9716  135.0459 C   0  0  0  0  0  0  0  0  0  0  0  0
    9.4467   47.5920  134.9506 S   0  0  0  0  0  0  0  0  0  0  0  0
   10.6752   44.3264  133.3264 C   0  0  0  0  0  0  0  0  0  0  0  0
   11.7945   43.7804  133.9005 C   0  0  0  0  0  0  0  0  0  0  0  0
   12.2127   42.5235  133.4939 C   0  0  0  0  0  0  0  0  0  0  0  0
   11.5230   41.8199  132.5268 C   0  0  0  0  0  0  0  0  0  0  0  0
   11.9146   40.5991  132.1190 N   0  0  0  0  0  0  0  0  0  0  0  0
   11.2340   39.9276  131.1767 C   0  0  0  0  0  0  0  0  0  0  0  0
   10.1105   40.5009  130.6158 C   0  0  0  0  0  0  0  0  0  0  0  0
    9.7220   41.7207  131.0257 N   0  0  0  0  0  0  0  0  0  0  0  0
   10.3909   42.4065  131.9668 C   0  0  0  0  0  0  0  0  0  0  0  0
   10.0173   43.6354  132.3928 N   0  0  0  0  0  0  0  0  0  0  0  0
    7.2325   50.9874  128.4801 C   0  0  0  0  0  0  0  0  0  0  0  0
    7.5354   49.7453  129.2153 N   0  0  0  0  0  0  0  0  0  0  0  0
    7.2089   48.4889  128.6850 C   0  0  0  0  0  0  0  0  0  0  0  0
    6.6629   48.5130  127.5424 O   0  0  0  0  0  0  0  0  0  0  0  0
    7.4787   47.2598  129.3945 C   0  0  0  0  0  0  0  0  0  0  0  0
    6.5885   46.7159  130.3184 C   0  0  0  0  0  0  0  0  0  0  0  0
    6.8851   45.5315  130.9455 C   0  0  0  0  0  0  0  0  0  0  0  0
    8.0566   44.8516  130.6857 C   0  0  0  0  0  0  0  0  0  0  0  0
    8.9576   45.3509  129.7860 C   0  0  0  0  0  0  0  0  0  0  0  0
   10.1201   44.7167  129.4974 N   0  0  0  0  0  0  0  0  0  0  0  0
   10.9662   45.2493  128.6045 C   0  0  0  0  0  0  0  0  0  0  0  0
   10.7309   46.4283  127.9407 C   0  0  0  0  0  0  0  0  0  0  0  0
    9.5440   47.0857  128.2285 C   0  0  0  0  0  0  0  0  0  0  0  0
    8.6585   46.5437  129.1536 C   0  0  0  0  0  0  0  0  0  0  0  0
 22 23  1  0  0  0
 23  1  1  0  0  0
  1  2  2  0  0  0
  2  3  1  0  0  0
  3  4  2  0  0  0
  4  5  1  0  0  0
  5  6  2  0  0  0
  5  7  1  0  0  0
  7  8  2  0  0  0
  8  9  1  0  0  0
  9 10  2  0  0  0
 10 11  1  0  0  0
  9 12  1  0  0  0
 12 13  2  0  0  0
 13 14  1  0  0  0
 14 15  2  0  0  0
 15 16  1  0  0  0
 16 17  2  0  0  0
 17 18  1  0  0  0
 18 19  2  0  0  0
 19 20  1  0  0  0
 20 21  2  0  0  0
 23 24  1  0  0  0
 24 25  2  0  0  0
 24 26  1  0  0  0
 26 27  2  0  0  0
 27 28  1  0  0  0
 28 29  2  0  0  0
 29 30  1  0  0  0
 30 31  2  0  0  0
 31 32  1  0  0  0
 32 33  2  0  0  0
 33 34  1  0  0  0
 34 35  2  0  0  0
  6  1  1  0  0  0
 11  7  1  0  0  0
 21 12  1  0  0  0
 35 26  1  0  0  0
 20 15  1  0  0  0
 35 30  1  0  0  0
M  END
> <minimizedAffinity>
9.46584

> <CNNscore>
0.4430622160

> <CNNaffinity>
8.0368900299

> <CNN_VS>
3.5608422756

> <CNNaffinity_variance>
0.4956198335

$$$$
[H]c1nc2nc(-c3nc(-c4c([H])c([H])c([H])c(N(C(=O)c5c([H])c([H])c([H])c6nc([H])c([H])c([H])c56)C([H])([H])[H])c4[H])sc3[H])c([H])c([H])c2nc1[H]


 35 40  0  0  0  0  0  0  0  0999 V2000
    7.1635   49.7860  130.2092 C   0  0  0  0  0  0  0  0  0  0  0  0
    7.3759   51.1395  130.1791 C   0  0  0  0  0  0  0  0  0  0  0  0
    8.3531   51.7125  130.9494 C   0  0  0  0  0  0  0  0  0  0  0  0
    9.1404   50.8913  131.7738 C   0  0  0  0  0  0  0  0  0  0  0  0
    8.9564   49.5541  131.8230 C   0  0  0  0  0  0  0  0  0  0  0  0
    7.9742   48.9984  131.0477 C   0  0  0  0  0  0  0  0  0  0  0  0
    9.7665   48.6758  132.6679 C   0  0  0  0  0  0  0  0  0  0  0  0
   10.1227   47.4277  132.5379 N   0  0  0  0  0  0  0  0  0  0  0  0
   10.8583   46.8391  133.4175 C   0  0  0  0  0  0  0  0  0  0  0  0
   11.2564   47.5896  134.5092 C   0  0  0  0  0  0  0  0  0  0  0  0
   10.5278   49.0958  134.1685 S   0  0  0  0  0  0  0  0  0  0  0  0
   11.3110   45.4326  133.2862 C   0  0  0  0  0  0  0  0  0  0  0  0
   12.3986   44.9518  133.9693 C   0  0  0  0  0  0  0  0  0  0  0  0
   12.7663   43.6267  133.7993 C   0  0  0  0  0  0  0  0  0  0  0  0
   12.0581   42.7914  132.9584 C   0  0  0  0  0  0  0  0  0  0  0  0
   12.4008   41.5027  132.7803 N   0  0  0  0  0  0  0  0  0  0  0  0
   11.7028   40.7032  131.9584 C   0  0  0  0  0  0  0  0  0  0  0  0
   10.6122   41.2134  131.2835 C   0  0  0  0  0  0  0  0  0  0  0  0
   10.2724   42.5014  131.4639 N   0  0  0  0  0  0  0  0  0  0  0  0
   10.9593   43.3152  132.2818 C   0  0  0  0  0  0  0  0  0  0  0  0
   10.6348   44.6144  132.4767 N   0  0  0  0  0  0  0  0  0  0  0  0
    4.8663   49.8821  129.3968 C   0  0  0  0  0  0  0  0  0  0  0  0
    6.1513   49.1589  129.4222 N   0  0  0  0  0  0  0  0  0  0  0  0
    6.3280   47.9658  128.7069 C   0  0  0  0  0  0  0  0  0  0  0  0
    5.3207   47.5841  128.0406 O   0  0  0  0  0  0  0  0  0  0  0  0
    7.5710   47.2300  128.7315 C   0  0  0  0  0  0  0  0  0  0  0  0
    8.6054   47.4744  127.8304 C   0  0  0  0  0  0  0  0  0  0  0  0
    9.7755   46.7618  127.9153 C   0  0  0  0  0  0  0  0  0  0  0  0
    9.9623   45.7947  128.8808 C   0  0  0  0  0  0  0  0  0  0  0  0
    8.9722   45.5235  129.7845 C   0  0  0  0  0  0  0  0  0  0  0  0
    9.1117   44.5841  130.7514 N   0  0  0  0  0  0  0  0  0  0  0  0
    8.1100   44.3610  131.6137 C   0  0  0  0  0  0  0  0  0  0  0  0
    6.9155   45.0382  131.5860 C   0  0  0  0  0  0  0  0  0  0  0  0
    6.7620   46.0020  130.6004 C   0  0  0  0  0  0  0  0  0  0  0  0
    7.7937   46.2420  129.6994 C   0  0  0  0  0  0  0  0  0  0  0  0
 22 23  1  0  0  0
 23  1  1  0  0  0
  1  2  2  0  0  0
  2  3  1  0  0  0
  3  4  2  0  0  0
  4  5  1  0  0  0
  5  6  2  0  0  0
  5  7  1  0  0  0
  7  8  2  0  0  0
  8  9  1  0  0  0
  9 10  2  0  0  0
 10 11  1  0  0  0
  9 12  1  0  0  0
 12 13  2  0  0  0
 13 14  1  0  0  0
 14 15  2  0  0  0
 15 16  1  0  0  0
 16 17  2  0  0  0
 17 18  1  0  0  0
 18 19  2  0  0  0
 19 20  1  0  0  0
 20 21  2  0  0  0
 23 24  1  0  0  0
 24 25  2  0  0  0
 24 26  1  0  0  0
 26 27  2  0  0  0
 27 28  1  0  0  0
 28 29  2  0  0  0
 29 30  1  0  0  0
 30 31  2  0  0  0
 31 32  1  0  0  0
 32 33  2  0  0  0
 33 34  1  0  0  0
 34 35  2  0  0  0
  6  1  1  0  0  0
 11  7  1  0  0  0
 21 12  1  0  0  0
 35 26  1  0  0  0
 20 15  1  0  0  0
 35 30  1  0  0  0
M  END
> <minimizedAffinity>
9.61710

> <CNNscore>
0.4368775785

> <CNNaffinity>
7.9571199417

> <CNN_VS>
3.4762873650

> <CNNaffinity_variance>
0.6937208772

$$$$
[H]c1nc2nc(-c3nc(-c4c([H])c([H])c([H])c(N(C(=O)c5c([H])c([H])c([H])c6nc([H])c([H])c([H])c56)C([H])([H])[H])c4[H])sc3[H])c([H])c([H])c2nc1[H]


 35 40  0  0  0  0  0  0  0  0999 V2000
    6.3001   49.6266  129.5539 C   0  0  0  0  0  0  0  0  0  0  0  0
    6.2121   50.9310  129.1434 C   0  0  0  0  0  0  0  0  0  0  0  0
    7.0647   51.8809  129.6411 C   0  0  0  0  0  0  0  0  0  0  0  0
    8.0367   51.4993  130.5810 C   0  0  0  0  0  0  0  0  0  0  0  0
    8.1493   50.2212  131.0028 C   0  0  0  0  0  0  0  0  0  0  0  0
    7.2881   49.2851  130.4963 C   0  0  0  0  0  0  0  0  0  0  0  0
    9.1567   49.7962  131.9756 C   0  0  0  0  0  0  0  0  0  0  0  0
    9.6420   48.6220  132.2708 N   0  0  0  0  0  0  0  0  0  0  0  0
   10.5452   48.4720  133.1779 C   0  0  0  0  0  0  0  0  0  0  0  0
   10.9806   49.6130  133.8275 C   0  0  0  0  0  0  0  0  0  0  0  0
   10.0398   50.8167  133.0650 S   0  0  0  0  0  0  0  0  0  0  0  0
   11.1445   47.1579  133.5163 C   0  0  0  0  0  0  0  0  0  0  0  0
   12.2014   46.6380  132.8140 C   0  0  0  0  0  0  0  0  0  0  0  0
   12.7119   45.4042  133.1843 C   0  0  0  0  0  0  0  0  0  0  0  0
   12.1750   44.6977  134.2420 C   0  0  0  0  0  0  0  0  0  0  0  0
   12.6569   43.4983  134.6152 N   0  0  0  0  0  0  0  0  0  0  0  0
   12.1234   42.8229  135.6454 C   0  0  0  0  0  0  0  0  0  0  0  0
   11.0603   43.3700  136.3351 C   0  0  0  0  0  0  0  0  0  0  0  0
   10.5814   44.5685  135.9596 N   0  0  0  0  0  0  0  0  0  0  0  0
   11.1026   45.2577  134.9317 C   0  0  0  0  0  0  0  0  0  0  0  0
   10.6350   46.4648  134.5371 N   0  0  0  0  0  0  0  0  0  0  0  0
    4.0169   49.0357  128.9341 C   0  0  0  0  0  0  0  0  0  0  0  0
    5.4247   48.6141  129.0580 N   0  0  0  0  0  0  0  0  0  0  0  0
    5.8313   47.3225  128.6939 C   0  0  0  0  0  0  0  0  0  0  0  0
    4.9121   46.5762  128.2442 O   0  0  0  0  0  0  0  0  0  0  0  0
    7.2006   46.8808  128.8238 C   0  0  0  0  0  0  0  0  0  0  0  0
    8.1536   47.0886  127.8286 C   0  0  0  0  0  0  0  0  0  0  0  0
    9.4472   46.6697  128.0156 C   0  0  0  0  0  0  0  0  0  0  0  0
    9.8400   46.0385  129.1774 C   0  0  0  0  0  0  0  0  0  0  0  0
    8.9360   45.8149  130.1791 C   0  0  0  0  0  0  0  0  0  0  0  0
    9.2767   45.2009  131.3383 N   0  0  0  0  0  0  0  0  0  0  0  0
    8.3509   45.0100  132.2887 C   0  0  0  0  0  0  0  0  0  0  0  0
    7.0413   45.4051  132.1673 C   0  0  0  0  0  0  0  0  0  0  0  0
    6.6817   46.0346  130.9848 C   0  0  0  0  0  0  0  0  0  0  0  0
    7.6329   46.2376  129.9909 C   0  0  0  0  0  0  0  0  0  0  0  0
 22 23  1  0  0  0
 23  1  1  0  0  0
  1  2  2  0  0  0
  2  3  1  0  0  0
  3  4  2  0  0  0
  4  5  1  0  0  0
  5  6  2  0  0  0
  5  7  1  0  0  0
  7  8  2  0  0  0
  8  9  1  0  0  0
  9 10  2  0  0  0
 10 11  1  0  0  0
  9 12  1  0  0  0
 12 13  2  0  0  0
 13 14  1  0  0  0
 14 15  2  0  0  0
 15 16  1  0  0  0
 16 17  2  0  0  0
 17 18  1  0  0  0
 18 19  2  0  0  0
 19 20  1  0  0  0
 20 21  2  0  0  0
 23 24  1  0  0  0
 24 25  2  0  0  0
 24 26  1  0  0  0
 26 27  2  0  0  0
 27 28  1  0  0  0
 28 29  2  0  0  0
 29 30  1  0  0  0
 30 31  2  0  0  0
 31 32  1  0  0  0
 32 33  2  0  0  0
 33 34  1  0  0  0
 34 35  2  0  0  0
  6  1  1  0  0  0
 11  7  1  0  0  0
 21 12  1  0  0  0
 35 26  1  0  0  0
 20 15  1  0  0  0
 35 30  1  0  0  0
M  END
> <minimizedAffinity>
16.60878

> <CNNscore>
0.4187211394

> <CNNaffinity>
7.6799478531

> <CNN_VS>
3.2157564163

> <CNNaffinity_variance>
0.8857887983

$$$$
[H]c1nc2nc(-c3nc(-c4c([H])c([H])c([H])c(N(C(=O)c5c([H])c([H])c([H])c6nc([H])c([H])c([H])c56)C([H])([H])[H])c4[H])sc3[H])c([H])c([H])c2nc1[H]


 35 40  0  0  0  0  0  0  0  0999 V2000
    5.6375   48.6112  129.8240 C   0  0  0  0  0  0  0  0  0  0  0  0
    4.5071   47.9550  129.4123 C   0  0  0  0  0  0  0  0  0  0  0  0
    4.3347   46.6223  129.6786 C   0  0  0  0  0  0  0  0  0  0  0  0
    5.3351   45.9331  130.3842 C   0  0  0  0  0  0  0  0  0  0  0  0
    6.4587   46.5532  130.8050 C   0  0  0  0  0  0  0  0  0  0  0  0
    6.6154   47.8850  130.5289 C   0  0  0  0  0  0  0  0  0  0  0  0
    7.5128   45.8603  131.5471 C   0  0  0  0  0  0  0  0  0  0  0  0
    8.7034   45.4578  131.1982 N   0  0  0  0  0  0  0  0  0  0  0  0
    9.4855   44.8589  132.0294 C   0  0  0  0  0  0  0  0  0  0  0  0
    9.0076   44.6606  133.3123 C   0  0  0  0  0  0  0  0  0  0  0  0
    7.4549   45.3633  133.2077 S   0  0  0  0  0  0  0  0  0  0  0  0
   10.8578   44.4181  131.6784 C   0  0  0  0  0  0  0  0  0  0  0  0
   11.6268   43.6785  132.5398 C   0  0  0  0  0  0  0  0  0  0  0  0
   12.9008   43.3008  132.1472 C   0  0  0  0  0  0  0  0  0  0  0  0
   13.4017   43.6563  130.9107 C   0  0  0  0  0  0  0  0  0  0  0  0
   14.6362   43.2994  130.5128 N   0  0  0  0  0  0  0  0  0  0  0  0
   15.1096   43.6536  129.3076 C   0  0  0  0  0  0  0  0  0  0  0  0
   14.3138   44.3980  128.4603 C   0  0  0  0  0  0  0  0  0  0  0  0
   13.0807   44.7527  128.8609 N   0  0  0  0  0  0  0  0  0  0  0  0
   12.5914   44.4074  130.0628 C   0  0  0  0  0  0  0  0  0  0  0  0
   11.3538   44.7548  130.4857 N   0  0  0  0  0  0  0  0  0  0  0  0
    4.6976   50.6808  128.9409 C   0  0  0  0  0  0  0  0  0  0  0  0
    5.8492   49.9977  129.5591 N   0  0  0  0  0  0  0  0  0  0  0  0
    7.0301   50.6915  129.8597 C   0  0  0  0  0  0  0  0  0  0  0  0
    7.0146   51.9264  129.5785 O   0  0  0  0  0  0  0  0  0  0  0  0
    8.1776   50.0401  130.4480 C   0  0  0  0  0  0  0  0  0  0  0  0
    8.7018   50.4153  131.6834 C   0  0  0  0  0  0  0  0  0  0  0  0
    9.7791   49.7447  132.2066 C   0  0  0  0  0  0  0  0  0  0  0  0
   10.3693   48.6937  131.5362 C   0  0  0  0  0  0  0  0  0  0  0  0
    9.8859   48.2937  130.3209 C   0  0  0  0  0  0  0  0  0  0  0  0
   10.4319   47.2653  129.6273 N   0  0  0  0  0  0  0  0  0  0  0  0
    9.9160   46.9127  128.4414 C   0  0  0  0  0  0  0  0  0  0  0  0
    8.8399   47.5390  127.8618 C   0  0  0  0  0  0  0  0  0  0  0  0
    8.2732   48.5930  128.5633 C   0  0  0  0  0  0  0  0  0  0  0  0
    8.8000   48.9687  129.7942 C   0  0  0  0  0  0  0  0  0  0  0  0
 22 23  1  0  0  0
 23  1  1  0  0  0
  1  2  2  0  0  0
  2  3  1  0  0  0
  3  4  2  0  0  0
  4  5  1  0  0  0
  5  6  2  0  0  0
  5  7  1  0  0  0
  7  8  2  0  0  0
  8  9  1  0  0  0
  9 10  2  0  0  0
 10 11  1  0  0  0
  9 12  1  0  0  0
 12 13  2  0  0  0
 13 14  1  0  0  0
 14 15  2  0  0  0
 15 16  1  0  0  0
 16 17  2  0  0  0
 17 18  1  0  0  0
 18 19  2  0  0  0
 19 20  1  0  0  0
 20 21  2  0  0  0
 23 24  1  0  0  0
 24 25  2  0  0  0
 24 26  1  0  0  0
 26 27  2  0  0  0
 27 28  1  0  0  0
 28 29  2  0  0  0
 29 30  1  0  0  0
 30 31  2  0  0  0
 31 32  1  0  0  0
 32 33  2  0  0  0
 33 34  1  0  0  0
 34 35  2  0  0  0
  6  1  1  0  0  0
 11  7  1  0  0  0
 21 12  1  0  0  0
 35 26  1  0  0  0
 20 15  1  0  0  0
 35 30  1  0  0  0
M  END
> <minimizedAffinity>
13.85411

> <CNNscore>
0.4175831378

> <CNNaffinity>
7.6376395226

> <CNN_VS>
3.1893494129

> <CNNaffinity_variance>
0.3638269305

$$$$
[H]c1nc2nc(-c3nc(-c4c([H])c([H])c([H])c(N(C(=O)c5c([H])c([H])c([H])c6nc([H])c([H])c([H])c56)C([H])([H])[H])c4[H])sc3[H])c([H])c([H])c2nc1[H]


 35 40  0  0  0  0  0  0  0  0999 V2000
   10.3738   43.0596  134.1571 C   0  0  0  0  0  0  0  0  0  0  0  0
    9.6409   42.0145  134.6554 C   0  0  0  0  0  0  0  0  0  0  0  0
    8.4910   41.6056  134.0331 C   0  0  0  0  0  0  0  0  0  0  0  0
    8.0709   42.2731  132.8704 C   0  0  0  0  0  0  0  0  0  0  0  0
    8.7732   43.3047  132.3541 C   0  0  0  0  0  0  0  0  0  0  0  0
    9.9192   43.7012  132.9898 C   0  0  0  0  0  0  0  0  0  0  0  0
    8.3611   44.0125  131.1413 C   0  0  0  0  0  0  0  0  0  0  0  0
    7.8389   45.1935  130.9568 N   0  0  0  0  0  0  0  0  0  0  0  0
    7.5513   45.6292  129.7783 C   0  0  0  0  0  0  0  0  0  0  0  0
    7.8213   44.7889  128.7132 C   0  0  0  0  0  0  0  0  0  0  0  0
    8.4743   43.4285  129.5122 S   0  0  0  0  0  0  0  0  0  0  0  0
    6.9888   46.9787  129.5275 C   0  0  0  0  0  0  0  0  0  0  0  0
    5.7660   47.1580  128.9331 C   0  0  0  0  0  0  0  0  0  0  0  0
    5.3014   48.4474  128.7285 C   0  0  0  0  0  0  0  0  0  0  0  0
    6.0470   49.5442  129.1121 C   0  0  0  0  0  0  0  0  0  0  0  0
    5.6125   50.8030  128.9209 N   0  0  0  0  0  0  0  0  0  0  0  0
    6.3496   51.8595  129.2985 C   0  0  0  0  0  0  0  0  0  0  0  0
    7.5766   51.6499  129.8949 C   0  0  0  0  0  0  0  0  0  0  0  0
    8.0076   50.3909  130.0846 N   0  0  0  0  0  0  0  0  0  0  0  0
    7.2837   49.3227  129.7130 C   0  0  0  0  0  0  0  0  0  0  0  0
    7.6994   48.0477  129.8940 N   0  0  0  0  0  0  0  0  0  0  0  0
   11.7452   43.0488  136.1733 C   0  0  0  0  0  0  0  0  0  0  0  0
   11.5735   43.5124  134.7838 N   0  0  0  0  0  0  0  0  0  0  0  0
   12.5388   44.3170  134.1616 C   0  0  0  0  0  0  0  0  0  0  0  0
   13.5519   44.5878  134.8718 O   0  0  0  0  0  0  0  0  0  0  0  0
   12.3838   44.7986  132.8084 C   0  0  0  0  0  0  0  0  0  0  0  0
   12.9289   44.1372  131.7097 C   0  0  0  0  0  0  0  0  0  0  0  0
   12.7293   44.6264  130.4429 C   0  0  0  0  0  0  0  0  0  0  0  0
   11.9940   45.7717  130.2197 C   0  0  0  0  0  0  0  0  0  0  0  0
   11.4418   46.4513  131.2704 C   0  0  0  0  0  0  0  0  0  0  0  0
   10.7102   47.5792  131.0990 N   0  0  0  0  0  0  0  0  0  0  0  0
   10.1891   48.2040  132.1643 C   0  0  0  0  0  0  0  0  0  0  0  0
   10.3486   47.7684  133.4569 C   0  0  0  0  0  0  0  0  0  0  0  0
   11.0957   46.6147  133.6438 C   0  0  0  0  0  0  0  0  0  0  0  0
   11.6423   45.9580  132.5466 C   0  0  0  0  0  0  0  0  0  0  0  0
 22 23  1  0  0  0
 23  1  1  0  0  0
  1  2  2  0  0  0
  2  3  1  0  0  0
  3  4  2  0  0  0
  4  5  1  0  0  0
  5  6  2  0  0  0
  5  7  1  0  0  0
  7  8  2  0  0  0
  8  9  1  0  0  0
  9 10  2  0  0  0
 10 11  1  0  0  0
  9 12  1  0  0  0
 12 13  2  0  0  0
 13 14  1  0  0  0
 14 15  2  0  0  0
 15 16  1  0  0  0
 16 17  2  0  0  0
 17 18  1  0  0  0
 18 19  2  0  0  0
 19 20  1  0  0  0
 20 21  2  0  0  0
 23 24  1  0  0  0
 24 25  2  0  0  0
 24 26  1  0  0  0
 26 27  2  0  0  0
 27 28  1  0  0  0
 28 29  2  0  0  0
 29 30  1  0  0  0
 30 31  2  0  0  0
 31 32  1  0  0  0
 32 33  2  0  0  0
 33 34  1  0  0  0
 34 35  2  0  0  0
  6  1  1  0  0  0
 11  7  1  0  0  0
 21 12  1  0  0  0
 35 26  1  0  0  0
 20 15  1  0  0  0
 35 30  1  0  0  0
M  END
> <minimizedAffinity>
8.04685

> <CNNscore>
0.4028757215

> <CNNaffinity>
8.2056703568

> <CNN_VS>
3.3058652878

> <CNNaffinity_variance>
0.8993946910

$$$$
[H]c1nc2nc(-c3nc(-c4c([H])c([H])c([H])c(N(C(=O)c5c([H])c([H])c([H])c6nc([H])c([H])c([H])c56)C([H])([H])[H])c4[H])sc3[H])c([H])c([H])c2nc1[H]


 35 40  0  0  0  0  0  0  0  0999 V2000
    8.9598   49.5486  131.4720 C   0  0  0  0  0  0  0  0  0  0  0  0
    8.1308   50.4395  130.8421 C   0  0  0  0  0  0  0  0  0  0  0  0
    7.6821   50.1998  129.5701 C   0  0  0  0  0  0  0  0  0  0  0  0
    8.0826   49.0225  128.9164 C   0  0  0  0  0  0  0  0  0  0  0  0
    8.8967   48.1246  129.5123 C   0  0  0  0  0  0  0  0  0  0  0  0
    9.3371   48.3808  130.7831 C   0  0  0  0  0  0  0  0  0  0  0  0
    9.3235   46.8880  128.8562 C   0  0  0  0  0  0  0  0  0  0  0  0
    9.4969   45.6769  129.3085 N   0  0  0  0  0  0  0  0  0  0  0  0
    9.8816   44.7164  128.5399 C   0  0  0  0  0  0  0  0  0  0  0  0
   10.1030   45.0249  127.2098 C   0  0  0  0  0  0  0  0  0  0  0  0
    9.7327   46.6915  127.1823 S   0  0  0  0  0  0  0  0  0  0  0  0
   10.0562   43.3207  129.0112 C   0  0  0  0  0  0  0  0  0  0  0  0
    9.7062   42.2431  128.2387 C   0  0  0  0  0  0  0  0  0  0  0  0
    9.8962   40.9661  128.7419 C   0  0  0  0  0  0  0  0  0  0  0  0
   10.4288   40.7664  129.9999 C   0  0  0  0  0  0  0  0  0  0  0  0
   10.6197   39.5343  130.5052 N   0  0  0  0  0  0  0  0  0  0  0  0
   11.1378   39.3562  131.7308 C   0  0  0  0  0  0  0  0  0  0  0  0
   11.4816   40.4589  132.4866 C   0  0  0  0  0  0  0  0  0  0  0  0
   11.2897   41.6885  131.9786 N   0  0  0  0  0  0  0  0  0  0  0  0
   10.7726   41.8849  130.7551 C   0  0  0  0  0  0  0  0  0  0  0  0
   10.5705   43.1138  130.2255 N   0  0  0  0  0  0  0  0  0  0  0  0
    9.7902   51.1749  133.0882 C   0  0  0  0  0  0  0  0  0  0  0  0
    9.4479   49.7707  132.7948 N   0  0  0  0  0  0  0  0  0  0  0  0
    9.5901   48.7697  133.7665 C   0  0  0  0  0  0  0  0  0  0  0  0
   10.0091   49.1695  134.8929 O   0  0  0  0  0  0  0  0  0  0  0  0
    9.2791   47.3850  133.4968 C   0  0  0  0  0  0  0  0  0  0  0  0
    8.0003   46.9581  133.1445 C   0  0  0  0  0  0  0  0  0  0  0  0
    7.7667   45.6327  132.8748 C   0  0  0  0  0  0  0  0  0  0  0  0
    8.7751   44.6942  132.9433 C   0  0  0  0  0  0  0  0  0  0  0  0
   10.0446   45.0711  133.2856 C   0  0  0  0  0  0  0  0  0  0  0  0
   11.0670   44.1848  133.3633 N   0  0  0  0  0  0  0  0  0  0  0  0
   12.2929   44.6093  133.7005 C   0  0  0  0  0  0  0  0  0  0  0  0
   12.5956   45.9192  133.9811 C   0  0  0  0  0  0  0  0  0  0  0  0
   11.5566   46.8348  133.9044 C   0  0  0  0  0  0  0  0  0  0  0  0
   10.2800   46.4065  133.5565 C   0  0  0  0  0  0  0  0  0  0  0  0
 22 23  1  0  0  0
 23  1  1  0  0  0
  1  2  2  0  0  0
  2  3  1  0  0  0
  3  4  2  0  0  0
  4  5  1  0  0  0
  5  6  2  0  0  0
  5  7  1  0  0  0
  7  8  2  0  0  0
  8  9  1  0  0  0
  9 10  2  0  0  0
 10 11  1  0  0  0
  9 12  1  0  0  0
 12 13  2  0  0  0
 13 14  1  0  0  0
 14 15  2  0  0  0
 15 16  1  0  0  0
 16 17  2  0  0  0
 17 18  1  0  0  0
 18 19  2  0  0  0
 19 20  1  0  0  0
 20 21  2  0  0  0
 23 24  1  0  0  0
 24 25  2  0  0  0
 24 26  1  0  0  0
 26 27  2  0  0  0
 27 28  1  0  0  0
 28 29  2  0  0  0
 29 30  1  0  0  0
 30 31  2  0  0  0
 31 32  1  0  0  0
 32 33  2  0  0  0
 33 34  1  0  0  0
 34 35  2  0  0  0
  6  1  1  0  0  0
 11  7  1  0  0  0
 21 12  1  0  0  0
 35 26  1  0  0  0
 20 15  1  0  0  0
 35 30  1  0  0  0
M  END
> <minimizedAffinity>
20.71692

> <CNNscore>
0.4025327563

> <CNNaffinity>
7.8451986313

> <CNN_VS>
3.1579494476

> <CNNaffinity_variance>
1.0367075205

$$$$
[H]c1nc2nc(-c3nc(-c4c([H])c([H])c([H])c(N(C(=O)c5c([H])c([H])c([H])c6nc([H])c([H])c([H])c56)C([H])([H])[H])c4[H])sc3[H])c([H])c([H])c2nc1[H]


 35 40  0  0  0  0  0  0  0  0999 V2000
    6.4859   49.0955  130.0722 C   0  0  0  0  0  0  0  0  0  0  0  0
    5.2721   48.9542  129.4522 C   0  0  0  0  0  0  0  0  0  0  0  0
    4.7963   47.7136  129.1185 C   0  0  0  0  0  0  0  0  0  0  0  0
    5.5710   46.5818  129.4227 C   0  0  0  0  0  0  0  0  0  0  0  0
    6.7699   46.6892  130.0354 C   0  0  0  0  0  0  0  0  0  0  0  0
    7.2308   47.9368  130.3604 C   0  0  0  0  0  0  0  0  0  0  0  0
    7.5935   45.5264  130.3691 C   0  0  0  0  0  0  0  0  0  0  0  0
    8.8796   45.3205  130.2983 N   0  0  0  0  0  0  0  0  0  0  0  0
    9.4057   44.1994  130.6554 C   0  0  0  0  0  0  0  0  0  0  0  0
    8.5460   43.2200  131.1193 C   0  0  0  0  0  0  0  0  0  0  0  0
    7.0369   44.0096  130.9996 S   0  0  0  0  0  0  0  0  0  0  0  0
   10.8661   43.9414  130.6211 C   0  0  0  0  0  0  0  0  0  0  0  0
   11.5086   43.2627  131.6247 C   0  0  0  0  0  0  0  0  0  0  0  0
   12.8756   43.0574  131.5284 C   0  0  0  0  0  0  0  0  0  0  0  0
   13.5928   43.5230  130.4445 C   0  0  0  0  0  0  0  0  0  0  0  0
   14.9202   43.3337  130.3343 N   0  0  0  0  0  0  0  0  0  0  0  0
   15.6041   43.7934  129.2745 C   0  0  0  0  0  0  0  0  0  0  0  0
   14.9320   44.4729  128.2786 C   0  0  0  0  0  0  0  0  0  0  0  0
   13.6057   44.6601  128.3918 N   0  0  0  0  0  0  0  0  0  0  0  0
   12.9061   44.2075  129.4448 C   0  0  0  0  0  0  0  0  0  0  0  0
   11.5713   44.3859  129.5785 N   0  0  0  0  0  0  0  0  0  0  0  0
    6.0453   51.4817  130.3136 C   0  0  0  0  0  0  0  0  0  0  0  0
    7.0116   50.3736  130.4292 N   0  0  0  0  0  0  0  0  0  0  0  0
    8.3234   50.5965  130.8716 C   0  0  0  0  0  0  0  0  0  0  0  0
    8.5927   51.7970  131.1724 O   0  0  0  0  0  0  0  0  0  0  0  0
    9.2928   49.5304  130.9752 C   0  0  0  0  0  0  0  0  0  0  0  0
   10.1679   49.2088  129.9395 C   0  0  0  0  0  0  0  0  0  0  0  0
   11.0863   48.2017  130.1018 C   0  0  0  0  0  0  0  0  0  0  0  0
   11.1712   47.4856  131.2775 C   0  0  0  0  0  0  0  0  0  0  0  0
   10.3308   47.7692  132.3187 C   0  0  0  0  0  0  0  0  0  0  0  0
   10.3792   47.0940  133.4929 N   0  0  0  0  0  0  0  0  0  0  0  0
    9.5336   47.4155  134.4821 C   0  0  0  0  0  0  0  0  0  0  0  0
    8.5930   48.4116  134.3870 C   0  0  0  0  0  0  0  0  0  0  0  0
    8.5348   49.1091  133.1896 C   0  0  0  0  0  0  0  0  0  0  0  0
    9.4061   48.7843  132.1555 C   0  0  0  0  0  0  0  0  0  0  0  0
 22 23  1  0  0  0
 23  1  1  0  0  0
  1  2  2  0  0  0
  2  3  1  0  0  0
  3  4  2  0  0  0
  4  5  1  0  0  0
  5  6  2  0  0  0
  5  7  1  0  0  0
  7  8  2  0  0  0
  8  9  1  0  0  0
  9 10  2  0  0  0
 10 11  1  0  0  0
  9 12  1  0  0  0
 12 13  2  0  0  0
 13 14  1  0  0  0
 14 15  2  0  0  0
 15 16  1  0  0  0
 16 17  2  0  0  0
 17 18  1  0  0  0
 18 19  2  0  0  0
 19 20  1  0  0  0
 20 21  2  0  0  0
 23 24  1  0  0  0
 24 25  2  0  0  0
 24 26  1  0  0  0
 26 27  2  0  0  0
 27 28  1  0  0  0
 28 29  2  0  0  0
 29 30  1  0  0  0
 30 31  2  0  0  0
 31 32  1  0  0  0
 32 33  2  0  0  0
 33 34  1  0  0  0
 34 35  2  0  0  0
  6  1  1  0  0  0
 11  7  1  0  0  0
 21 12  1  0  0  0
 35 26  1  0  0  0
 20 15  1  0  0  0
 35 30  1  0  0  0
M  END
> <minimizedAffinity>
16.40256

> <CNNscore>
0.3945536613

> <CNNaffinity>
7.6838655472

> <CNN_VS>
3.0316972733

> <CNNaffinity_variance>
0.8908315897

$$$$
[H]c1nc2nc(-c3nc(-c4c([H])c([H])c([H])c(N(C(=O)c5c([H])c([H])c([H])c6nc([H])c([H])c([H])c56)C([H])([H])[H])c4[H])sc3[H])c([H])c([H])c2nc1[H]


 35 40  0  0  0  0  0  0  0  0999 V2000
   10.4138   42.2684  132.6918 C   0  0  0  0  0  0  0  0  0  0  0  0
   10.5744   41.0643  132.0577 C   0  0  0  0  0  0  0  0  0  0  0  0
   10.5606   40.9857  130.6900 C   0  0  0  0  0  0  0  0  0  0  0  0
   10.3807   42.1608  129.9414 C   0  0  0  0  0  0  0  0  0  0  0  0
   10.2223   43.3622  130.5379 C   0  0  0  0  0  0  0  0  0  0  0  0
   10.2371   43.4222  131.9056 C   0  0  0  0  0  0  0  0  0  0  0  0
   10.0396   44.6017  129.7816 C   0  0  0  0  0  0  0  0  0  0  0  0
    9.3625   45.6867  130.0378 N   0  0  0  0  0  0  0  0  0  0  0  0
    9.3421   46.6807  129.2175 C   0  0  0  0  0  0  0  0  0  0  0  0
   10.0719   46.5483  128.0498 C   0  0  0  0  0  0  0  0  0  0  0  0
   10.7319   44.9849  128.2383 S   0  0  0  0  0  0  0  0  0  0  0  0
    8.6119   47.9428  129.4904 C   0  0  0  0  0  0  0  0  0  0  0  0
    9.2546   49.0782  129.9127 C   0  0  0  0  0  0  0  0  0  0  0  0
    8.5101   50.2226  130.1494 C   0  0  0  0  0  0  0  0  0  0  0  0
    7.1416   50.2345  129.9673 C   0  0  0  0  0  0  0  0  0  0  0  0
    6.4025   51.3357  130.1929 N   0  0  0  0  0  0  0  0  0  0  0  0
    5.0723   51.3313  130.0121 C   0  0  0  0  0  0  0  0  0  0  0  0
    4.4513   50.1746  129.5861 C   0  0  0  0  0  0  0  0  0  0  0  0
    5.1927   49.0761  129.3614 N   0  0  0  0  0  0  0  0  0  0  0  0
    6.5239   49.0626  129.5373 C   0  0  0  0  0  0  0  0  0  0  0  0
    7.2884   47.9678  129.3178 N   0  0  0  0  0  0  0  0  0  0  0  0
    9.8984   41.1990  134.8219 C   0  0  0  0  0  0  0  0  0  0  0  0
   10.4192   42.3836  134.1145 N   0  0  0  0  0  0  0  0  0  0  0  0
   10.8855   43.5034  134.8180 C   0  0  0  0  0  0  0  0  0  0  0  0
   10.8387   43.4035  136.0798 O   0  0  0  0  0  0  0  0  0  0  0  0
   11.3826   44.6823  134.1471 C   0  0  0  0  0  0  0  0  0  0  0  0
   12.6656   44.7539  133.6081 C   0  0  0  0  0  0  0  0  0  0  0  0
   13.0773   45.8910  132.9588 C   0  0  0  0  0  0  0  0  0  0  0  0
   12.2469   46.9836  132.8213 C   0  0  0  0  0  0  0  0  0  0  0  0
   10.9800   46.9548  133.3358 C   0  0  0  0  0  0  0  0  0  0  0  0
   10.1285   48.0031  133.2229 N   0  0  0  0  0  0  0  0  0  0  0  0
    8.8960   47.9200  133.7433 C   0  0  0  0  0  0  0  0  0  0  0  0
    8.4203   46.8133  134.4029 C   0  0  0  0  0  0  0  0  0  0  0  0
    9.2835   45.7344  134.5242 C   0  0  0  0  0  0  0  0  0  0  0  0
   10.5650   45.8089  133.9892 C   0  0  0  0  0  0  0  0  0  0  0  0
 22 23  1  0  0  0
 23  1  1  0  0  0
  1  2  2  0  0  0
  2  3  1  0  0  0
  3  4  2  0  0  0
  4  5  1  0  0  0
  5  6  2  0  0  0
  5  7  1  0  0  0
  7  8  2  0  0  0
  8  9  1  0  0  0
  9 10  2  0  0  0
 10 11  1  0  0  0
  9 12  1  0  0  0
 12 13  2  0  0  0
 13 14  1  0  0  0
 14 15  2  0  0  0
 15 16  1  0  0  0
 16 17  2  0  0  0
 17 18  1  0  0  0
 18 19  2  0  0  0
 19 20  1  0  0  0
 20 21  2  0  0  0
 23 24  1  0  0  0
 24 25  2  0  0  0
 24 26  1  0  0  0
 26 27  2  0  0  0
 27 28  1  0  0  0
 28 29  2  0  0  0
 29 30  1  0  0  0
 30 31  2  0  0  0
 31 32  1  0  0  0
 32 33  2  0  0  0
 33 34  1  0  0  0
 34 35  2  0  0  0
  6  1  1  0  0  0
 11  7  1  0  0  0
 21 12  1  0  0  0
 35 26  1  0  0  0
 20 15  1  0  0  0
 35 30  1  0  0  0
M  END
> <minimizedAffinity>
9.67859

> <CNNscore>
0.3739166558

> <CNNaffinity>
8.0390319824

> <CNN_VS>
3.0059280396

> <CNNaffinity_variance>
0.2428008616

$$$$
[H]c1nc2nc(-c3nc(-c4c([H])c([H])c([H])c(N(C(=O)c5c([H])c([H])c([H])c6nc([H])c([H])c([H])c56)C([H])([H])[H])c4[H])sc3[H])c([H])c([H])c2nc1[H]


 35 40  0  0  0  0  0  0  0  0999 V2000
   11.3955   43.2404  132.4819 C   0  0  0  0  0  0  0  0  0  0  0  0
   12.4278   42.9400  133.3316 C   0  0  0  0  0  0  0  0  0  0  0  0
   12.9712   43.9024  134.1412 C   0  0  0  0  0  0  0  0  0  0  0  0
   12.4535   45.2074  134.0909 C   0  0  0  0  0  0  0  0  0  0  0  0
   11.4352   45.5331  133.2656 C   0  0  0  0  0  0  0  0  0  0  0  0
   10.9051   44.5594  132.4623 C   0  0  0  0  0  0  0  0  0  0  0  0
   10.8734   46.8828  133.1986 C   0  0  0  0  0  0  0  0  0  0  0  0
   10.0485   47.4423  132.3572 N   0  0  0  0  0  0  0  0  0  0  0  0
    9.6741   48.6683  132.4910 C   0  0  0  0  0  0  0  0  0  0  0  0
   10.1853   49.3685  133.5689 C   0  0  0  0  0  0  0  0  0  0  0  0
   11.1719   48.1850  134.3046 S   0  0  0  0  0  0  0  0  0  0  0  0
    8.7118   49.3272  131.5742 C   0  0  0  0  0  0  0  0  0  0  0  0
    8.9048   50.6039  131.1123 C   0  0  0  0  0  0  0  0  0  0  0  0
    7.9649   51.1583  130.2583 C   0  0  0  0  0  0  0  0  0  0  0  0
    6.8465   50.4481  129.8697 C   0  0  0  0  0  0  0  0  0  0  0  0
    5.9232   50.9702  129.0421 N   0  0  0  0  0  0  0  0  0  0  0  0
    4.8403   50.2674  128.6741 C   0  0  0  0  0  0  0  0  0  0  0  0
    4.6714   48.9842  129.1538 C   0  0  0  0  0  0  0  0  0  0  0  0
    5.5959   48.4655  129.9804 N   0  0  0  0  0  0  0  0  0  0  0  0
    6.6847   49.1543  130.3589 C   0  0  0  0  0  0  0  0  0  0  0  0
    7.6265   48.6513  131.1905 N   0  0  0  0  0  0  0  0  0  0  0  0
   10.5872   40.9505  132.2595 C   0  0  0  0  0  0  0  0  0  0  0  0
   10.8103   42.2621  131.6230 N   0  0  0  0  0  0  0  0  0  0  0  0
   10.4495   42.4926  130.2877 C   0  0  0  0  0  0  0  0  0  0  0  0
    9.9130   41.5084  129.6981 O   0  0  0  0  0  0  0  0  0  0  0  0
   10.6751   43.7627  129.6373 C   0  0  0  0  0  0  0  0  0  0  0  0
   11.8918   44.0972  129.0461 C   0  0  0  0  0  0  0  0  0  0  0  0
   12.0428   45.3091  128.4196 C   0  0  0  0  0  0  0  0  0  0  0  0
   11.0107   46.2218  128.3563 C   0  0  0  0  0  0  0  0  0  0  0  0
    9.8003   45.9330  128.9239 C   0  0  0  0  0  0  0  0  0  0  0  0
    8.7573   46.7976  128.8845 N   0  0  0  0  0  0  0  0  0  0  0  0
    7.5914   46.4621  129.4547 C   0  0  0  0  0  0  0  0  0  0  0  0
    7.3723   45.2673  130.0953 C   0  0  0  0  0  0  0  0  0  0  0  0
    8.4331   44.3749  130.1414 C   0  0  0  0  0  0  0  0  0  0  0  0
    9.6479   44.7118  129.5544 C   0  0  0  0  0  0  0  0  0  0  0  0
 22 23  1  0  0  0
 23  1  1  0  0  0
  1  2  2  0  0  0
  2  3  1  0  0  0
  3  4  2  0  0  0
  4  5  1  0  0  0
  5  6  2  0  0  0
  5  7  1  0  0  0
  7  8  2  0  0  0
  8  9  1  0  0  0
  9 10  2  0  0  0
 10 11  1  0  0  0
  9 12  1  0  0  0
 12 13  2  0  0  0
 13 14  1  0  0  0
 14 15  2  0  0  0
 15 16  1  0  0  0
 16 17  2  0  0  0
 17 18  1  0  0  0
 18 19  2  0  0  0
 19 20  1  0  0  0
 20 21  2  0  0  0
 23 24  1  0  0  0
 24 25  2  0  0  0
 24 26  1  0  0  0
 26 27  2  0  0  0
 27 28  1  0  0  0
 28 29  2  0  0  0
 29 30  1  0  0  0
 30 31  2  0  0  0
 31 32  1  0  0  0
 32 33  2  0  0  0
 33 34  1  0  0  0
 34 35  2  0  0  0
  6  1  1  0  0  0
 11  7  1  0  0  0
 21 12  1  0  0  0
 35 26  1  0  0  0
 20 15  1  0  0  0
 35 30  1  0  0  0
M  END
> <minimizedAffinity>
4.57390

> <CNNscore>
0.3714361787

> <CNNaffinity>
7.8779020309

> <CNN_VS>
2.9261379242

> <CNNaffinity_variance>
0.2469367683

$$$$
[H]c1c([H])c(C([H])([H])[H])c([H])c([H])c1N1C([H])([H])c2c(C([H])([H])[H])nc(OC([H])([H])[H])c([H])c2C([H])([H])C1([H])[H]


 20 22  0  0  0  0  0  0  0  0999 V2000
    6.8402   50.8390  129.5030 C   0  0  0  0  0  0  0  0  0  0  0  0
    7.9399   50.6399  130.3246 C   0  0  0  0  0  0  0  0  0  0  0  0
    8.3144   49.3781  130.7350 C   0  0  0  0  0  0  0  0  0  0  0  0
    9.4902   49.2456  131.6047 C   0  0  0  0  0  0  0  0  0  0  0  0
   10.1080   47.9083  131.6251 C   0  0  0  0  0  0  0  0  0  0  0  0
    9.2343   46.8203  131.2590 N   0  0  0  0  0  0  0  0  0  0  0  0
    7.9194   46.9667  130.7113 C   0  0  0  0  0  0  0  0  0  0  0  0
    7.5606   48.3168  130.3027 C   0  0  0  0  0  0  0  0  0  0  0  0
    6.4646   48.4990  129.4857 C   0  0  0  0  0  0  0  0  0  0  0  0
    5.6731   47.3187  129.0391 C   0  0  0  0  0  0  0  0  0  0  0  0
    6.1472   49.7527  129.1178 N   0  0  0  0  0  0  0  0  0  0  0  0
    9.7271   45.4987  131.4617 C   0  0  0  0  0  0  0  0  0  0  0  0
    9.7088   44.5377  130.4482 C   0  0  0  0  0  0  0  0  0  0  0  0
   10.1843   43.2590  130.6404 C   0  0  0  0  0  0  0  0  0  0  0  0
   10.6991   42.8859  131.8556 C   0  0  0  0  0  0  0  0  0  0  0  0
   11.2015   41.4918  132.0157 C   0  0  0  0  0  0  0  0  0  0  0  0
   10.7316   43.8058  132.8720 C   0  0  0  0  0  0  0  0  0  0  0  0
   10.2571   45.0697  132.6680 C   0  0  0  0  0  0  0  0  0  0  0  0
    7.1436   52.6607  127.9656 C   0  0  0  0  0  0  0  0  0  0  0  0
    6.4867   52.1357  129.1041 O   0  0  0  0  0  0  0  0  0  0  0  0
 19 20  1  0  0  0
 20  1  1  0  0  0
  1  2  2  0  0  0
  2  3  1  0  0  0
  3  4  1  0  0  0
  4  5  1  0  0  0
  5  6  1  0  0  0
  6  7  1  0  0  0
  7  8  1  0  0  0
  8  9  1  0  0  0
  9 10  1  0  0  0
  9 11  2  0  0  0
  6 12  1  0  0  0
 12 13  2  0  0  0
 13 14  1  0  0  0
 14 15  2  0  0  0
 15 16  1  0  0  0
 15 17  1  0  0  0
 17 18  2  0  0  0
 11  1  1  0  0  0
 18 12  1  0  0  0
  8  3  2  0  0  0
M  END
> <minimizedAffinity>
-4.87764

> <CNNscore>
0.6048790216

> <CNNaffinity>
7.1788320541

> <CNN_VS>
4.3423247337

> <CNNaffinity_variance>
1.4485018253

$$$$
[H]c1c([H])c(C([H])([H])[H])c([H])c([H])c1N1C([H])([H])c2c(C([H])([H])[H])nc(OC([H])([H])[H])c([H])c2C([H])([H])C1([H])[H]


 20 22  0  0  0  0  0  0  0  0999 V2000
    9.2669   50.2779  131.9324 C   0  0  0  0  0  0  0  0  0  0  0  0
    9.7386   49.4605  132.9490 C   0  0  0  0  0  0  0  0  0  0  0  0
    9.7762   48.0891  132.8129 C   0  0  0  0  0  0  0  0  0  0  0  0
   10.2888   47.2887  133.9323 C   0  0  0  0  0  0  0  0  0  0  0  0
   10.7381   45.9309  133.5789 C   0  0  0  0  0  0  0  0  0  0  0  0
   10.1536   45.3811  132.3801 N   0  0  0  0  0  0  0  0  0  0  0  0
    9.3507   46.1096  131.4447 C   0  0  0  0  0  0  0  0  0  0  0  0
    9.3293   47.5529  131.6321 C   0  0  0  0  0  0  0  0  0  0  0  0
    8.8575   48.3526  130.6124 C   0  0  0  0  0  0  0  0  0  0  0  0
    8.3815   47.7290  129.3461 C   0  0  0  0  0  0  0  0  0  0  0  0
    8.8447   49.6836  130.8023 N   0  0  0  0  0  0  0  0  0  0  0  0
   10.4000   44.0031  132.1136 C   0  0  0  0  0  0  0  0  0  0  0  0
    9.6274   43.2744  131.2064 C   0  0  0  0  0  0  0  0  0  0  0  0
    9.8626   41.9420  130.9461 C   0  0  0  0  0  0  0  0  0  0  0  0
   10.8816   41.2805  131.5825 C   0  0  0  0  0  0  0  0  0  0  0  0
   11.0975   39.8395  131.2684 C   0  0  0  0  0  0  0  0  0  0  0  0
   11.6590   41.9672  132.4795 C   0  0  0  0  0  0  0  0  0  0  0  0
   11.4151   43.2874  132.7280 C   0  0  0  0  0  0  0  0  0  0  0  0
    9.5430   52.1642  133.3951 C   0  0  0  0  0  0  0  0  0  0  0  0
    9.2424   51.6691  132.1037 O   0  0  0  0  0  0  0  0  0  0  0  0
 19 20  1  0  0  0
 20  1  1  0  0  0
  1  2  2  0  0  0
  2  3  1  0  0  0
  3  4  1  0  0  0
  4  5  1  0  0  0
  5  6  1  0  0  0
  6  7  1  0  0  0
  7  8  1  0  0  0
  8  9  1  0  0  0
  9 10  1  0  0  0
  9 11  2  0  0  0
  6 12  1  0  0  0
 12 13  2  0  0  0
 13 14  1  0  0  0
 14 15  2  0  0  0
 15 16  1  0  0  0
 15 17  1  0  0  0
 17 18  2  0  0  0
 11  1  1  0  0  0
 18 12  1  0  0  0
  8  3  2  0  0  0
M  END
> <minimizedAffinity>
4.40251

> <CNNscore>
0.5243780017

> <CNNaffinity>
7.1648302078

> <CNN_VS>
3.7570793629

> <CNNaffinity_variance>
3.4604713917

$$$$
[H]c1c([H])c(C([H])([H])[H])c([H])c([H])c1N1C([H])([H])c2c(C([H])([H])[H])nc(OC([H])([H])[H])c([H])c2C([H])([H])C1([H])[H]


 20 22  0  0  0  0  0  0  0  0999 V2000
   11.2305   42.5498  132.0869 C   0  0  0  0  0  0  0  0  0  0  0  0
   10.2341   42.7223  131.1374 C   0  0  0  0  0  0  0  0  0  0  0  0
    9.6145   43.9404  130.9553 C   0  0  0  0  0  0  0  0  0  0  0  0
    8.5681   44.0468  129.9306 C   0  0  0  0  0  0  0  0  0  0  0  0
    8.2846   45.4148  129.4630 C   0  0  0  0  0  0  0  0  0  0  0  0
    8.6362   46.4666  130.3856 N   0  0  0  0  0  0  0  0  0  0  0  0
    9.3896   46.2894  131.5903 C   0  0  0  0  0  0  0  0  0  0  0  0
   10.0164   44.9852  131.7480 C   0  0  0  0  0  0  0  0  0  0  0  0
   11.0055   44.8291  132.6963 C   0  0  0  0  0  0  0  0  0  0  0  0
   11.4119   45.9903  133.5363 C   0  0  0  0  0  0  0  0  0  0  0  0
   11.5738   43.6178  132.8288 N   0  0  0  0  0  0  0  0  0  0  0  0
    8.1947   47.7828  130.0646 C   0  0  0  0  0  0  0  0  0  0  0  0
    7.4730   48.0589  128.9010 C   0  0  0  0  0  0  0  0  0  0  0  0
    7.0445   49.3301  128.5871 C   0  0  0  0  0  0  0  0  0  0  0  0
    7.3195   50.3810  129.4243 C   0  0  0  0  0  0  0  0  0  0  0  0
    6.8352   51.7380  129.0426 C   0  0  0  0  0  0  0  0  0  0  0  0
    8.0263   50.1439  130.5753 C   0  0  0  0  0  0  0  0  0  0  0  0
    8.4450   48.8792  130.8742 C   0  0  0  0  0  0  0  0  0  0  0  0
   11.1910   40.1859  131.6576 C   0  0  0  0  0  0  0  0  0  0  0  0
   11.8400   41.2975  132.2463 O   0  0  0  0  0  0  0  0  0  0  0  0
 19 20  1  0  0  0
 20  1  1  0  0  0
  1  2  2  0  0  0
  2  3  1  0  0  0
  3  4  1  0  0  0
  4  5  1  0  0  0
  5  6  1  0  0  0
  6  7  1  0  0  0
  7  8  1  0  0  0
  8  9  1  0  0  0
  9 10  1  0  0  0
  9 11  2  0  0  0
  6 12  1  0  0  0
 12 13  2  0  0  0
 13 14  1  0  0  0
 14 15  2  0  0  0
 15 16  1  0  0  0
 15 17  1  0  0  0
 17 18  2  0  0  0
 11  1  1  0  0  0
 18 12  1  0  0  0
  8  3  2  0  0  0
M  END
> <minimizedAffinity>
-3.82111

> <CNNscore>
0.5003442764

> <CNNaffinity>
6.7880144119

> <CNN_VS>
3.3963441849

> <CNNaffinity_variance>
1.1020387411

$$$$
[H]c1c([H])c(C([H])([H])[H])c([H])c([H])c1N1C([H])([H])c2c(C([H])([H])[H])nc(OC([H])([H])[H])c([H])c2C([H])([H])C1([H])[H]


 20 22  0  0  0  0  0  0  0  0999 V2000
    6.8871   50.4662  129.1335 C   0  0  0  0  0  0  0  0  0  0  0  0
    7.8246   50.7429  130.1177 C   0  0  0  0  0  0  0  0  0  0  0  0
    8.3764   49.7428  130.8896 C   0  0  0  0  0  0  0  0  0  0  0  0
    9.3631   50.1122  131.9125 C   0  0  0  0  0  0  0  0  0  0  0  0
   10.2391   49.0171  132.3638 C   0  0  0  0  0  0  0  0  0  0  0  0
    9.7080   47.6883  132.1815 N   0  0  0  0  0  0  0  0  0  0  0  0
    8.5232   47.3674  131.4444 C   0  0  0  0  0  0  0  0  0  0  0  0
    7.9670   48.4551  130.6531 C   0  0  0  0  0  0  0  0  0  0  0  0
    7.0358   48.1645  129.6783 C   0  0  0  0  0  0  0  0  0  0  0  0
    6.6189   46.7520  129.4541 C   0  0  0  0  0  0  0  0  0  0  0  0
    6.5322   49.1811  128.9567 N   0  0  0  0  0  0  0  0  0  0  0  0
   10.4260   46.6162  132.7864 C   0  0  0  0  0  0  0  0  0  0  0  0
   10.0447   46.0687  134.0135 C   0  0  0  0  0  0  0  0  0  0  0  0
   10.7362   45.0322  134.6015 C   0  0  0  0  0  0  0  0  0  0  0  0
   11.8398   44.4982  133.9869 C   0  0  0  0  0  0  0  0  0  0  0  0
   12.5553   43.3780  134.6615 C   0  0  0  0  0  0  0  0  0  0  0  0
   12.2408   45.0131  132.7809 C   0  0  0  0  0  0  0  0  0  0  0  0
   11.5464   46.0403  132.2093 C   0  0  0  0  0  0  0  0  0  0  0  0
    7.1312   52.6755  128.2206 C   0  0  0  0  0  0  0  0  0  0  0  0
    6.3456   51.5072  128.3663 O   0  0  0  0  0  0  0  0  0  0  0  0
 19 20  1  0  0  0
 20  1  1  0  0  0
  1  2  2  0  0  0
  2  3  1  0  0  0
  3  4  1  0  0  0
  4  5  1  0  0  0
  5  6  1  0  0  0
  6  7  1  0  0  0
  7  8  1  0  0  0
  8  9  1  0  0  0
  9 10  1  0  0  0
  9 11  2  0  0  0
  6 12  1  0  0  0
 12 13  2  0  0  0
 13 14  1  0  0  0
 14 15  2  0  0  0
 15 16  1  0  0  0
 15 17  1  0  0  0
 17 18  2  0  0  0
 11  1  1  0  0  0
 18 12  1  0  0  0
  8  3  2  0  0  0
M  END
> <minimizedAffinity>
-3.58100

> <CNNscore>
0.4975588918

> <CNNaffinity>
6.5506629944

> <CNN_VS>
3.2593405247

> <CNNaffinity_variance>
0.5487274528

$$$$
[H]c1c([H])c(C([H])([H])[H])c([H])c([H])c1N1C([H])([H])c2c(C([H])([H])[H])nc(OC([H])([H])[H])c([H])c2C([H])([H])C1([H])[H]


 20 22  0  0  0  0  0  0  0  0999 V2000
    7.3701   50.1870  129.3237 C   0  0  0  0  0  0  0  0  0  0  0  0
    7.4807   48.8207  129.1115 C   0  0  0  0  0  0  0  0  0  0  0  0
    8.2411   48.0217  129.9386 C   0  0  0  0  0  0  0  0  0  0  0  0
    8.3107   46.5833  129.6512 C   0  0  0  0  0  0  0  0  0  0  0  0
    8.7229   45.7364  130.7840 C   0  0  0  0  0  0  0  0  0  0  0  0
    9.4919   46.4048  131.8053 N   0  0  0  0  0  0  0  0  0  0  0  0
    9.7044   47.8186  131.8852 C   0  0  0  0  0  0  0  0  0  0  0  0
    8.8903   48.6236  130.9864 C   0  0  0  0  0  0  0  0  0  0  0  0
    8.7900   49.9807  131.2101 C   0  0  0  0  0  0  0  0  0  0  0  0
    9.5117   50.5941  132.3599 C   0  0  0  0  0  0  0  0  0  0  0  0
    8.0340   50.7094  130.3702 N   0  0  0  0  0  0  0  0  0  0  0  0
   10.0830   45.5854  132.8102 C   0  0  0  0  0  0  0  0  0  0  0  0
    9.8272   45.7799  134.1695 C   0  0  0  0  0  0  0  0  0  0  0  0
   10.3968   44.9897  135.1440 C   0  0  0  0  0  0  0  0  0  0  0  0
   11.2474   43.9702  134.8006 C   0  0  0  0  0  0  0  0  0  0  0  0
   11.8392   43.1425  135.8898 C   0  0  0  0  0  0  0  0  0  0  0  0
   11.5196   43.7527  133.4743 C   0  0  0  0  0  0  0  0  0  0  0  0
   10.9483   44.5431  132.5188 C   0  0  0  0  0  0  0  0  0  0  0  0
    6.9713   52.3233  128.2985 C   0  0  0  0  0  0  0  0  0  0  0  0
    6.5884   50.9707  128.4633 O   0  0  0  0  0  0  0  0  0  0  0  0
 19 20  1  0  0  0
 20  1  1  0  0  0
  1  2  2  0  0  0
  2  3  1  0  0  0
  3  4  1  0  0  0
  4  5  1  0  0  0
  5  6  1  0  0  0
  6  7  1  0  0  0
  7  8  1  0  0  0
  8  9  1  0  0  0
  9 10  1  0  0  0
  9 11  2  0  0  0
  6 12  1  0  0  0
 12 13  2  0  0  0
 13 14  1  0  0  0
 14 15  2  0  0  0
 15 16  1  0  0  0
 15 17  1  0  0  0
 17 18  2  0  0  0
 11  1  1  0  0  0
 18 12  1  0  0  0
  8  3  2  0  0  0
M  END
> <minimizedAffinity>
-2.93929

> <CNNscore>
0.4947197139

> <CNNaffinity>
6.7091064453

> <CNN_VS>
3.3191273212

> <CNNaffinity_variance>
1.2099319696

$$$$
[H]c1c([H])c(C([H])([H])[H])c([H])c([H])c1N1C([H])([H])c2c(C([H])([H])[H])nc(OC([H])([H])[H])c([H])c2C([H])([H])C1([H])[H]


 20 22  0  0  0  0  0  0  0  0999 V2000
    7.3578   50.5508  129.8865 C   0  0  0  0  0  0  0  0  0  0  0  0
    7.1609   49.3581  129.2063 C   0  0  0  0  0  0  0  0  0  0  0  0
    7.8735   48.2212  129.5231 C   0  0  0  0  0  0  0  0  0  0  0  0
    7.6106   46.9950  128.7590 C   0  0  0  0  0  0  0  0  0  0  0  0
    8.0271   45.7444  129.4168 C   0  0  0  0  0  0  0  0  0  0  0  0
    9.0688   45.8851  130.4048 N   0  0  0  0  0  0  0  0  0  0  0  0
    9.5658   47.1302  130.9078 C   0  0  0  0  0  0  0  0  0  0  0  0
    8.7908   48.3058  130.5395 C   0  0  0  0  0  0  0  0  0  0  0  0
    8.9976   49.4846  131.2248 C   0  0  0  0  0  0  0  0  0  0  0  0
   10.0038   49.5330  132.3223 C   0  0  0  0  0  0  0  0  0  0  0  0
    8.2733   50.5609  130.8716 N   0  0  0  0  0  0  0  0  0  0  0  0
    9.6428   44.6848  130.9150 C   0  0  0  0  0  0  0  0  0  0  0  0
   10.9174   44.2550  130.5387 C   0  0  0  0  0  0  0  0  0  0  0  0
   11.4758   43.0951  131.0298 C   0  0  0  0  0  0  0  0  0  0  0  0
   10.7827   42.3144  131.9192 C   0  0  0  0  0  0  0  0  0  0  0  0
   11.4279   41.0687  132.4228 C   0  0  0  0  0  0  0  0  0  0  0  0
    9.5283   42.7081  132.3091 C   0  0  0  0  0  0  0  0  0  0  0  0
    8.9869   43.8599  131.8147 C   0  0  0  0  0  0  0  0  0  0  0  0
    6.9576   52.3341  128.3264 C   0  0  0  0  0  0  0  0  0  0  0  0
    6.6161   51.6886  129.5388 O   0  0  0  0  0  0  0  0  0  0  0  0
 19 20  1  0  0  0
 20  1  1  0  0  0
  1  2  2  0  0  0
  2  3  1  0  0  0
  3  4  1  0  0  0
  4  5  1  0  0  0
  5  6  1  0  0  0
  6  7  1  0  0  0
  7  8  1  0  0  0
  8  9  1  0  0  0
  9 10  1  0  0  0
  9 11  2  0  0  0
  6 12  1  0  0  0
 12 13  2  0  0  0
 13 14  1  0  0  0
 14 15  2  0  0  0
 15 16  1  0  0  0
 15 17  1  0  0  0
 17 18  2  0  0  0
 11  1  1  0  0  0
 18 12  1  0  0  0
  8  3  2  0  0  0
M  END
> <minimizedAffinity>
-4.37884

> <CNNscore>
0.4778992832

> <CNNaffinity>
6.7523522377

> <CNN_VS>
3.2269442081

> <CNNaffinity_variance>
1.0696327686

$$$$
[H]c1c([H])c(C([H])([H])[H])c([H])c([H])c1N1C([H])([H])c2c(C([H])([H])[H])nc(OC([H])([H])[H])c([H])c2C([H])([H])C1([H])[H]


 20 22  0  0  0  0  0  0  0  0999 V2000
    9.2778   50.0727  131.5728 C   0  0  0  0  0  0  0  0  0  0  0  0
    9.1744   49.2072  130.4939 C   0  0  0  0  0  0  0  0  0  0  0  0
    9.6185   47.9042  130.5695 C   0  0  0  0  0  0  0  0  0  0  0  0
    9.4757   47.0465  129.3861 C   0  0  0  0  0  0  0  0  0  0  0  0
    9.5202   45.5981  129.6518 C   0  0  0  0  0  0  0  0  0  0  0  0
   10.2044   45.2145  130.8625 N   0  0  0  0  0  0  0  0  0  0  0  0
   10.6524   46.1184  131.8787 C   0  0  0  0  0  0  0  0  0  0  0  0
   10.1702   47.4861  131.7538 C   0  0  0  0  0  0  0  0  0  0  0  0
   10.2798   48.3350  132.8351 C   0  0  0  0  0  0  0  0  0  0  0  0
   10.8855   47.8402  134.1029 C   0  0  0  0  0  0  0  0  0  0  0  0
    9.8295   49.5949  132.7025 N   0  0  0  0  0  0  0  0  0  0  0  0
   10.4495   43.8239  131.0540 C   0  0  0  0  0  0  0  0  0  0  0  0
    9.7966   42.8460  130.3001 C   0  0  0  0  0  0  0  0  0  0  0  0
   10.0309   41.5006  130.4823 C   0  0  0  0  0  0  0  0  0  0  0  0
   10.9292   41.0749  131.4272 C   0  0  0  0  0  0  0  0  0  0  0  0
   11.1492   39.6095  131.5879 C   0  0  0  0  0  0  0  0  0  0  0  0
   11.5872   42.0097  132.1845 C   0  0  0  0  0  0  0  0  0  0  0  0
   11.3456   43.3399  131.9936 C   0  0  0  0  0  0  0  0  0  0  0  0
    9.1375   52.2772  132.5187 C   0  0  0  0  0  0  0  0  0  0  0  0
    8.8162   51.3919  131.4621 O   0  0  0  0  0  0  0  0  0  0  0  0
 19 20  1  0  0  0
 20  1  1  0  0  0
  1  2  2  0  0  0
  2  3  1  0  0  0
  3  4  1  0  0  0
  4  5  1  0  0  0
  5  6  1  0  0  0
  6  7  1  0  0  0
  7  8  1  0  0  0
  8  9  1  0  0  0
  9 10  1  0  0  0
  9 11  2  0  0  0
  6 12  1  0  0  0
 12 13  2  0  0  0
 13 14  1  0  0  0
 14 15  2  0  0  0
 15 16  1  0  0  0
 15 17  1  0  0  0
 17 18  2  0  0  0
 11  1  1  0  0  0
 18 12  1  0  0  0
  8  3  2  0  0  0
M  END
> <minimizedAffinity>
6.80855

> <CNNscore>
0.4765409231

> <CNNaffinity>
6.8629045486

> <CNN_VS>
3.2704548836

> <CNNaffinity_variance>
3.2341072559

$$$$
[H]c1c([H])c(C([H])([H])[H])c([H])c([H])c1N1C([H])([H])c2c(C([H])([H])[H])nc(OC([H])([H])[H])c([H])c2C([H])([H])C1([H])[H]


 20 22  0  0  0  0  0  0  0  0999 V2000
    8.0998   50.4845  128.7948 C   0  0  0  0  0  0  0  0  0  0  0  0
    9.0752   50.2909  129.7618 C   0  0  0  0  0  0  0  0  0  0  0  0
    9.3105   49.0480  130.3102 C   0  0  0  0  0  0  0  0  0  0  0  0
   10.3599   48.9203  131.3294 C   0  0  0  0  0  0  0  0  0  0  0  0
   10.8783   47.5557  131.5286 C   0  0  0  0  0  0  0  0  0  0  0  0
    9.9837   46.4936  131.1377 N   0  0  0  0  0  0  0  0  0  0  0  0
    8.7583   46.6700  130.4183 C   0  0  0  0  0  0  0  0  0  0  0  0
    8.5444   48.0000  129.8670 C   0  0  0  0  0  0  0  0  0  0  0  0
    7.5710   48.1769  128.9063 C   0  0  0  0  0  0  0  0  0  0  0  0
    6.7615   47.0114  128.4531 C   0  0  0  0  0  0  0  0  0  0  0  0
    7.3866   49.4119  128.4078 N   0  0  0  0  0  0  0  0  0  0  0  0
   10.3573   45.1671  131.5002 C   0  0  0  0  0  0  0  0  0  0  0  0
    9.4092   44.1683  131.7338 C   0  0  0  0  0  0  0  0  0  0  0  0
    9.7664   42.8846  132.0845 C   0  0  0  0  0  0  0  0  0  0  0  0
   11.0884   42.5444  132.2167 C   0  0  0  0  0  0  0  0  0  0  0  0
   11.4259   41.1434  132.5977 C   0  0  0  0  0  0  0  0  0  0  0  0
   12.0445   43.5019  131.9943 C   0  0  0  0  0  0  0  0  0  0  0  0
   11.6767   44.7702  131.6473 C   0  0  0  0  0  0  0  0  0  0  0  0
    7.0808   52.6499  129.0099 C   0  0  0  0  0  0  0  0  0  0  0  0
    7.8864   51.7618  128.2579 O   0  0  0  0  0  0  0  0  0  0  0  0
 19 20  1  0  0  0
 20  1  1  0  0  0
  1  2  2  0  0  0
  2  3  1  0  0  0
  3  4  1  0  0  0
  4  5  1  0  0  0
  5  6  1  0  0  0
  6  7  1  0  0  0
  7  8  1  0  0  0
  8  9  1  0  0  0
  9 10  1  0  0  0
  9 11  2  0  0  0
  6 12  1  0  0  0
 12 13  2  0  0  0
 13 14  1  0  0  0
 14 15  2  0  0  0
 15 16  1  0  0  0
 15 17  1  0  0  0
 17 18  2  0  0  0
 11  1  1  0  0  0
 18 12  1  0  0  0
  8  3  2  0  0  0
M  END
> <minimizedAffinity>
4.15739

> <CNNscore>
0.4704771042

> <CNNaffinity>
6.8604364395

> <CNN_VS>
3.2276782990

> <CNNaffinity_variance>
2.7477612495

$$$$
[H]c1c([H])c(C([H])([H])[H])c([H])c([H])c1N1C([H])([H])c2c(C([H])([H])[H])nc(OC([H])([H])[H])c([H])c2C([H])([H])C1([H])[H]


 20 22  0  0  0  0  0  0  0  0999 V2000
    9.8490   48.8655  133.2912 C   0  0  0  0  0  0  0  0  0  0  0  0
   10.8690   48.2544  132.5769 C   0  0  0  0  0  0  0  0  0  0  0  0
   10.8953   46.8899  132.3814 C   0  0  0  0  0  0  0  0  0  0  0  0
   12.0075   46.3143  131.6145 C   0  0  0  0  0  0  0  0  0  0  0  0
   11.7538   44.9783  131.0478 C   0  0  0  0  0  0  0  0  0  0  0  0
   10.7383   44.2061  131.7213 N   0  0  0  0  0  0  0  0  0  0  0  0
    9.8612   44.7046  132.7373 C   0  0  0  0  0  0  0  0  0  0  0  0
    9.8739   46.1487  132.9190 C   0  0  0  0  0  0  0  0  0  0  0  0
    8.8531   46.7420  133.6315 C   0  0  0  0  0  0  0  0  0  0  0  0
    7.7630   45.8998  134.1986 C   0  0  0  0  0  0  0  0  0  0  0  0
    8.8804   48.0769  133.7899 N   0  0  0  0  0  0  0  0  0  0  0  0
   10.6045   42.8400  131.3385 C   0  0  0  0  0  0  0  0  0  0  0  0
    9.8725   42.4544  130.2132 C   0  0  0  0  0  0  0  0  0  0  0  0
    9.7408   41.1346  129.8399 C   0  0  0  0  0  0  0  0  0  0  0  0
   10.3362   40.1429  130.5768 C   0  0  0  0  0  0  0  0  0  0  0  0
   10.1657   38.7300  130.1338 C   0  0  0  0  0  0  0  0  0  0  0  0
   11.0622   40.4879  131.6878 C   0  0  0  0  0  0  0  0  0  0  0  0
   11.1847   41.7996  132.0464 C   0  0  0  0  0  0  0  0  0  0  0  0
    9.4707   51.0497  132.3638 C   0  0  0  0  0  0  0  0  0  0  0  0
    9.8527   50.2558  133.4715 O   0  0  0  0  0  0  0  0  0  0  0  0
 19 20  1  0  0  0
 20  1  1  0  0  0
  1  2  2  0  0  0
  2  3  1  0  0  0
  3  4  1  0  0  0
  4  5  1  0  0  0
  5  6  1  0  0  0
  6  7  1  0  0  0
  7  8  1  0  0  0
  8  9  1  0  0  0
  9 10  1  0  0  0
  9 11  2  0  0  0
  6 12  1  0  0  0
 12 13  2  0  0  0
 13 14  1  0  0  0
 14 15  2  0  0  0
 15 16  1  0  0  0
 15 17  1  0  0  0
 17 18  2  0  0  0
 11  1  1  0  0  0
 18 12  1  0  0  0
  8  3  2  0  0  0
M  END
> <minimizedAffinity>
10.58577

> <CNNscore>
0.4696706533

> <CNNaffinity>
6.4890799522

> <CNN_VS>
3.0477304459

> <CNNaffinity_variance>
2.1947000027

$$$$
