[H]c1c([H])c([H])c(N2C([H])([H])C([H])([H])N(C(=O)C([H])([H])Sc3nnc([H])n3-c3c([H])c([H])c([H])c([H])c3C([H])([H])[H])C([H])([H])C2([H])[H])c([H])c1[H]


 28 31  0  0  0  0  0  0  0  0999 V2000
    8.6828   46.1423  131.3532 C   0  0  0  0  0  0  0  0  0  0  0  0
    7.3732   46.6969  130.9578 C   0  0  0  0  0  0  0  0  0  0  0  0
    6.3351   46.2707  131.5104 O   0  0  0  0  0  0  0  0  0  0  0  0
    7.2704   47.7001  129.9682 N   0  0  0  0  0  0  0  0  0  0  0  0
    8.4555   48.1756  129.3217 C   0  0  0  0  0  0  0  0  0  0  0  0
    8.1784   49.2680  128.3069 C   0  0  0  0  0  0  0  0  0  0  0  0
    7.1816   50.1953  128.7866 N   0  0  0  0  0  0  0  0  0  0  0  0
    6.1475   49.7856  129.7351 C   0  0  0  0  0  0  0  0  0  0  0  0
    5.9918   48.2650  129.5918 C   0  0  0  0  0  0  0  0  0  0  0  0
    7.1916   51.5262  128.3307 C   0  0  0  0  0  0  0  0  0  0  0  0
    7.0301   52.5684  129.2082 C   0  0  0  0  0  0  0  0  0  0  0  0
    7.0359   53.8687  128.7216 C   0  0  0  0  0  0  0  0  0  0  0  0
    7.2003   54.1431  127.3795 C   0  0  0  0  0  0  0  0  0  0  0  0
    7.3643   53.0915  126.4900 C   0  0  0  0  0  0  0  0  0  0  0  0
    7.3584   51.8032  126.9712 C   0  0  0  0  0  0  0  0  0  0  0  0
    9.6629   45.6348  129.9091 S   0  0  0  0  0  0  0  0  0  0  0  0
   10.3337   43.0491  130.8150 N   0  0  0  0  0  0  0  0  0  0  0  0
   10.2485   41.7802  130.4050 C   0  0  0  0  0  0  0  0  0  0  0  0
    9.6582   41.7927  129.2020 N   0  0  0  0  0  0  0  0  0  0  0  0
    9.3912   43.0276  128.8853 N   0  0  0  0  0  0  0  0  0  0  0  0
    9.8019   43.8315  129.8735 C   0  0  0  0  0  0  0  0  0  0  0  0
    8.6239   43.1209  133.0331 C   0  0  0  0  0  0  0  0  0  0  0  0
   10.0569   43.5221  133.1412 C   0  0  0  0  0  0  0  0  0  0  0  0
   10.5837   43.9434  134.3429 C   0  0  0  0  0  0  0  0  0  0  0  0
   11.9231   44.3107  134.4149 C   0  0  0  0  0  0  0  0  0  0  0  0
   12.7603   44.2716  133.3225 C   0  0  0  0  0  0  0  0  0  0  0  0
   12.2385   43.8514  132.1189 C   0  0  0  0  0  0  0  0  0  0  0  0
   10.8943   43.4833  132.0483 C   0  0  0  0  0  0  0  0  0  0  0  0
 22 23  1  0  0  0
 23 24  2  0  0  0
 24 25  1  0  0  0
 25 26  2  0  0  0
 26 27  1  0  0  0
 27 28  2  0  0  0
 28 17  1  0  0  0
 17 18  1  0  0  0
 18 19  2  0  0  0
 19 20  1  0  0  0
 20 21  2  0  0  0
 21 16  1  0  0  0
 16  1  1  0  0  0
  1  2  1  0  0  0
  2  3  2  0  0  0
  2  4  1  0  0  0
  4  5  1  0  0  0
  5  6  1  0  0  0
  6  7  1  0  0  0
  7 10  1  0  0  0
 10 11  2  0  0  0
 11 12  1  0  0  0
 12 13  2  0  0  0
 13 14  1  0  0  0
 14 15  2  0  0  0
  7  8  1  0  0  0
  8  9  1  0  0  0
 28 23  1  0  0  0
 21 17  1  0  0  0
  9  4  1  0  0  0
 15 10  1  0  0  0
M  END
> <minimizedAffinity>
8.88509

> <CNNscore>
0.3549110591

> <CNNaffinity>
6.9948034286

> <CNN_VS>
2.4825329781

> <CNNaffinity_variance>
0.5747400522

$$$$
[H]c1c([H])c([H])c(N2C([H])([H])C([H])([H])N(C(=O)C([H])([H])Sc3nnc([H])n3-c3c([H])c([H])c([H])c([H])c3C([H])([H])[H])C([H])([H])C2([H])[H])c([H])c1[H]


 28 31  0  0  0  0  0  0  0  0999 V2000
    9.8450   49.8280  133.2459 C   0  0  0  0  0  0  0  0  0  0  0  0
    9.1049   48.7226  133.8855 C   0  0  0  0  0  0  0  0  0  0  0  0
    8.1434   48.9853  134.6413 O   0  0  0  0  0  0  0  0  0  0  0  0
    9.4612   47.3741  133.6595 N   0  0  0  0  0  0  0  0  0  0  0  0
   10.5726   47.0723  132.8097 C   0  0  0  0  0  0  0  0  0  0  0  0
   10.8071   45.5827  132.6486 C   0  0  0  0  0  0  0  0  0  0  0  0
    9.5633   44.8629  132.5135 N   0  0  0  0  0  0  0  0  0  0  0  0
    8.3233   45.3575  133.1090 C   0  0  0  0  0  0  0  0  0  0  0  0
    8.7255   46.2842  134.2650 C   0  0  0  0  0  0  0  0  0  0  0  0
    9.5339   43.6507  131.8000 C   0  0  0  0  0  0  0  0  0  0  0  0
    8.3421   43.0308  131.5211 C   0  0  0  0  0  0  0  0  0  0  0  0
    8.3517   41.8308  130.8230 C   0  0  0  0  0  0  0  0  0  0  0  0
    9.5265   41.2435  130.4006 C   0  0  0  0  0  0  0  0  0  0  0  0
   10.7329   41.8682  130.6807 C   0  0  0  0  0  0  0  0  0  0  0  0
   10.7243   43.0567  131.3724 C   0  0  0  0  0  0  0  0  0  0  0  0
   10.0471   49.5585  131.4597 S   0  0  0  0  0  0  0  0  0  0  0  0
    7.8952   48.7119  129.8444 N   0  0  0  0  0  0  0  0  0  0  0  0
    6.6951   49.1469  129.4494 C   0  0  0  0  0  0  0  0  0  0  0  0
    6.5012   50.3436  130.0202 N   0  0  0  0  0  0  0  0  0  0  0  0
    7.5473   50.6326  130.7404 N   0  0  0  0  0  0  0  0  0  0  0  0
    8.4318   49.6321  130.6485 C   0  0  0  0  0  0  0  0  0  0  0  0
    6.3021   46.4173  130.0585 C   0  0  0  0  0  0  0  0  0  0  0  0
    7.7118   46.3444  129.5751 C   0  0  0  0  0  0  0  0  0  0  0  0
    8.2747   45.1380  129.2189 C   0  0  0  0  0  0  0  0  0  0  0  0
    9.5908   45.0995  128.7709 C   0  0  0  0  0  0  0  0  0  0  0  0
   10.3692   46.2302  128.6652 C   0  0  0  0  0  0  0  0  0  0  0  0
    9.8112   47.4386  129.0202 C   0  0  0  0  0  0  0  0  0  0  0  0
    8.4907   47.4755  129.4696 C   0  0  0  0  0  0  0  0  0  0  0  0
 22 23  1  0  0  0
 23 24  2  0  0  0
 24 25  1  0  0  0
 25 26  2  0  0  0
 26 27  1  0  0  0
 27 28  2  0  0  0
 28 17  1  0  0  0
 17 18  1  0  0  0
 18 19  2  0  0  0
 19 20  1  0  0  0
 20 21  2  0  0  0
 21 16  1  0  0  0
 16  1  1  0  0  0
  1  2  1  0  0  0
  2  3  2  0  0  0
  2  4  1  0  0  0
  4  5  1  0  0  0
  5  6  1  0  0  0
  6  7  1  0  0  0
  7 10  1  0  0  0
 10 11  2  0  0  0
 11 12  1  0  0  0
 12 13  2  0  0  0
 13 14  1  0  0  0
 14 15  2  0  0  0
  7  8  1  0  0  0
  8  9  1  0  0  0
 28 23  1  0  0  0
 21 17  1  0  0  0
  9  4  1  0  0  0
 15 10  1  0  0  0
M  END
> <minimizedAffinity>
-1.43945

> <CNNscore>
0.3263706267

> <CNNaffinity>
7.3340897560

> <CNN_VS>
2.3936314583

> <CNNaffinity_variance>
0.2116561383

$$$$
[H]c1c([H])c([H])c(N2C([H])([H])C([H])([H])N(C(=O)C([H])([H])Sc3nnc([H])n3-c3c([H])c([H])c([H])c([H])c3C([H])([H])[H])C([H])([H])C2([H])[H])c([H])c1[H]


 28 31  0  0  0  0  0  0  0  0999 V2000
   11.4780   44.3526  134.6499 C   0  0  0  0  0  0  0  0  0  0  0  0
   11.7254   45.5953  133.8927 C   0  0  0  0  0  0  0  0  0  0  0  0
   12.9023   45.9772  133.7094 O   0  0  0  0  0  0  0  0  0  0  0  0
   10.6585   46.3606  133.3706 N   0  0  0  0  0  0  0  0  0  0  0  0
    9.3106   45.9349  133.5954 C   0  0  0  0  0  0  0  0  0  0  0  0
    8.2862   46.8473  132.9487 C   0  0  0  0  0  0  0  0  0  0  0  0
    8.7118   47.2753  131.6376 N   0  0  0  0  0  0  0  0  0  0  0  0
   10.1273   47.3867  131.2899 C   0  0  0  0  0  0  0  0  0  0  0  0
   10.8944   47.5678  132.6074 C   0  0  0  0  0  0  0  0  0  0  0  0
    7.7492   47.6030  130.6652 C   0  0  0  0  0  0  0  0  0  0  0  0
    6.8663   46.6580  130.2073 C   0  0  0  0  0  0  0  0  0  0  0  0
    5.9360   47.0147  129.2405 C   0  0  0  0  0  0  0  0  0  0  0  0
    5.8734   48.2936  128.7269 C   0  0  0  0  0  0  0  0  0  0  0  0
    6.7645   49.2513  129.1883 C   0  0  0  0  0  0  0  0  0  0  0  0
    7.6865   48.8988  130.1458 C   0  0  0  0  0  0  0  0  0  0  0  0
   11.4366   42.8976  133.5613 S   0  0  0  0  0  0  0  0  0  0  0  0
    9.6684   43.2638  131.3943 N   0  0  0  0  0  0  0  0  0  0  0  0
    8.3779   43.0813  131.1003 C   0  0  0  0  0  0  0  0  0  0  0  0
    7.7935   42.5657  132.1904 N   0  0  0  0  0  0  0  0  0  0  0  0
    8.6954   42.4370  133.1212 N   0  0  0  0  0  0  0  0  0  0  0  0
    9.8734   42.8649  132.6513 C   0  0  0  0  0  0  0  0  0  0  0  0
    8.8195   43.9522  128.8147 C   0  0  0  0  0  0  0  0  0  0  0  0
   10.2385   44.1291  129.2407 C   0  0  0  0  0  0  0  0  0  0  0  0
   11.1786   44.6384  128.3714 C   0  0  0  0  0  0  0  0  0  0  0  0
   12.4941   44.7933  128.7955 C   0  0  0  0  0  0  0  0  0  0  0  0
   12.9062   44.4556  130.0651 C   0  0  0  0  0  0  0  0  0  0  0  0
   11.9702   43.9459  130.9378 C   0  0  0  0  0  0  0  0  0  0  0  0
   10.6508   43.7910  130.5107 C   0  0  0  0  0  0  0  0  0  0  0  0
 22 23  1  0  0  0
 23 24  2  0  0  0
 24 25  1  0  0  0
 25 26  2  0  0  0
 26 27  1  0  0  0
 27 28  2  0  0  0
 28 17  1  0  0  0
 17 18  1  0  0  0
 18 19  2  0  0  0
 19 20  1  0  0  0
 20 21  2  0  0  0
 21 16  1  0  0  0
 16  1  1  0  0  0
  1  2  1  0  0  0
  2  3  2  0  0  0
  2  4  1  0  0  0
  4  5  1  0  0  0
  5  6  1  0  0  0
  6  7  1  0  0  0
  7 10  1  0  0  0
 10 11  2  0  0  0
 11 12  1  0  0  0
 12 13  2  0  0  0
 13 14  1  0  0  0
 14 15  2  0  0  0
  7  8  1  0  0  0
  8  9  1  0  0  0
 28 23  1  0  0  0
 21 17  1  0  0  0
  9  4  1  0  0  0
 15 10  1  0  0  0
M  END
> <minimizedAffinity>
-6.84258

> <CNNscore>
0.3202506304

> <CNNaffinity>
7.5644087791

> <CNN_VS>
2.4225065708

> <CNNaffinity_variance>
0.2269225866

$$$$
[H]c1c([H])c([H])c(N2C([H])([H])C([H])([H])N(C(=O)C([H])([H])Sc3nnc([H])n3-c3c([H])c([H])c([H])c([H])c3C([H])([H])[H])C([H])([H])C2([H])[H])c([H])c1[H]


 28 31  0  0  0  0  0  0  0  0999 V2000
   10.4170   42.9619  128.2176 C   0  0  0  0  0  0  0  0  0  0  0  0
    9.3147   43.9402  128.1360 C   0  0  0  0  0  0  0  0  0  0  0  0
    8.2054   43.5775  127.6859 O   0  0  0  0  0  0  0  0  0  0  0  0
    9.4886   45.2777  128.5573 N   0  0  0  0  0  0  0  0  0  0  0  0
   10.7627   45.6991  129.0552 C   0  0  0  0  0  0  0  0  0  0  0  0
   10.7770   47.1518  129.4902 C   0  0  0  0  0  0  0  0  0  0  0  0
    9.5630   47.5080  130.1851 N   0  0  0  0  0  0  0  0  0  0  0  0
    8.2975   46.8282  129.9143 C   0  0  0  0  0  0  0  0  0  0  0  0
    8.4056   46.2366  128.5018 C   0  0  0  0  0  0  0  0  0  0  0  0
    9.5853   48.5384  131.1429 C   0  0  0  0  0  0  0  0  0  0  0  0
   10.1754   48.3449  132.3662 C   0  0  0  0  0  0  0  0  0  0  0  0
   10.1704   49.3810  133.2904 C   0  0  0  0  0  0  0  0  0  0  0  0
    9.5889   50.6010  133.0132 C   0  0  0  0  0  0  0  0  0  0  0  0
    8.9920   50.7997  131.7770 C   0  0  0  0  0  0  0  0  0  0  0  0
    8.9964   49.7739  130.8611 C   0  0  0  0  0  0  0  0  0  0  0  0
   10.8847   42.6163  129.9397 S   0  0  0  0  0  0  0  0  0  0  0  0
    9.2479   43.0630  132.1932 N   0  0  0  0  0  0  0  0  0  0  0  0
    8.0073   42.7952  132.6109 C   0  0  0  0  0  0  0  0  0  0  0  0
    7.3991   42.1131  131.6307 N   0  0  0  0  0  0  0  0  0  0  0  0
    8.2389   41.9674  130.6458 N   0  0  0  0  0  0  0  0  0  0  0  0
    9.3993   42.5503  130.9702 C   0  0  0  0  0  0  0  0  0  0  0  0
    8.4427   45.4604  133.3986 C   0  0  0  0  0  0  0  0  0  0  0  0
    9.8417   44.9570  133.5241 C   0  0  0  0  0  0  0  0  0  0  0  0
   10.7844   45.6623  134.2404 C   0  0  0  0  0  0  0  0  0  0  0  0
   12.0809   45.1692  134.3415 C   0  0  0  0  0  0  0  0  0  0  0  0
   12.4714   43.9892  133.7491 C   0  0  0  0  0  0  0  0  0  0  0  0
   11.5328   43.2806  133.0319 C   0  0  0  0  0  0  0  0  0  0  0  0
   10.2325   43.7768  132.9313 C   0  0  0  0  0  0  0  0  0  0  0  0
 22 23  1  0  0  0
 23 24  2  0  0  0
 24 25  1  0  0  0
 25 26  2  0  0  0
 26 27  1  0  0  0
 27 28  2  0  0  0
 28 17  1  0  0  0
 17 18  1  0  0  0
 18 19  2  0  0  0
 19 20  1  0  0  0
 20 21  2  0  0  0
 21 16  1  0  0  0
 16  1  1  0  0  0
  1  2  1  0  0  0
  2  3  2  0  0  0
  2  4  1  0  0  0
  4  5  1  0  0  0
  5  6  1  0  0  0
  6  7  1  0  0  0
  7 10  1  0  0  0
 10 11  2  0  0  0
 11 12  1  0  0  0
 12 13  2  0  0  0
 13 14  1  0  0  0
 14 15  2  0  0  0
  7  8  1  0  0  0
  8  9  1  0  0  0
 28 23  1  0  0  0
 21 17  1  0  0  0
  9  4  1  0  0  0
 15 10  1  0  0  0
M  END
> <minimizedAffinity>
-0.62778

> <CNNscore>
0.3128821850

> <CNNaffinity>
7.2099747658

> <CNN_VS>
2.2558727264

> <CNNaffinity_variance>
0.1657845378

$$$$
[H]c1c([H])c([H])c(N2C([H])([H])C([H])([H])N(C(=O)C([H])([H])Sc3nnc([H])n3-c3c([H])c([H])c([H])c([H])c3C([H])([H])[H])C([H])([H])C2([H])[H])c([H])c1[H]


 28 31  0  0  0  0  0  0  0  0999 V2000
    9.7448   46.2156  129.8689 C   0  0  0  0  0  0  0  0  0  0  0  0
    9.5153   47.6482  129.5969 C   0  0  0  0  0  0  0  0  0  0  0  0
    9.0876   47.9981  128.4747 O   0  0  0  0  0  0  0  0  0  0  0  0
    9.7685   48.6310  130.5800 N   0  0  0  0  0  0  0  0  0  0  0  0
   10.2755   48.2340  131.8583 C   0  0  0  0  0  0  0  0  0  0  0  0
   10.4673   49.4013  132.8073 C   0  0  0  0  0  0  0  0  0  0  0  0
    9.3808   50.3465  132.7098 N   0  0  0  0  0  0  0  0  0  0  0  0
    8.6201   50.5147  131.4729 C   0  0  0  0  0  0  0  0  0  0  0  0
    9.5239   50.0353  130.3282 C   0  0  0  0  0  0  0  0  0  0  0  0
    9.0421   51.1358  133.8242 C   0  0  0  0  0  0  0  0  0  0  0  0
    8.1608   50.6731  134.7684 C   0  0  0  0  0  0  0  0  0  0  0  0
    7.8425   51.4831  135.8501 C   0  0  0  0  0  0  0  0  0  0  0  0
    8.3880   52.7410  136.0032 C   0  0  0  0  0  0  0  0  0  0  0  0
    9.2797   53.2113  135.0504 C   0  0  0  0  0  0  0  0  0  0  0  0
    9.5953   52.4097  133.9786 C   0  0  0  0  0  0  0  0  0  0  0  0
    8.2142   45.2474  129.7155 S   0  0  0  0  0  0  0  0  0  0  0  0
    8.8046   43.3562  131.7233 N   0  0  0  0  0  0  0  0  0  0  0  0
    8.8756   42.0305  131.8743 C   0  0  0  0  0  0  0  0  0  0  0  0
    8.5603   41.4810  130.6935 N   0  0  0  0  0  0  0  0  0  0  0  0
    8.3052   42.4377  129.8472 N   0  0  0  0  0  0  0  0  0  0  0  0
    8.4501   43.6171  130.4633 C   0  0  0  0  0  0  0  0  0  0  0  0
   11.4719   43.6897  132.5128 C   0  0  0  0  0  0  0  0  0  0  0  0
   10.3713   44.4847  133.1317 C   0  0  0  0  0  0  0  0  0  0  0  0
   10.6369   45.4110  134.1168 C   0  0  0  0  0  0  0  0  0  0  0  0
    9.5916   46.1386  134.6756 C   0  0  0  0  0  0  0  0  0  0  0  0
    8.2824   45.9728  134.2827 C   0  0  0  0  0  0  0  0  0  0  0  0
    8.0117   45.0479  133.2985 C   0  0  0  0  0  0  0  0  0  0  0  0
    9.0615   44.3186  132.7389 C   0  0  0  0  0  0  0  0  0  0  0  0
 22 23  1  0  0  0
 23 24  2  0  0  0
 24 25  1  0  0  0
 25 26  2  0  0  0
 26 27  1  0  0  0
 27 28  2  0  0  0
 28 17  1  0  0  0
 17 18  1  0  0  0
 18 19  2  0  0  0
 19 20  1  0  0  0
 20 21  2  0  0  0
 21 16  1  0  0  0
 16  1  1  0  0  0
  1  2  1  0  0  0
  2  3  2  0  0  0
  2  4  1  0  0  0
  4  5  1  0  0  0
  5  6  1  0  0  0
  6  7  1  0  0  0
  7 10  1  0  0  0
 10 11  2  0  0  0
 11 12  1  0  0  0
 12 13  2  0  0  0
 13 14  1  0  0  0
 14 15  2  0  0  0
  7  8  1  0  0  0
  8  9  1  0  0  0
 28 23  1  0  0  0
 21 17  1  0  0  0
  9  4  1  0  0  0
 15 10  1  0  0  0
M  END
> <minimizedAffinity>
18.77218

> <CNNscore>
0.2251264751

> <CNNaffinity>
6.9732351303

> <CNN_VS>
1.5698598623

> <CNNaffinity_variance>
0.2383484840

$$$$
[H]c1c([H])c([H])c(N2C([H])([H])C([H])([H])N(C(=O)C([H])([H])Sc3nnc([H])n3-c3c([H])c([H])c([H])c([H])c3C([H])([H])[H])C([H])([H])C2([H])[H])c([H])c1[H]


 28 31  0  0  0  0  0  0  0  0999 V2000
   11.4105   44.0681  133.7875 C   0  0  0  0  0  0  0  0  0  0  0  0
   11.6755   45.5073  133.5945 C   0  0  0  0  0  0  0  0  0  0  0  0
   12.8411   45.9398  133.7328 O   0  0  0  0  0  0  0  0  0  0  0  0
   10.6382   46.4050  133.2559 N   0  0  0  0  0  0  0  0  0  0  0  0
    9.3008   45.9149  133.1155 C   0  0  0  0  0  0  0  0  0  0  0  0
    8.3123   46.9964  132.7239 C   0  0  0  0  0  0  0  0  0  0  0  0
    8.8719   47.8942  131.7419 N   0  0  0  0  0  0  0  0  0  0  0  0
   10.3105   48.1409  131.6610 C   0  0  0  0  0  0  0  0  0  0  0  0
   10.8947   47.8136  133.0426 C   0  0  0  0  0  0  0  0  0  0  0  0
    8.0204   48.5592  130.8408 C   0  0  0  0  0  0  0  0  0  0  0  0
    8.0022   49.9295  130.7757 C   0  0  0  0  0  0  0  0  0  0  0  0
    7.1423   50.5521  129.8810 C   0  0  0  0  0  0  0  0  0  0  0  0
    6.3052   49.8317  129.0542 C   0  0  0  0  0  0  0  0  0  0  0  0
    6.3218   48.4461  129.1174 C   0  0  0  0  0  0  0  0  0  0  0  0
    7.1731   47.8286  130.0035 C   0  0  0  0  0  0  0  0  0  0  0  0
   12.5075   43.0387  132.7674 S   0  0  0  0  0  0  0  0  0  0  0  0
   11.7436   44.0805  130.2599 N   0  0  0  0  0  0  0  0  0  0  0  0
   12.3060   44.6270  129.1781 C   0  0  0  0  0  0  0  0  0  0  0  0
   13.6264   44.6760  129.4015 N   0  0  0  0  0  0  0  0  0  0  0  0
   13.8651   44.1760  130.5803 N   0  0  0  0  0  0  0  0  0  0  0  0
   12.7085   43.7970  131.1373 C   0  0  0  0  0  0  0  0  0  0  0  0
    9.9839   45.8523  128.9898 C   0  0  0  0  0  0  0  0  0  0  0  0
    9.4828   44.7170  129.8182 C   0  0  0  0  0  0  0  0  0  0  0  0
    8.1310   44.5068  129.9844 C   0  0  0  0  0  0  0  0  0  0  0  0
    7.6920   43.4402  130.7615 C   0  0  0  0  0  0  0  0  0  0  0  0
    8.5606   42.5707  131.3820 C   0  0  0  0  0  0  0  0  0  0  0  0
    9.9128   42.7766  131.2191 C   0  0  0  0  0  0  0  0  0  0  0  0
   10.3517   43.8473  130.4392 C   0  0  0  0  0  0  0  0  0  0  0  0
 22 23  1  0  0  0
 23 24  2  0  0  0
 24 25  1  0  0  0
 25 26  2  0  0  0
 26 27  1  0  0  0
 27 28  2  0  0  0
 28 17  1  0  0  0
 17 18  1  0  0  0
 18 19  2  0  0  0
 19 20  1  0  0  0
 20 21  2  0  0  0
 21 16  1  0  0  0
 16  1  1  0  0  0
  1  2  1  0  0  0
  2  3  2  0  0  0
  2  4  1  0  0  0
  4  5  1  0  0  0
  5  6  1  0  0  0
  6  7  1  0  0  0
  7 10  1  0  0  0
 10 11  2  0  0  0
 11 12  1  0  0  0
 12 13  2  0  0  0
 13 14  1  0  0  0
 14 15  2  0  0  0
  7  8  1  0  0  0
  8  9  1  0  0  0
 28 23  1  0  0  0
 21 17  1  0  0  0
  9  4  1  0  0  0
 15 10  1  0  0  0
M  END
> <minimizedAffinity>
-4.87242

> <CNNscore>
0.2099281847

> <CNNaffinity>
7.4118843079

> <CNN_VS>
1.5559633970

> <CNNaffinity_variance>
0.1236313954

$$$$
[H]c1c([H])c([H])c(N2C([H])([H])C([H])([H])N(C(=O)C([H])([H])Sc3nnc([H])n3-c3c([H])c([H])c([H])c([H])c3C([H])([H])[H])C([H])([H])C2([H])[H])c([H])c1[H]


 28 31  0  0  0  0  0  0  0  0999 V2000
   11.1302   47.7785  130.9475 C   0  0  0  0  0  0  0  0  0  0  0  0
   10.0362   48.7399  130.7074 C   0  0  0  0  0  0  0  0  0  0  0  0
   10.3119   49.9007  130.3316 O   0  0  0  0  0  0  0  0  0  0  0  0
    8.6842   48.3737  130.8932 N   0  0  0  0  0  0  0  0  0  0  0  0
    8.3680   47.0516  131.3411 C   0  0  0  0  0  0  0  0  0  0  0  0
    6.8759   46.8095  131.4642 C   0  0  0  0  0  0  0  0  0  0  0  0
    6.1509   47.4062  130.3679 N   0  0  0  0  0  0  0  0  0  0  0  0
    6.6547   48.5868  129.6685 C   0  0  0  0  0  0  0  0  0  0  0  0
    7.6051   49.3042  130.6376 C   0  0  0  0  0  0  0  0  0  0  0  0
    4.9247   46.8505  129.9593 C   0  0  0  0  0  0  0  0  0  0  0  0
    4.7827   46.3128  128.7050 C   0  0  0  0  0  0  0  0  0  0  0  0
    3.5553   45.7816  128.3326 C   0  0  0  0  0  0  0  0  0  0  0  0
    2.4733   45.7783  129.1886 C   0  0  0  0  0  0  0  0  0  0  0  0
    2.6141   46.3207  130.4575 C   0  0  0  0  0  0  0  0  0  0  0  0
    3.8295   46.8473  130.8271 C   0  0  0  0  0  0  0  0  0  0  0  0
   10.7223   46.1231  130.3174 S   0  0  0  0  0  0  0  0  0  0  0  0
   11.2336   44.6634  132.6764 N   0  0  0  0  0  0  0  0  0  0  0  0
   11.9949   43.6469  133.0915 C   0  0  0  0  0  0  0  0  0  0  0  0
   12.7059   43.2289  132.0353 N   0  0  0  0  0  0  0  0  0  0  0  0
   12.3911   43.9648  131.0077 N   0  0  0  0  0  0  0  0  0  0  0  0
   11.4752   44.8671  131.3797 C   0  0  0  0  0  0  0  0  0  0  0  0
    8.7110   43.5210  133.1007 C   0  0  0  0  0  0  0  0  0  0  0  0
    9.0787   44.8395  133.6946 C   0  0  0  0  0  0  0  0  0  0  0  0
    8.1815   45.5382  134.4730 C   0  0  0  0  0  0  0  0  0  0  0  0
    8.5513   46.7647  135.0146 C   0  0  0  0  0  0  0  0  0  0  0  0
    9.7931   47.3212  134.8051 C   0  0  0  0  0  0  0  0  0  0  0  0
   10.6934   46.6267  134.0276 C   0  0  0  0  0  0  0  0  0  0  0  0
   10.3209   45.3964  133.4848 C   0  0  0  0  0  0  0  0  0  0  0  0
 22 23  1  0  0  0
 23 24  2  0  0  0
 24 25  1  0  0  0
 25 26  2  0  0  0
 26 27  1  0  0  0
 27 28  2  0  0  0
 28 17  1  0  0  0
 17 18  1  0  0  0
 18 19  2  0  0  0
 19 20  1  0  0  0
 20 21  2  0  0  0
 21 16  1  0  0  0
 16  1  1  0  0  0
  1  2  1  0  0  0
  2  3  2  0  0  0
  2  4  1  0  0  0
  4  5  1  0  0  0
  5  6  1  0  0  0
  6  7  1  0  0  0
  7 10  1  0  0  0
 10 11  2  0  0  0
 11 12  1  0  0  0
 12 13  2  0  0  0
 13 14  1  0  0  0
 14 15  2  0  0  0
  7  8  1  0  0  0
  8  9  1  0  0  0
 28 23  1  0  0  0
 21 17  1  0  0  0
  9  4  1  0  0  0
 15 10  1  0  0  0
M  END
> <minimizedAffinity>
14.98505

> <CNNscore>
0.1898173690

> <CNNaffinity>
7.2479734421

> <CNN_VS>
1.3757911921

> <CNNaffinity_variance>
0.3862631917

$$$$
[H]c1c([H])c([H])c(N2C([H])([H])C([H])([H])N(C(=O)C([H])([H])Sc3nnc([H])n3-c3c([H])c([H])c([H])c([H])c3C([H])([H])[H])C([H])([H])C2([H])[H])c([H])c1[H]


 28 31  0  0  0  0  0  0  0  0999 V2000
   10.3980   42.1529  130.3242 C   0  0  0  0  0  0  0  0  0  0  0  0
    9.0613   42.7200  130.0587 C   0  0  0  0  0  0  0  0  0  0  0  0
    8.0510   41.9936  130.1862 O   0  0  0  0  0  0  0  0  0  0  0  0
    8.9015   44.0674  129.6642 N   0  0  0  0  0  0  0  0  0  0  0  0
   10.0578   44.8948  129.4998 C   0  0  0  0  0  0  0  0  0  0  0  0
    9.7156   46.3175  129.1012 C   0  0  0  0  0  0  0  0  0  0  0  0
    8.5605   46.8042  129.8170 N   0  0  0  0  0  0  0  0  0  0  0  0
    7.5184   45.8981  130.2964 C   0  0  0  0  0  0  0  0  0  0  0  0
    7.5923   44.6366  129.4245 C   0  0  0  0  0  0  0  0  0  0  0  0
    8.4204   48.1832  130.0580 C   0  0  0  0  0  0  0  0  0  0  0  0
    9.1591   48.8023  131.0343 C   0  0  0  0  0  0  0  0  0  0  0  0
    8.9879   50.1629  131.2506 C   0  0  0  0  0  0  0  0  0  0  0  0
    8.0958   50.9113  130.5107 C   0  0  0  0  0  0  0  0  0  0  0  0
    7.3479   50.2882  129.5226 C   0  0  0  0  0  0  0  0  0  0  0  0
    7.5167   48.9405  129.3078 C   0  0  0  0  0  0  0  0  0  0  0  0
   10.9562   42.5083  132.0171 S   0  0  0  0  0  0  0  0  0  0  0  0
   11.3489   45.2443  132.5797 N   0  0  0  0  0  0  0  0  0  0  0  0
   12.2729   46.1919  132.3961 C   0  0  0  0  0  0  0  0  0  0  0  0
   13.3006   45.6220  131.7520 N   0  0  0  0  0  0  0  0  0  0  0  0
   13.0158   44.3676  131.5474 N   0  0  0  0  0  0  0  0  0  0  0  0
   11.8047   44.1055  132.0535 C   0  0  0  0  0  0  0  0  0  0  0  0
   10.9706   47.6528  133.9598 C   0  0  0  0  0  0  0  0  0  0  0  0
    9.9067   46.6078  133.9109 C   0  0  0  0  0  0  0  0  0  0  0  0
    8.6999   46.7982  134.5485 C   0  0  0  0  0  0  0  0  0  0  0  0
    7.7259   45.8075  134.4857 C   0  0  0  0  0  0  0  0  0  0  0  0
    7.9155   44.6262  133.8043 C   0  0  0  0  0  0  0  0  0  0  0  0
    9.1202   44.4310  133.1654 C   0  0  0  0  0  0  0  0  0  0  0  0
   10.0965   45.4259  133.2294 C   0  0  0  0  0  0  0  0  0  0  0  0
 22 23  1  0  0  0
 23 24  2  0  0  0
 24 25  1  0  0  0
 25 26  2  0  0  0
 26 27  1  0  0  0
 27 28  2  0  0  0
 28 17  1  0  0  0
 17 18  1  0  0  0
 18 19  2  0  0  0
 19 20  1  0  0  0
 20 21  2  0  0  0
 21 16  1  0  0  0
 16  1  1  0  0  0
  1  2  1  0  0  0
  2  3  2  0  0  0
  2  4  1  0  0  0
  4  5  1  0  0  0
  5  6  1  0  0  0
  6  7  1  0  0  0
  7 10  1  0  0  0
 10 11  2  0  0  0
 11 12  1  0  0  0
 12 13  2  0  0  0
 13 14  1  0  0  0
 14 15  2  0  0  0
  7  8  1  0  0  0
  8  9  1  0  0  0
 28 23  1  0  0  0
 21 17  1  0  0  0
  9  4  1  0  0  0
 15 10  1  0  0  0
M  END
> <minimizedAffinity>
-5.11833

> <CNNscore>
0.1882891059

> <CNNaffinity>
7.3681764603

> <CNN_VS>
1.3873473406

> <CNNaffinity_variance>
0.1321459562

$$$$
[H]c1c([H])c([H])c(N2C([H])([H])C([H])([H])N(C(=O)C([H])([H])Sc3nnc([H])n3-c3c([H])c([H])c([H])c([H])c3C([H])([H])[H])C([H])([H])C2([H])[H])c([H])c1[H]


 28 31  0  0  0  0  0  0  0  0999 V2000
   11.8726   45.5506  134.1716 C   0  0  0  0  0  0  0  0  0  0  0  0
   11.2018   46.8648  134.1299 C   0  0  0  0  0  0  0  0  0  0  0  0
   11.7250   47.8388  134.7150 O   0  0  0  0  0  0  0  0  0  0  0  0
    9.9811   47.0435  133.4411 N   0  0  0  0  0  0  0  0  0  0  0  0
    9.3717   45.9259  132.7867 C   0  0  0  0  0  0  0  0  0  0  0  0
    8.0841   46.2885  132.0722 C   0  0  0  0  0  0  0  0  0  0  0  0
    8.1916   47.5623  131.4019 N   0  0  0  0  0  0  0  0  0  0  0  0
    9.0908   48.6088  131.8849 C   0  0  0  0  0  0  0  0  0  0  0  0
    9.3294   48.3345  133.3765 C   0  0  0  0  0  0  0  0  0  0  0  0
    7.4109   47.8165  130.2594 C   0  0  0  0  0  0  0  0  0  0  0  0
    7.7365   48.8361  129.4012 C   0  0  0  0  0  0  0  0  0  0  0  0
    6.9378   49.0638  128.2886 C   0  0  0  0  0  0  0  0  0  0  0  0
    5.8253   48.2930  128.0208 C   0  0  0  0  0  0  0  0  0  0  0  0
    5.4940   47.2612  128.8865 C   0  0  0  0  0  0  0  0  0  0  0  0
    6.2844   47.0350  129.9888 C   0  0  0  0  0  0  0  0  0  0  0  0
   12.5051   45.0652  132.5382 S   0  0  0  0  0  0  0  0  0  0  0  0
   11.1374   43.0706  131.0864 N   0  0  0  0  0  0  0  0  0  0  0  0
   10.9145   41.7543  131.1401 C   0  0  0  0  0  0  0  0  0  0  0  0
   11.5554   41.2890  132.2211 N   0  0  0  0  0  0  0  0  0  0  0  0
   12.1506   42.2867  132.8102 N   0  0  0  0  0  0  0  0  0  0  0  0
   11.9063   43.4092  132.1234 C   0  0  0  0  0  0  0  0  0  0  0  0
    8.3846   42.9838  130.5729 C   0  0  0  0  0  0  0  0  0  0  0  0
    9.2863   43.9126  129.8310 C   0  0  0  0  0  0  0  0  0  0  0  0
    8.7877   44.7592  128.8646 C   0  0  0  0  0  0  0  0  0  0  0  0
    9.6511   45.6150  128.1891 C   0  0  0  0  0  0  0  0  0  0  0  0
   11.0031   45.6558  128.4465 C   0  0  0  0  0  0  0  0  0  0  0  0
   11.5064   44.8114  129.4115 C   0  0  0  0  0  0  0  0  0  0  0  0
   10.6389   43.9532  130.0882 C   0  0  0  0  0  0  0  0  0  0  0  0
 22 23  1  0  0  0
 23 24  2  0  0  0
 24 25  1  0  0  0
 25 26  2  0  0  0
 26 27  1  0  0  0
 27 28  2  0  0  0
 28 17  1  0  0  0
 17 18  1  0  0  0
 18 19  2  0  0  0
 19 20  1  0  0  0
 20 21  2  0  0  0
 21 16  1  0  0  0
 16  1  1  0  0  0
  1  2  1  0  0  0
  2  3  2  0  0  0
  2  4  1  0  0  0
  4  5  1  0  0  0
  5  6  1  0  0  0
  6  7  1  0  0  0
  7 10  1  0  0  0
 10 11  2  0  0  0
 11 12  1  0  0  0
 12 13  2  0  0  0
 13 14  1  0  0  0
 14 15  2  0  0  0
  7  8  1  0  0  0
  8  9  1  0  0  0
 28 23  1  0  0  0
 21 17  1  0  0  0
  9  4  1  0  0  0
 15 10  1  0  0  0
M  END
> <minimizedAffinity>
-3.46897

> <CNNscore>
0.1567001045

> <CNNaffinity>
7.1601381302

> <CNN_VS>
1.1219943762

> <CNNaffinity_variance>
0.1218683496

$$$$
[H]OC(C([H])([H])[H])(C([H])([H])[H])C([H])([H])C([H])([H])N([H])S(=O)(=O)c1c([H])c([H])c(C([H])([H])[H])c(-c2c([H])nc(N([H])[H])c(-c3onc(C([H])([H])[H])c3[H])c2[H])c1[H]


 34 36  0  0  0  0  0  0  0  0999 V2000
   10.2387   46.3417  133.5684 C   0  0  0  0  0  0  0  0  0  0  0  0
   10.9674   45.4521  132.7699 C   0  0  0  0  0  0  0  0  0  0  0  0
   11.3168   44.1952  133.2166 C   0  0  0  0  0  0  0  0  0  0  0  0
   10.9532   43.7806  134.4722 C   0  0  0  0  0  0  0  0  0  0  0  0
   10.2353   44.6370  135.2780 C   0  0  0  0  0  0  0  0  0  0  0  0
    9.8805   45.9193  134.8175 C   0  0  0  0  0  0  0  0  0  0  0  0
    9.0887   46.8171  135.7003 C   0  0  0  0  0  0  0  0  0  0  0  0
    8.6026   49.0951  131.6660 C   0  0  0  0  0  0  0  0  0  0  0  0
    8.9039   47.8076  132.1333 C   0  0  0  0  0  0  0  0  0  0  0  0
    9.8955   47.6731  133.0819 C   0  0  0  0  0  0  0  0  0  0  0  0
   10.5422   48.8109  133.5239 C   0  0  0  0  0  0  0  0  0  0  0  0
   10.2430   50.0321  133.0683 N   0  0  0  0  0  0  0  0  0  0  0  0
    9.2646   50.1820  132.1302 C   0  0  0  0  0  0  0  0  0  0  0  0
    8.9818   51.4893  131.6777 N   0  0  0  0  0  0  0  0  0  0  0  0
    9.4673   51.9361  130.8659 H   0  0  0  0  0  0  0  0  0  0  0  0
    8.2619   52.0600  132.1532 H   0  0  0  0  0  0  0  0  0  0  0  0
    5.2759   48.1531  127.9516 C   0  0  0  0  0  0  0  0  0  0  0  0
    6.0707   48.7969  129.0408 C   0  0  0  0  0  0  0  0  0  0  0  0
    7.1153   48.2152  129.7846 C   0  0  0  0  0  0  0  0  0  0  0  0
    7.5370   49.1691  130.6572 C   0  0  0  0  0  0  0  0  0  0  0  0
    6.7996   50.2532  130.4568 O   0  0  0  0  0  0  0  0  0  0  0  0
    5.9561   50.0363  129.5256 N   0  0  0  0  0  0  0  0  0  0  0  0
   12.2362   43.1209  132.1612 S   0  0  0  0  0  0  0  0  0  0  0  0
   13.4208   42.6317  132.9625 O   0  0  0  0  0  0  0  0  0  0  0  0
   11.3644   41.9974  131.7242 O   0  0  0  0  0  0  0  0  0  0  0  0
   12.8349   44.0544  130.8671 N   0  0  0  0  0  0  0  0  0  0  0  0
   13.8270   43.7244  130.6802 H   0  0  0  0  0  0  0  0  0  0  0  0
   12.0395   43.9190  129.6637 C   0  0  0  0  0  0  0  0  0  0  0  0
   10.8770   44.8570  129.6344 C   0  0  0  0  0  0  0  0  0  0  0  0
    9.5718   44.1824  129.3742 C   0  0  0  0  0  0  0  0  0  0  0  0
    8.3784   45.0815  129.4026 C   0  0  0  0  0  0  0  0  0  0  0  0
    9.6329   43.4982  128.0302 C   0  0  0  0  0  0  0  0  0  0  0  0
    9.3765   43.1820  130.3285 O   0  0  0  0  0  0  0  0  0  0  0  0
    8.9413   42.3923  129.9494 H   0  0  0  0  0  0  0  0  0  0  0  0
 17 18  1  0  0  0
 18 19  1  0  0  0
 19 20  2  0  0  0
 20  8  1  0  0  0
  8  9  2  0  0  0
  9 10  1  0  0  0
 10  1  1  0  0  0
  1  2  2  0  0  0
  2  3  1  0  0  0
  3 23  1  0  0  0
 23 24  2  0  0  0
 23 25  2  0  0  0
 23 26  1  0  0  0
 26 28  1  0  0  0
 28 29  1  0  0  0
 29 30  1  0  0  0
 30 31  1  0  0  0
 30 32  1  0  0  0
 30 33  1  0  0  0
  3  4  2  0  0  0
  4  5  1  0  0  0
  5  6  2  0  0  0
  6  7  1  0  0  0
 10 11  2  0  0  0
 11 12  1  0  0  0
 12 13  2  0  0  0
 13 14  1  0  0  0
 20 21  1  0  0  0
 21 22  1  0  0  0
 22 18  2  0  0  0
 13  8  1  0  0  0
  6  1  1  0  0  0
 26 27  1  0  0  0
 33 34  1  0  0  0
 14 15  1  0  0  0
 14 16  1  0  0  0
M  END
> <minimizedAffinity>
-2.79137

> <CNNscore>
0.5110282302

> <CNNaffinity>
7.9867196083

> <CNN_VS>
4.0814390182

> <CNNaffinity_variance>
0.5776932836

$$$$
[H]OC(C([H])([H])[H])(C([H])([H])[H])C([H])([H])C([H])([H])N([H])S(=O)(=O)c1c([H])c([H])c(C([H])([H])[H])c(-c2c([H])nc(N([H])[H])c(-c3onc(C([H])([H])[H])c3[H])c2[H])c1[H]


 34 36  0  0  0  0  0  0  0  0999 V2000
    8.7536   47.7023  130.1702 C   0  0  0  0  0  0  0  0  0  0  0  0
    9.1446   48.0926  131.4565 C   0  0  0  0  0  0  0  0  0  0  0  0
    8.8937   49.3602  131.9380 C   0  0  0  0  0  0  0  0  0  0  0  0
    8.2455   50.2821  131.1567 C   0  0  0  0  0  0  0  0  0  0  0  0
    7.8498   49.9230  129.8868 C   0  0  0  0  0  0  0  0  0  0  0  0
    8.1078   48.6276  129.3996 C   0  0  0  0  0  0  0  0  0  0  0  0
    7.6530   48.2596  128.0321 C   0  0  0  0  0  0  0  0  0  0  0  0
    9.6090   44.0777  130.0797 C   0  0  0  0  0  0  0  0  0  0  0  0
    9.3131   45.3548  130.5780 C   0  0  0  0  0  0  0  0  0  0  0  0
    9.0452   46.3618  129.6751 C   0  0  0  0  0  0  0  0  0  0  0  0
    9.0817   46.0636  128.3268 C   0  0  0  0  0  0  0  0  0  0  0  0
    9.3655   44.8402  127.8673 N   0  0  0  0  0  0  0  0  0  0  0  0
    9.6325   43.8334  128.7475 C   0  0  0  0  0  0  0  0  0  0  0  0
    9.9270   42.5578  128.2183 N   0  0  0  0  0  0  0  0  0  0  0  0
   10.8941   42.2459  127.9696 H   0  0  0  0  0  0  0  0  0  0  0  0
    9.1680   41.8738  128.0568 H   0  0  0  0  0  0  0  0  0  0  0  0
    9.5560   41.0543  134.1549 C   0  0  0  0  0  0  0  0  0  0  0  0
    9.8946   41.7114  132.8564 C   0  0  0  0  0  0  0  0  0  0  0  0
    9.2281   42.7975  132.2573 C   0  0  0  0  0  0  0  0  0  0  0  0
    9.8845   43.0508  131.0936 C   0  0  0  0  0  0  0  0  0  0  0  0
   10.8793   42.1792  130.9938 O   0  0  0  0  0  0  0  0  0  0  0  0
   10.8829   41.4091  132.0102 N   0  0  0  0  0  0  0  0  0  0  0  0
    9.4125   49.7901  133.5688 S   0  0  0  0  0  0  0  0  0  0  0  0
   10.3945   50.9304  133.4273 O   0  0  0  0  0  0  0  0  0  0  0  0
    8.2250   50.1819  134.3746 O   0  0  0  0  0  0  0  0  0  0  0  0
   10.2556   48.4561  134.2124 N   0  0  0  0  0  0  0  0  0  0  0  0
   10.1019   47.6424  133.5472 H   0  0  0  0  0  0  0  0  0  0  0  0
   11.6750   48.7077  134.3576 C   0  0  0  0  0  0  0  0  0  0  0  0
   12.2105   48.2386  135.6713 C   0  0  0  0  0  0  0  0  0  0  0  0
   13.4454   48.9561  136.1032 C   0  0  0  0  0  0  0  0  0  0  0  0
   13.8037   50.1505  135.2795 C   0  0  0  0  0  0  0  0  0  0  0  0
   13.2842   49.3877  137.5406 C   0  0  0  0  0  0  0  0  0  0  0  0
   14.5247   48.0711  136.0655 O   0  0  0  0  0  0  0  0  0  0  0  0
   15.1502   48.2227  136.8020 H   0  0  0  0  0  0  0  0  0  0  0  0
 17 18  1  0  0  0
 18 19  1  0  0  0
 19 20  2  0  0  0
 20  8  1  0  0  0
  8  9  2  0  0  0
  9 10  1  0  0  0
 10  1  1  0  0  0
  1  2  2  0  0  0
  2  3  1  0  0  0
  3 23  1  0  0  0
 23 24  2  0  0  0
 23 25  2  0  0  0
 23 26  1  0  0  0
 26 28  1  0  0  0
 28 29  1  0  0  0
 29 30  1  0  0  0
 30 31  1  0  0  0
 30 32  1  0  0  0
 30 33  1  0  0  0
  3  4  2  0  0  0
  4  5  1  0  0  0
  5  6  2  0  0  0
  6  7  1  0  0  0
 10 11  2  0  0  0
 11 12  1  0  0  0
 12 13  2  0  0  0
 13 14  1  0  0  0
 20 21  1  0  0  0
 21 22  1  0  0  0
 22 18  2  0  0  0
 13  8  1  0  0  0
  6  1  1  0  0  0
 26 27  1  0  0  0
 33 34  1  0  0  0
 14 15  1  0  0  0
 14 16  1  0  0  0
M  END
> <minimizedAffinity>
17.08831

> <CNNscore>
0.4863446057

> <CNNaffinity>
7.3042540550

> <CNN_VS>
3.5523846149

> <CNNaffinity_variance>
1.9419281483

$$$$
[H]OC(C([H])([H])[H])(C([H])([H])[H])C([H])([H])C([H])([H])N([H])S(=O)(=O)c1c([H])c([H])c(C([H])([H])[H])c(-c2c([H])nc(N([H])[H])c(-c3onc(C([H])([H])[H])c3[H])c2[H])c1[H]


 34 36  0  0  0  0  0  0  0  0999 V2000
    9.3624   45.6726  129.1068 C   0  0  0  0  0  0  0  0  0  0  0  0
    9.0125   44.6344  129.9784 C   0  0  0  0  0  0  0  0  0  0  0  0
    9.4747   43.3479  129.7973 C   0  0  0  0  0  0  0  0  0  0  0  0
   10.3003   43.0506  128.7435 C   0  0  0  0  0  0  0  0  0  0  0  0
   10.6600   44.0545  127.8713 C   0  0  0  0  0  0  0  0  0  0  0  0
   10.1859   45.3666  128.0603 C   0  0  0  0  0  0  0  0  0  0  0  0
   10.6049   46.4359  127.1151 C   0  0  0  0  0  0  0  0  0  0  0  0
    8.7593   49.0417  130.5775 C   0  0  0  0  0  0  0  0  0  0  0  0
    9.2812   47.7531  130.3933 C   0  0  0  0  0  0  0  0  0  0  0  0
    8.8474   47.0222  129.3076 C   0  0  0  0  0  0  0  0  0  0  0  0
    7.9216   47.5941  128.4568 C   0  0  0  0  0  0  0  0  0  0  0  0
    7.4334   48.8247  128.6461 N   0  0  0  0  0  0  0  0  0  0  0  0
    7.8526   49.5604  129.7151 C   0  0  0  0  0  0  0  0  0  0  0  0
    7.3109   50.8545  129.8761 N   0  0  0  0  0  0  0  0  0  0  0  0
    6.4359   51.0504  130.4150 H   0  0  0  0  0  0  0  0  0  0  0  0
    7.7812   51.6718  129.4508 H   0  0  0  0  0  0  0  0  0  0  0  0
    9.8831   52.5185  134.0989 C   0  0  0  0  0  0  0  0  0  0  0  0
    9.7743   51.2545  133.3096 C   0  0  0  0  0  0  0  0  0  0  0  0
    9.0866   51.0707  132.0947 C   0  0  0  0  0  0  0  0  0  0  0  0
    9.2626   49.7665  131.7521 C   0  0  0  0  0  0  0  0  0  0  0  0
   10.0050   49.1990  132.6935 O   0  0  0  0  0  0  0  0  0  0  0  0
   10.2982   50.0580  133.5891 N   0  0  0  0  0  0  0  0  0  0  0  0
    8.9967   42.0836  130.9316 S   0  0  0  0  0  0  0  0  0  0  0  0
    7.6918   41.5138  130.4245 O   0  0  0  0  0  0  0  0  0  0  0  0
   10.0638   41.0488  130.9918 O   0  0  0  0  0  0  0  0  0  0  0  0
    8.6896   42.8259  132.4347 N   0  0  0  0  0  0  0  0  0  0  0  0
    8.0048   42.2018  132.9541 H   0  0  0  0  0  0  0  0  0  0  0  0
    9.8891   43.0023  133.2277 C   0  0  0  0  0  0  0  0  0  0  0  0
   11.1122   43.1801  132.3883 C   0  0  0  0  0  0  0  0  0  0  0  0
   11.9014   44.3985  132.7335 C   0  0  0  0  0  0  0  0  0  0  0  0
   11.1236   45.6745  132.7417 C   0  0  0  0  0  0  0  0  0  0  0  0
   12.5327   44.2054  134.0908 C   0  0  0  0  0  0  0  0  0  0  0  0
   12.9463   44.5404  131.8182 O   0  0  0  0  0  0  0  0  0  0  0  0
   13.7618   44.8769  132.2407 H   0  0  0  0  0  0  0  0  0  0  0  0
 17 18  1  0  0  0
 18 19  1  0  0  0
 19 20  2  0  0  0
 20  8  1  0  0  0
  8  9  2  0  0  0
  9 10  1  0  0  0
 10  1  1  0  0  0
  1  2  2  0  0  0
  2  3  1  0  0  0
  3 23  1  0  0  0
 23 24  2  0  0  0
 23 25  2  0  0  0
 23 26  1  0  0  0
 26 28  1  0  0  0
 28 29  1  0  0  0
 29 30  1  0  0  0
 30 31  1  0  0  0
 30 32  1  0  0  0
 30 33  1  0  0  0
  3  4  2  0  0  0
  4  5  1  0  0  0
  5  6  2  0  0  0
  6  7  1  0  0  0
 10 11  2  0  0  0
 11 12  1  0  0  0
 12 13  2  0  0  0
 13 14  1  0  0  0
 20 21  1  0  0  0
 21 22  1  0  0  0
 22 18  2  0  0  0
 13  8  1  0  0  0
  6  1  1  0  0  0
 26 27  1  0  0  0
 33 34  1  0  0  0
 14 15  1  0  0  0
 14 16  1  0  0  0
M  END
> <minimizedAffinity>
1.52414

> <CNNscore>
0.4407722950

> <CNNaffinity>
7.6851859093

> <CNN_VS>
3.3874170780

> <CNNaffinity_variance>
0.9495140910

$$$$
[H]OC(C([H])([H])[H])(C([H])([H])[H])C([H])([H])C([H])([H])N([H])S(=O)(=O)c1c([H])c([H])c(C([H])([H])[H])c(-c2c([H])nc(N([H])[H])c(-c3onc(C([H])([H])[H])c3[H])c2[H])c1[H]


 34 36  0  0  0  0  0  0  0  0999 V2000
   10.2298   46.6062  132.7250 C   0  0  0  0  0  0  0  0  0  0  0  0
    9.9862   45.2574  132.4402 C   0  0  0  0  0  0  0  0  0  0  0  0
   10.5583   44.2444  133.1806 C   0  0  0  0  0  0  0  0  0  0  0  0
   11.3917   44.5388  134.2290 C   0  0  0  0  0  0  0  0  0  0  0  0
   11.6475   45.8586  134.5304 C   0  0  0  0  0  0  0  0  0  0  0  0
   11.0609   46.8894  133.7719 C   0  0  0  0  0  0  0  0  0  0  0  0
   11.3385   48.3060  134.1303 C   0  0  0  0  0  0  0  0  0  0  0  0
    7.8230   48.4821  130.5882 C   0  0  0  0  0  0  0  0  0  0  0  0
    8.3751   47.4622  131.3767 C   0  0  0  0  0  0  0  0  0  0  0  0
    9.6279   47.6610  131.9173 C   0  0  0  0  0  0  0  0  0  0  0  0
   10.2761   48.8524  131.6557 C   0  0  0  0  0  0  0  0  0  0  0  0
    9.7357   49.8156  130.9015 N   0  0  0  0  0  0  0  0  0  0  0  0
    8.4975   49.6345  130.3598 C   0  0  0  0  0  0  0  0  0  0  0  0
    7.9657   50.6775  129.5705 N   0  0  0  0  0  0  0  0  0  0  0  0
    8.1201   50.7561  128.5388 H   0  0  0  0  0  0  0  0  0  0  0  0
    7.3891   51.4175  130.0063 H   0  0  0  0  0  0  0  0  0  0  0  0
    3.4024   46.3935  129.2288 C   0  0  0  0  0  0  0  0  0  0  0  0
    4.5473   47.3320  129.4313 C   0  0  0  0  0  0  0  0  0  0  0  0
    5.7496   47.0669  130.1147 C   0  0  0  0  0  0  0  0  0  0  0  0
    6.4867   48.2074  130.0430 C   0  0  0  0  0  0  0  0  0  0  0  0
    5.7807   49.1017  129.3638 O   0  0  0  0  0  0  0  0  0  0  0  0
    4.6645   48.5951  129.0127 N   0  0  0  0  0  0  0  0  0  0  0  0
   10.2111   42.5637  132.7704 S   0  0  0  0  0  0  0  0  0  0  0  0
   11.4244   42.0335  132.0416 O   0  0  0  0  0  0  0  0  0  0  0  0
    9.9396   41.7999  134.0178 O   0  0  0  0  0  0  0  0  0  0  0  0
    8.9045   42.5573  131.6762 N   0  0  0  0  0  0  0  0  0  0  0  0
    8.3690   43.4619  131.8280 H   0  0  0  0  0  0  0  0  0  0  0  0
    9.3313   42.4675  130.2946 C   0  0  0  0  0  0  0  0  0  0  0  0
    9.1259   43.7437  129.5453 C   0  0  0  0  0  0  0  0  0  0  0  0
   10.3636   44.2560  128.8880 C   0  0  0  0  0  0  0  0  0  0  0  0
   10.6312   43.7032  127.5255 C   0  0  0  0  0  0  0  0  0  0  0  0
   10.2824   45.7603  128.7947 C   0  0  0  0  0  0  0  0  0  0  0  0
   11.4648   43.9597  129.6937 O   0  0  0  0  0  0  0  0  0  0  0  0
   12.1316   44.6752  129.6822 H   0  0  0  0  0  0  0  0  0  0  0  0
 17 18  1  0  0  0
 18 19  1  0  0  0
 19 20  2  0  0  0
 20  8  1  0  0  0
  8  9  2  0  0  0
  9 10  1  0  0  0
 10  1  1  0  0  0
  1  2  2  0  0  0
  2  3  1  0  0  0
  3 23  1  0  0  0
 23 24  2  0  0  0
 23 25  2  0  0  0
 23 26  1  0  0  0
 26 28  1  0  0  0
 28 29  1  0  0  0
 29 30  1  0  0  0
 30 31  1  0  0  0
 30 32  1  0  0  0
 30 33  1  0  0  0
  3  4  2  0  0  0
  4  5  1  0  0  0
  5  6  2  0  0  0
  6  7  1  0  0  0
 10 11  2  0  0  0
 11 12  1  0  0  0
 12 13  2  0  0  0
 13 14  1  0  0  0
 20 21  1  0  0  0
 21 22  1  0  0  0
 22 18  2  0  0  0
 13  8  1  0  0  0
  6  1  1  0  0  0
 26 27  1  0  0  0
 33 34  1  0  0  0
 14 15  1  0  0  0
 14 16  1  0  0  0
M  END
> <minimizedAffinity>
-0.77375

> <CNNscore>
0.4134143889

> <CNNaffinity>
7.9330620766

> <CNN_VS>
3.2796421051

> <CNNaffinity_variance>
0.3003875613

$$$$
[H]OC(C([H])([H])[H])(C([H])([H])[H])C([H])([H])C([H])([H])N([H])S(=O)(=O)c1c([H])c([H])c(C([H])([H])[H])c(-c2c([H])nc(N([H])[H])c(-c3onc(C([H])([H])[H])c3[H])c2[H])c1[H]


 34 36  0  0  0  0  0  0  0  0999 V2000
    9.5522   45.1080  129.6235 C   0  0  0  0  0  0  0  0  0  0  0  0
    9.7141   44.3740  130.8046 C   0  0  0  0  0  0  0  0  0  0  0  0
   10.5453   43.2756  130.8684 C   0  0  0  0  0  0  0  0  0  0  0  0
   11.2434   42.8701  129.7598 C   0  0  0  0  0  0  0  0  0  0  0  0
   11.1020   43.5756  128.5849 C   0  0  0  0  0  0  0  0  0  0  0  0
   10.2524   44.6967  128.5247 C   0  0  0  0  0  0  0  0  0  0  0  0
   10.1325   45.4520  127.2490 C   0  0  0  0  0  0  0  0  0  0  0  0
    8.0928   48.4809  130.2327 C   0  0  0  0  0  0  0  0  0  0  0  0
    8.9797   47.3955  130.2791 C   0  0  0  0  0  0  0  0  0  0  0  0
    8.6540   46.2560  129.5744 C   0  0  0  0  0  0  0  0  0  0  0  0
    7.4723   46.2397  128.8592 C   0  0  0  0  0  0  0  0  0  0  0  0
    6.6369   47.2835  128.8249 N   0  0  0  0  0  0  0  0  0  0  0  0
    6.9448   48.4178  129.5164 C   0  0  0  0  0  0  0  0  0  0  0  0
    6.0342   49.4951  129.4519 N   0  0  0  0  0  0  0  0  0  0  0  0
    5.2370   49.6169  130.1182 H   0  0  0  0  0  0  0  0  0  0  0  0
    6.1346   50.2178  128.7187 H   0  0  0  0  0  0  0  0  0  0  0  0
   10.0281   51.6933  133.6512 C   0  0  0  0  0  0  0  0  0  0  0  0
    9.3272   51.0969  132.4741 C   0  0  0  0  0  0  0  0  0  0  0  0
    9.2193   49.7295  132.1557 C   0  0  0  0  0  0  0  0  0  0  0  0
    8.4987   49.6633  131.0044 C   0  0  0  0  0  0  0  0  0  0  0  0
    8.1912   50.9038  130.6494 O   0  0  0  0  0  0  0  0  0  0  0  0
    8.6694   51.7273  131.4974 N   0  0  0  0  0  0  0  0  0  0  0  0
   10.7059   42.3927  132.3877 S   0  0  0  0  0  0  0  0  0  0  0  0
    9.3704   42.4862  133.0892 O   0  0  0  0  0  0  0  0  0  0  0  0
   11.0794   40.9820  132.0987 O   0  0  0  0  0  0  0  0  0  0  0  0
   11.8532   43.2131  133.3443 N   0  0  0  0  0  0  0  0  0  0  0  0
   12.4927   43.7384  132.6785 H   0  0  0  0  0  0  0  0  0  0  0  0
   11.2450   44.1430  134.2740 C   0  0  0  0  0  0  0  0  0  0  0  0
   11.1811   45.5353  133.7356 C   0  0  0  0  0  0  0  0  0  0  0  0
    9.9919   46.3036  134.2065 C   0  0  0  0  0  0  0  0  0  0  0  0
    8.6982   45.9247  133.5614 C   0  0  0  0  0  0  0  0  0  0  0  0
    9.8583   46.1334  135.7002 C   0  0  0  0  0  0  0  0  0  0  0  0
   10.2046   47.6635  133.9720 O   0  0  0  0  0  0  0  0  0  0  0  0
    9.8400   48.2214  134.6880 H   0  0  0  0  0  0  0  0  0  0  0  0
 17 18  1  0  0  0
 18 19  1  0  0  0
 19 20  2  0  0  0
 20  8  1  0  0  0
  8  9  2  0  0  0
  9 10  1  0  0  0
 10  1  1  0  0  0
  1  2  2  0  0  0
  2  3  1  0  0  0
  3 23  1  0  0  0
 23 24  2  0  0  0
 23 25  2  0  0  0
 23 26  1  0  0  0
 26 28  1  0  0  0
 28 29  1  0  0  0
 29 30  1  0  0  0
 30 31  1  0  0  0
 30 32  1  0  0  0
 30 33  1  0  0  0
  3  4  2  0  0  0
  4  5  1  0  0  0
  5  6  2  0  0  0
  6  7  1  0  0  0
 10 11  2  0  0  0
 11 12  1  0  0  0
 12 13  2  0  0  0
 13 14  1  0  0  0
 20 21  1  0  0  0
 21 22  1  0  0  0
 22 18  2  0  0  0
 13  8  1  0  0  0
  6  1  1  0  0  0
 26 27  1  0  0  0
 33 34  1  0  0  0
 14 15  1  0  0  0
 14 16  1  0  0  0
M  END
> <minimizedAffinity>
0.87497

> <CNNscore>
0.4133885205

> <CNNaffinity>
7.8037614822

> <CNN_VS>
3.2259855270

> <CNNaffinity_variance>
0.4810287356

$$$$
[H]OC(C([H])([H])[H])(C([H])([H])[H])C([H])([H])C([H])([H])N([H])S(=O)(=O)c1c([H])c([H])c(C([H])([H])[H])c(-c2c([H])nc(N([H])[H])c(-c3onc(C([H])([H])[H])c3[H])c2[H])c1[H]


 34 36  0  0  0  0  0  0  0  0999 V2000
   10.8046   46.0597  133.2469 C   0  0  0  0  0  0  0  0  0  0  0  0
   10.0998   44.9209  132.8392 C   0  0  0  0  0  0  0  0  0  0  0  0
   10.5455   43.6487  133.1299 C   0  0  0  0  0  0  0  0  0  0  0  0
   11.7069   43.4663  133.8358 C   0  0  0  0  0  0  0  0  0  0  0  0
   12.4193   44.5707  134.2492 C   0  0  0  0  0  0  0  0  0  0  0  0
   11.9602   45.8676  133.9503 C   0  0  0  0  0  0  0  0  0  0  0  0
   12.7383   47.0432  134.4248 C   0  0  0  0  0  0  0  0  0  0  0  0
    8.8746   48.8282  131.6696 C   0  0  0  0  0  0  0  0  0  0  0  0
    9.3091   47.5337  131.9896 C   0  0  0  0  0  0  0  0  0  0  0  0
   10.3237   47.3955  132.9129 C   0  0  0  0  0  0  0  0  0  0  0  0
   10.8615   48.5366  133.4757 C   0  0  0  0  0  0  0  0  0  0  0  0
   10.4358   49.7645  133.1599 N   0  0  0  0  0  0  0  0  0  0  0  0
    9.4330   49.9181  132.2488 C   0  0  0  0  0  0  0  0  0  0  0  0
    9.0151   51.2324  131.9456 N   0  0  0  0  0  0  0  0  0  0  0  0
    9.4414   51.8122  131.1863 H   0  0  0  0  0  0  0  0  0  0  0  0
    8.2498   51.6723  132.4848 H   0  0  0  0  0  0  0  0  0  0  0  0
    5.3719   47.8552  128.1291 C   0  0  0  0  0  0  0  0  0  0  0  0
    6.2519   48.5214  129.1361 C   0  0  0  0  0  0  0  0  0  0  0  0
    7.2614   47.9179  129.9104 C   0  0  0  0  0  0  0  0  0  0  0  0
    7.7914   48.9057  130.6801 C   0  0  0  0  0  0  0  0  0  0  0  0
    7.1484   50.0297  130.3928 O   0  0  0  0  0  0  0  0  0  0  0  0
    6.2625   49.8056  129.5034 N   0  0  0  0  0  0  0  0  0  0  0  0
    9.6108   42.2539  132.5873 S   0  0  0  0  0  0  0  0  0  0  0  0
   10.5971   41.2692  132.0025 O   0  0  0  0  0  0  0  0  0  0  0  0
    8.8746   41.6761  133.7438 O   0  0  0  0  0  0  0  0  0  0  0  0
    8.5882   42.7746  131.3272 N   0  0  0  0  0  0  0  0  0  0  0  0
    8.2642   43.7549  131.5764 H   0  0  0  0  0  0  0  0  0  0  0  0
    9.2507   42.7911  130.0388 C   0  0  0  0  0  0  0  0  0  0  0  0
    9.0914   44.0951  129.3272 C   0  0  0  0  0  0  0  0  0  0  0  0
   10.3769   44.6623  128.8251 C   0  0  0  0  0  0  0  0  0  0  0  0
   10.4145   46.1530  128.7259 C   0  0  0  0  0  0  0  0  0  0  0  0
   11.4989   44.2068  129.7261 C   0  0  0  0  0  0  0  0  0  0  0  0
   10.6409   44.1424  127.5564 O   0  0  0  0  0  0  0  0  0  0  0  0
   11.5946   43.9741  127.4193 H   0  0  0  0  0  0  0  0  0  0  0  0
 17 18  1  0  0  0
 18 19  1  0  0  0
 19 20  2  0  0  0
 20  8  1  0  0  0
  8  9  2  0  0  0
  9 10  1  0  0  0
 10  1  1  0  0  0
  1  2  2  0  0  0
  2  3  1  0  0  0
  3 23  1  0  0  0
 23 24  2  0  0  0
 23 25  2  0  0  0
 23 26  1  0  0  0
 26 28  1  0  0  0
 28 29  1  0  0  0
 29 30  1  0  0  0
 30 31  1  0  0  0
 30 32  1  0  0  0
 30 33  1  0  0  0
  3  4  2  0  0  0
  4  5  1  0  0  0
  5  6  2  0  0  0
  6  7  1  0  0  0
 10 11  2  0  0  0
 11 12  1  0  0  0
 12 13  2  0  0  0
 13 14  1  0  0  0
 20 21  1  0  0  0
 21 22  1  0  0  0
 22 18  2  0  0  0
 13  8  1  0  0  0
  6  1  1  0  0  0
 26 27  1  0  0  0
 33 34  1  0  0  0
 14 15  1  0  0  0
 14 16  1  0  0  0
M  END
> <minimizedAffinity>
-1.90850

> <CNNscore>
0.3511006236

> <CNNaffinity>
7.8753843307

> <CNN_VS>
2.7650523186

> <CNNaffinity_variance>
0.4913614392

$$$$
[H]OC(C([H])([H])[H])(C([H])([H])[H])C([H])([H])C([H])([H])N([H])S(=O)(=O)c1c([H])c([H])c(C([H])([H])[H])c(-c2c([H])nc(N([H])[H])c(-c3onc(C([H])([H])[H])c3[H])c2[H])c1[H]


 34 36  0  0  0  0  0  0  0  0999 V2000
    9.2429   46.8598  132.2139 C   0  0  0  0  0  0  0  0  0  0  0  0
    9.6296   45.5342  132.4441 C   0  0  0  0  0  0  0  0  0  0  0  0
   10.5888   45.2101  133.3803 C   0  0  0  0  0  0  0  0  0  0  0  0
   11.1955   46.1933  134.1190 C   0  0  0  0  0  0  0  0  0  0  0  0
   10.8326   47.5061  133.9120 C   0  0  0  0  0  0  0  0  0  0  0  0
    9.8526   47.8322  132.9553 C   0  0  0  0  0  0  0  0  0  0  0  0
    9.4655   49.2557  132.7650 C   0  0  0  0  0  0  0  0  0  0  0  0
    7.0975   48.7804  129.8504 C   0  0  0  0  0  0  0  0  0  0  0  0
    8.0813   48.4914  130.8072 C   0  0  0  0  0  0  0  0  0  0  0  0
    8.2389   47.1810  131.2059 C   0  0  0  0  0  0  0  0  0  0  0  0
    7.4213   46.2194  130.6447 C   0  0  0  0  0  0  0  0  0  0  0  0
    6.4875   46.5112  129.7329 N   0  0  0  0  0  0  0  0  0  0  0  0
    6.3193   47.8025  129.3279 C   0  0  0  0  0  0  0  0  0  0  0  0
    5.3219   48.0648  128.3634 N   0  0  0  0  0  0  0  0  0  0  0  0
    4.3285   48.2854  128.6065 H   0  0  0  0  0  0  0  0  0  0  0  0
    5.5547   48.0453  127.3558 H   0  0  0  0  0  0  0  0  0  0  0  0
    7.1908   53.2460  127.4417 C   0  0  0  0  0  0  0  0  0  0  0  0
    7.0057   52.1609  128.4521 C   0  0  0  0  0  0  0  0  0  0  0  0
    7.3175   50.7965  128.2971 C   0  0  0  0  0  0  0  0  0  0  0  0
    6.9814   50.1945  129.4691 C   0  0  0  0  0  0  0  0  0  0  0  0
    6.4994   51.1284  130.2784 O   0  0  0  0  0  0  0  0  0  0  0  0
    6.5145   52.2597  129.6903 N   0  0  0  0  0  0  0  0  0  0  0  0
   11.0319   43.5194  133.6229 S   0  0  0  0  0  0  0  0  0  0  0  0
   11.7271   43.4391  134.9626 O   0  0  0  0  0  0  0  0  0  0  0  0
    9.8042   42.6801  133.5876 O   0  0  0  0  0  0  0  0  0  0  0  0
   12.1687   43.1049  132.4226 N   0  0  0  0  0  0  0  0  0  0  0  0
   12.6423   42.2091  132.7409 H   0  0  0  0  0  0  0  0  0  0  0  0
   11.5620   42.9023  131.1227 C   0  0  0  0  0  0  0  0  0  0  0  0
   11.8207   44.0360  130.1845 C   0  0  0  0  0  0  0  0  0  0  0  0
   10.7877   44.1750  129.1168 C   0  0  0  0  0  0  0  0  0  0  0  0
    9.4825   43.5083  129.4089 C   0  0  0  0  0  0  0  0  0  0  0  0
   10.5382   45.6420  128.8641 C   0  0  0  0  0  0  0  0  0  0  0  0
   11.2852   43.6389  127.9274 O   0  0  0  0  0  0  0  0  0  0  0  0
   11.0017   44.1535  127.1454 H   0  0  0  0  0  0  0  0  0  0  0  0
 17 18  1  0  0  0
 18 19  1  0  0  0
 19 20  2  0  0  0
 20  8  1  0  0  0
  8  9  2  0  0  0
  9 10  1  0  0  0
 10  1  1  0  0  0
  1  2  2  0  0  0
  2  3  1  0  0  0
  3 23  1  0  0  0
 23 24  2  0  0  0
 23 25  2  0  0  0
 23 26  1  0  0  0
 26 28  1  0  0  0
 28 29  1  0  0  0
 29 30  1  0  0  0
 30 31  1  0  0  0
 30 32  1  0  0  0
 30 33  1  0  0  0
  3  4  2  0  0  0
  4  5  1  0  0  0
  5  6  2  0  0  0
  6  7  1  0  0  0
 10 11  2  0  0  0
 11 12  1  0  0  0
 12 13  2  0  0  0
 13 14  1  0  0  0
 20 21  1  0  0  0
 21 22  1  0  0  0
 22 18  2  0  0  0
 13  8  1  0  0  0
  6  1  1  0  0  0
 26 27  1  0  0  0
 33 34  1  0  0  0
 14 15  1  0  0  0
 14 16  1  0  0  0
M  END
> <minimizedAffinity>
-5.56856

> <CNNscore>
0.3069727719

> <CNNaffinity>
7.6295762062

> <CNN_VS>
2.3420722485

> <CNNaffinity_variance>
0.3446547091

$$$$
[H]OC(C([H])([H])[H])(C([H])([H])[H])C([H])([H])C([H])([H])N([H])S(=O)(=O)c1c([H])c([H])c(C([H])([H])[H])c(-c2c([H])nc(N([H])[H])c(-c3onc(C([H])([H])[H])c3[H])c2[H])c1[H]


 34 36  0  0  0  0  0  0  0  0999 V2000
   10.6450   47.0065  132.1964 C   0  0  0  0  0  0  0  0  0  0  0  0
   11.2163   46.0197  131.3842 C   0  0  0  0  0  0  0  0  0  0  0  0
   12.0472   45.0472  131.8992 C   0  0  0  0  0  0  0  0  0  0  0  0
   12.3379   45.0233  133.2392 C   0  0  0  0  0  0  0  0  0  0  0  0
   11.7881   45.9831  134.0604 C   0  0  0  0  0  0  0  0  0  0  0  0
   10.9400   46.9739  133.5302 C   0  0  0  0  0  0  0  0  0  0  0  0
   10.3443   47.9871  134.4418 C   0  0  0  0  0  0  0  0  0  0  0  0
    7.7746   48.6733  130.5052 C   0  0  0  0  0  0  0  0  0  0  0  0
    8.5794   47.6695  131.0632 C   0  0  0  0  0  0  0  0  0  0  0  0
    9.7830   48.0361  131.6271 C   0  0  0  0  0  0  0  0  0  0  0  0
   10.1362   49.3715  131.6142 C   0  0  0  0  0  0  0  0  0  0  0  0
    9.3572   50.3172  131.0781 N   0  0  0  0  0  0  0  0  0  0  0  0
    8.1637   49.9708  130.5167 C   0  0  0  0  0  0  0  0  0  0  0  0
    7.3736   51.0016  129.9625 N   0  0  0  0  0  0  0  0  0  0  0  0
    7.4531   51.3182  128.9686 H   0  0  0  0  0  0  0  0  0  0  0  0
    6.6705   51.4881  130.5447 H   0  0  0  0  0  0  0  0  0  0  0  0
    3.4705   46.2201  129.4061 C   0  0  0  0  0  0  0  0  0  0  0  0
    4.6217   47.1726  129.4106 C   0  0  0  0  0  0  0  0  0  0  0  0
    5.7159   47.1753  130.2969 C   0  0  0  0  0  0  0  0  0  0  0  0
    6.5062   48.2163  129.9215 C   0  0  0  0  0  0  0  0  0  0  0  0
    5.9314   48.8040  128.8805 O   0  0  0  0  0  0  0  0  0  0  0  0
    4.8465   48.2010  128.5883 N   0  0  0  0  0  0  0  0  0  0  0  0
   12.7358   43.8311  130.8220 S   0  0  0  0  0  0  0  0  0  0  0  0
   14.1839   44.2079  130.6085 O   0  0  0  0  0  0  0  0  0  0  0  0
   12.6021   42.4883  131.4482 O   0  0  0  0  0  0  0  0  0  0  0  0
   11.9394   43.9589  129.3207 N   0  0  0  0  0  0  0  0  0  0  0  0
   12.2181   43.1082  128.7489 H   0  0  0  0  0  0  0  0  0  0  0  0
   10.4976   44.0080  129.4538 C   0  0  0  0  0  0  0  0  0  0  0  0
    9.9352   42.7703  130.0737 C   0  0  0  0  0  0  0  0  0  0  0  0
    8.6820   43.0070  130.8483 C   0  0  0  0  0  0  0  0  0  0  0  0
    8.8434   42.9872  132.3338 C   0  0  0  0  0  0  0  0  0  0  0  0
    8.0976   44.3376  130.4407 C   0  0  0  0  0  0  0  0  0  0  0  0
    7.7430   42.0315  130.5070 O   0  0  0  0  0  0  0  0  0  0  0  0
    6.8341   42.3915  130.4750 H   0  0  0  0  0  0  0  0  0  0  0  0
 17 18  1  0  0  0
 18 19  1  0  0  0
 19 20  2  0  0  0
 20  8  1  0  0  0
  8  9  2  0  0  0
  9 10  1  0  0  0
 10  1  1  0  0  0
  1  2  2  0  0  0
  2  3  1  0  0  0
  3 23  1  0  0  0
 23 24  2  0  0  0
 23 25  2  0  0  0
 23 26  1  0  0  0
 26 28  1  0  0  0
 28 29  1  0  0  0
 29 30  1  0  0  0
 30 31  1  0  0  0
 30 32  1  0  0  0
 30 33  1  0  0  0
  3  4  2  0  0  0
  4  5  1  0  0  0
  5  6  2  0  0  0
  6  7  1  0  0  0
 10 11  2  0  0  0
 11 12  1  0  0  0
 12 13  2  0  0  0
 13 14  1  0  0  0
 20 21  1  0  0  0
 21 22  1  0  0  0
 22 18  2  0  0  0
 13  8  1  0  0  0
  6  1  1  0  0  0
 26 27  1  0  0  0
 33 34  1  0  0  0
 14 15  1  0  0  0
 14 16  1  0  0  0
M  END
> <minimizedAffinity>
-0.95125

> <CNNscore>
0.2942585051

> <CNNaffinity>
7.7708511353

> <CNN_VS>
2.2866389751

> <CNNaffinity_variance>
0.3686437607

$$$$
[H]OC(C([H])([H])[H])(C([H])([H])[H])C([H])([H])C([H])([H])N([H])S(=O)(=O)c1c([H])c([H])c(C([H])([H])[H])c(-c2c([H])nc(N([H])[H])c(-c3onc(C([H])([H])[H])c3[H])c2[H])c1[H]


 34 36  0  0  0  0  0  0  0  0999 V2000
    9.9933   45.9125  129.7233 C   0  0  0  0  0  0  0  0  0  0  0  0
    9.5438   47.0142  130.4610 C   0  0  0  0  0  0  0  0  0  0  0  0
    9.3007   48.2348  129.8673 C   0  0  0  0  0  0  0  0  0  0  0  0
    9.4964   48.4009  128.5202 C   0  0  0  0  0  0  0  0  0  0  0  0
    9.9380   47.3321  127.7713 C   0  0  0  0  0  0  0  0  0  0  0  0
   10.1846   46.0876  128.3818 C   0  0  0  0  0  0  0  0  0  0  0  0
   10.6426   44.9449  127.5472 C   0  0  0  0  0  0  0  0  0  0  0  0
   11.0173   43.3897  132.2658 C   0  0  0  0  0  0  0  0  0  0  0  0
   10.7496   44.6281  131.6646 C   0  0  0  0  0  0  0  0  0  0  0  0
   10.2609   44.6356  130.3753 C   0  0  0  0  0  0  0  0  0  0  0  0
   10.0599   43.4253  129.7406 C   0  0  0  0  0  0  0  0  0  0  0  0
   10.3200   42.2523  130.3279 N   0  0  0  0  0  0  0  0  0  0  0  0
   10.8035   42.2279  131.6028 C   0  0  0  0  0  0  0  0  0  0  0  0
   11.0640   40.9675  132.1836 N   0  0  0  0  0  0  0  0  0  0  0  0
   11.9829   40.4741  132.1028 H   0  0  0  0  0  0  0  0  0  0  0  0
   10.3275   40.4813  132.7233 H   0  0  0  0  0  0  0  0  0  0  0  0
   11.6417   43.1898  137.2979 C   0  0  0  0  0  0  0  0  0  0  0  0
   11.8470   43.3779  135.8299 C   0  0  0  0  0  0  0  0  0  0  0  0
   10.9080   43.1464  134.8064 C   0  0  0  0  0  0  0  0  0  0  0  0
   11.5354   43.4516  133.6392 C   0  0  0  0  0  0  0  0  0  0  0  0
   12.7687   43.8408  133.9341 O   0  0  0  0  0  0  0  0  0  0  0  0
   12.9455   43.7974  135.1962 N   0  0  0  0  0  0  0  0  0  0  0  0
    8.7352   49.5847  130.8528 S   0  0  0  0  0  0  0  0  0  0  0  0
    7.8992   48.9927  131.9642 O   0  0  0  0  0  0  0  0  0  0  0  0
    9.9080   50.3310  131.3827 O   0  0  0  0  0  0  0  0  0  0  0  0
    7.7087   50.5392  129.8833 N   0  0  0  0  0  0  0  0  0  0  0  0
    8.2160   50.7048  128.9649 H   0  0  0  0  0  0  0  0  0  0  0  0
    6.4305   49.9062  129.6289 C   0  0  0  0  0  0  0  0  0  0  0  0
    6.3266   48.5509  130.2492 C   0  0  0  0  0  0  0  0  0  0  0  0
    5.8827   47.4910  129.2973 C   0  0  0  0  0  0  0  0  0  0  0  0
    6.6828   46.2295  129.3376 C   0  0  0  0  0  0  0  0  0  0  0  0
    4.4366   47.1584  129.5736 C   0  0  0  0  0  0  0  0  0  0  0  0
    5.9405   47.9929  127.9956 O   0  0  0  0  0  0  0  0  0  0  0  0
    5.2023   47.6668  127.4429 H   0  0  0  0  0  0  0  0  0  0  0  0
 17 18  1  0  0  0
 18 19  1  0  0  0
 19 20  2  0  0  0
 20  8  1  0  0  0
  8  9  2  0  0  0
  9 10  1  0  0  0
 10  1  1  0  0  0
  1  2  2  0  0  0
  2  3  1  0  0  0
  3 23  1  0  0  0
 23 24  2  0  0  0
 23 25  2  0  0  0
 23 26  1  0  0  0
 26 28  1  0  0  0
 28 29  1  0  0  0
 29 30  1  0  0  0
 30 31  1  0  0  0
 30 32  1  0  0  0
 30 33  1  0  0  0
  3  4  2  0  0  0
  4  5  1  0  0  0
  5  6  2  0  0  0
  6  7  1  0  0  0
 10 11  2  0  0  0
 11 12  1  0  0  0
 12 13  2  0  0  0
 13 14  1  0  0  0
 20 21  1  0  0  0
 21 22  1  0  0  0
 22 18  2  0  0  0
 13  8  1  0  0  0
  6  1  1  0  0  0
 26 27  1  0  0  0
 33 34  1  0  0  0
 14 15  1  0  0  0
 14 16  1  0  0  0
M  END
> <minimizedAffinity>
4.20370

> <CNNscore>
0.2903200090

> <CNNaffinity>
7.3658385277

> <CNN_VS>
2.1384503841

> <CNNaffinity_variance>
0.6438800097

$$$$
[H]/C(=C(/[H])c1c([H])c(OC([H])([H])[H])c([H])c(OC([H])([H])[H])c1[H])c1c([H])c([H])c(OC([H])([H])C([H])([H])[H])c([H])c1[H]


 21 22  0  0  0  0  0  0  0  0999 V2000
    8.2572   47.1691  130.2694 C   0  0  0  0  0  0  0  0  0  0  0  0
    9.2316   46.8547  131.0901 C   0  0  0  0  0  0  0  0  0  0  0  0
    7.1842   51.1452  129.1522 C   0  0  0  0  0  0  0  0  0  0  0  0
    7.0637   50.0956  128.2718 C   0  0  0  0  0  0  0  0  0  0  0  0
    7.4183   48.8106  128.6557 C   0  0  0  0  0  0  0  0  0  0  0  0
    7.8979   48.5415  129.9159 C   0  0  0  0  0  0  0  0  0  0  0  0
    8.0186   49.5889  130.7955 C   0  0  0  0  0  0  0  0  0  0  0  0
    7.6633   50.8838  130.4146 C   0  0  0  0  0  0  0  0  0  0  0  0
    6.8419   52.4494  128.8139 O   0  0  0  0  0  0  0  0  0  0  0  0
    7.1898   54.4014  127.4609 C   0  0  0  0  0  0  0  0  0  0  0  0
    7.0741   52.8906  127.4971 C   0  0  0  0  0  0  0  0  0  0  0  0
    9.5609   45.4761  131.4189 C   0  0  0  0  0  0  0  0  0  0  0  0
    9.4810   44.5255  130.3968 C   0  0  0  0  0  0  0  0  0  0  0  0
    9.7687   43.1949  130.5916 C   0  0  0  0  0  0  0  0  0  0  0  0
   10.1534   42.7705  131.8455 C   0  0  0  0  0  0  0  0  0  0  0  0
   10.2329   43.7017  132.8516 C   0  0  0  0  0  0  0  0  0  0  0  0
    9.9426   45.0434  132.6543 C   0  0  0  0  0  0  0  0  0  0  0  0
    9.6555   42.3442  129.5075 O   0  0  0  0  0  0  0  0  0  0  0  0
    9.7335   42.7439  128.1665 C   0  0  0  0  0  0  0  0  0  0  0  0
   10.6228   43.2516  134.1076 O   0  0  0  0  0  0  0  0  0  0  0  0
   11.5945   43.8716  134.8997 C   0  0  0  0  0  0  0  0  0  0  0  0
 10 11  1  0  0  0
 11  9  1  0  0  0
  9  3  1  0  0  0
  3  4  2  0  0  0
  4  5  1  0  0  0
  5  6  2  0  0  0
  6  1  1  0  0  0
  1  2  2  0  0  0
  2 12  1  0  0  0
 12 13  2  0  0  0
 13 14  1  0  0  0
 14 18  1  0  0  0
 18 19  1  0  0  0
 14 15  2  0  0  0
 15 16  1  0  0  0
 16 20  1  0  0  0
 20 21  1  0  0  0
 16 17  2  0  0  0
  6  7  1  0  0  0
  7  8  2  0  0  0
  8  3  1  0  0  0
 17 12  1  0  0  0
M  END
> <minimizedAffinity>
-3.07158

> <CNNscore>
0.5409938693

> <CNNaffinity>
6.7224426270

> <CNN_VS>
3.6368002892

> <CNNaffinity_variance>
0.8760992289

$$$$
[H]/C(=C(/[H])c1c([H])c(OC([H])([H])[H])c([H])c(OC([H])([H])[H])c1[H])c1c([H])c([H])c(OC([H])([H])C([H])([H])[H])c([H])c1[H]


 21 22  0  0  0  0  0  0  0  0999 V2000
    8.2453   47.2049  130.2606 C   0  0  0  0  0  0  0  0  0  0  0  0
    9.3124   46.8936  130.9579 C   0  0  0  0  0  0  0  0  0  0  0  0
    7.2253   51.2206  129.2397 C   0  0  0  0  0  0  0  0  0  0  0  0
    7.7199   50.9000  130.4822 C   0  0  0  0  0  0  0  0  0  0  0  0
    8.0451   49.5879  130.7932 C   0  0  0  0  0  0  0  0  0  0  0  0
    7.8871   48.5708  129.8816 C   0  0  0  0  0  0  0  0  0  0  0  0
    7.3933   48.8900  128.6407 C   0  0  0  0  0  0  0  0  0  0  0  0
    7.0644   50.2085  128.3224 C   0  0  0  0  0  0  0  0  0  0  0  0
    6.8854   52.5202  128.8815 O   0  0  0  0  0  0  0  0  0  0  0  0
    7.3214   54.3873  127.4373 C   0  0  0  0  0  0  0  0  0  0  0  0
    7.0131   52.9064  127.5335 C   0  0  0  0  0  0  0  0  0  0  0  0
    9.6373   45.5215  131.3169 C   0  0  0  0  0  0  0  0  0  0  0  0
    9.5583   44.5497  130.3148 C   0  0  0  0  0  0  0  0  0  0  0  0
    9.8422   43.2229  130.5386 C   0  0  0  0  0  0  0  0  0  0  0  0
   10.2220   42.8241  131.8024 C   0  0  0  0  0  0  0  0  0  0  0  0
   10.3006   43.7761  132.7888 C   0  0  0  0  0  0  0  0  0  0  0  0
   10.0141   45.1140  132.5623 C   0  0  0  0  0  0  0  0  0  0  0  0
    9.7303   42.3496  129.4723 O   0  0  0  0  0  0  0  0  0  0  0  0
    9.7472   42.7294  128.1234 C   0  0  0  0  0  0  0  0  0  0  0  0
   10.6854   43.3518  134.0553 O   0  0  0  0  0  0  0  0  0  0  0  0
   11.6026   44.0268  134.8671 C   0  0  0  0  0  0  0  0  0  0  0  0
 10 11  1  0  0  0
 11  9  1  0  0  0
  9  3  1  0  0  0
  3  4  2  0  0  0
  4  5  1  0  0  0
  5  6  2  0  0  0
  6  1  1  0  0  0
  1  2  2  0  0  0
  2 12  1  0  0  0
 12 13  2  0  0  0
 13 14  1  0  0  0
 14 18  1  0  0  0
 18 19  1  0  0  0
 14 15  2  0  0  0
 15 16  1  0  0  0
 16 20  1  0  0  0
 20 21  1  0  0  0
 16 17  2  0  0  0
  6  7  1  0  0  0
  7  8  2  0  0  0
  8  3  1  0  0  0
 17 12  1  0  0  0
M  END
> <minimizedAffinity>
-3.06338

> <CNNscore>
0.5369625092

> <CNNaffinity>
6.7102136612

> <CNN_VS>
3.6031332016

> <CNNaffinity_variance>
0.8811479807

$$$$
[H]/C(=C(/[H])c1c([H])c(OC([H])([H])[H])c([H])c(OC([H])([H])[H])c1[H])c1c([H])c([H])c(OC([H])([H])C([H])([H])[H])c([H])c1[H]


 21 22  0  0  0  0  0  0  0  0999 V2000
    8.0121   47.5304  130.5710 C   0  0  0  0  0  0  0  0  0  0  0  0
    8.7950   47.3272  131.6043 C   0  0  0  0  0  0  0  0  0  0  0  0
    7.1119   51.4243  129.0755 C   0  0  0  0  0  0  0  0  0  0  0  0
    7.3410   51.2053  130.4137 C   0  0  0  0  0  0  0  0  0  0  0  0
    7.6321   49.9312  130.8787 C   0  0  0  0  0  0  0  0  0  0  0  0
    7.7016   48.8524  130.0291 C   0  0  0  0  0  0  0  0  0  0  0  0
    7.4729   49.0702  128.6927 C   0  0  0  0  0  0  0  0  0  0  0  0
    7.1796   50.3500  128.2194 C   0  0  0  0  0  0  0  0  0  0  0  0
    6.8168   52.6822  128.5623 O   0  0  0  0  0  0  0  0  0  0  0  0
    7.5123   54.4470  127.0915 C   0  0  0  0  0  0  0  0  0  0  0  0
    7.1826   52.9746  127.2345 C   0  0  0  0  0  0  0  0  0  0  0  0
    9.0817   45.9958  132.1164 C   0  0  0  0  0  0  0  0  0  0  0  0
   10.0935   45.8696  133.0730 C   0  0  0  0  0  0  0  0  0  0  0  0
   10.4500   44.6623  133.6265 C   0  0  0  0  0  0  0  0  0  0  0  0
    9.7868   43.5215  133.2273 C   0  0  0  0  0  0  0  0  0  0  0  0
    8.7925   43.6422  132.2880 C   0  0  0  0  0  0  0  0  0  0  0  0
    8.4336   44.8601  131.7302 C   0  0  0  0  0  0  0  0  0  0  0  0
   11.4661   44.6566  134.5644 O   0  0  0  0  0  0  0  0  0  0  0  0
   12.7135   44.0427  134.3874 C   0  0  0  0  0  0  0  0  0  0  0  0
    8.1372   42.4793  131.9002 O   0  0  0  0  0  0  0  0  0  0  0  0
    8.1031   41.9944  130.5889 C   0  0  0  0  0  0  0  0  0  0  0  0
 10 11  1  0  0  0
 11  9  1  0  0  0
  9  3  1  0  0  0
  3  4  2  0  0  0
  4  5  1  0  0  0
  5  6  2  0  0  0
  6  1  1  0  0  0
  1  2  2  0  0  0
  2 12  1  0  0  0
 12 13  2  0  0  0
 13 14  1  0  0  0
 14 18  1  0  0  0
 18 19  1  0  0  0
 14 15  2  0  0  0
 15 16  1  0  0  0
 16 20  1  0  0  0
 20 21  1  0  0  0
 16 17  2  0  0  0
  6  7  1  0  0  0
  7  8  2  0  0  0
  8  3  1  0  0  0
 17 12  1  0  0  0
M  END
> <minimizedAffinity>
-2.50382

> <CNNscore>
0.5134680867

> <CNNaffinity>
6.4359550476

> <CNN_VS>
3.3046574593

> <CNNaffinity_variance>
1.0393770933

$$$$
[H]/C(=C(/[H])c1c([H])c(OC([H])([H])[H])c([H])c(OC([H])([H])[H])c1[H])c1c([H])c([H])c(OC([H])([H])C([H])([H])[H])c([H])c1[H]


 21 22  0  0  0  0  0  0  0  0999 V2000
    8.1164   47.5029  130.5983 C   0  0  0  0  0  0  0  0  0  0  0  0
    8.6793   47.2803  131.7626 C   0  0  0  0  0  0  0  0  0  0  0  0
    7.1186   51.3505  129.0461 C   0  0  0  0  0  0  0  0  0  0  0  0
    7.1837   50.2436  128.2324 C   0  0  0  0  0  0  0  0  0  0  0  0
    7.5100   49.0020  128.7578 C   0  0  0  0  0  0  0  0  0  0  0  0
    7.7774   48.8334  130.0959 C   0  0  0  0  0  0  0  0  0  0  0  0
    7.7126   49.9380  130.9091 C   0  0  0  0  0  0  0  0  0  0  0  0
    7.3848   51.1897  130.3858 C   0  0  0  0  0  0  0  0  0  0  0  0
    6.7960   52.6147  128.5663 O   0  0  0  0  0  0  0  0  0  0  0  0
    7.3099   54.4787  127.1439 C   0  0  0  0  0  0  0  0  0  0  0  0
    7.2077   52.9716  127.2680 C   0  0  0  0  0  0  0  0  0  0  0  0
    9.0026   45.9409  132.2300 C   0  0  0  0  0  0  0  0  0  0  0  0
   10.0323   45.8084  133.1664 C   0  0  0  0  0  0  0  0  0  0  0  0
   10.4235   44.5933  133.6777 C   0  0  0  0  0  0  0  0  0  0  0  0
    9.7784   43.4507  133.2549 C   0  0  0  0  0  0  0  0  0  0  0  0
    8.7665   43.5775  132.3353 C   0  0  0  0  0  0  0  0  0  0  0  0
    8.3726   44.8033  131.8201 C   0  0  0  0  0  0  0  0  0  0  0  0
   11.4546   44.5820  134.5990 O   0  0  0  0  0  0  0  0  0  0  0  0
   12.7360   44.0678  134.3579 C   0  0  0  0  0  0  0  0  0  0  0  0
    8.1299   42.4126  131.9232 O   0  0  0  0  0  0  0  0  0  0  0  0
    8.1147   41.9478  130.6042 C   0  0  0  0  0  0  0  0  0  0  0  0
 10 11  1  0  0  0
 11  9  1  0  0  0
  9  3  1  0  0  0
  3  4  2  0  0  0
  4  5  1  0  0  0
  5  6  2  0  0  0
  6  1  1  0  0  0
  1  2  2  0  0  0
  2 12  1  0  0  0
 12 13  2  0  0  0
 13 14  1  0  0  0
 14 18  1  0  0  0
 18 19  1  0  0  0
 14 15  2  0  0  0
 15 16  1  0  0  0
 16 20  1  0  0  0
 20 21  1  0  0  0
 16 17  2  0  0  0
  6  7  1  0  0  0
  7  8  2  0  0  0
  8  3  1  0  0  0
 17 12  1  0  0  0
M  END
> <minimizedAffinity>
-2.49541

> <CNNscore>
0.5106830597

> <CNNaffinity>
6.4103164673

> <CNN_VS>
3.2736399174

> <CNNaffinity_variance>
0.9919556379

$$$$
[H]/C(=C(/[H])c1c([H])c(OC([H])([H])[H])c([H])c(OC([H])([H])[H])c1[H])c1c([H])c([H])c(OC([H])([H])C([H])([H])[H])c([H])c1[H]


 21 22  0  0  0  0  0  0  0  0999 V2000
    9.3484   47.3405  130.6173 C   0  0  0  0  0  0  0  0  0  0  0  0
    9.9365   46.4618  129.8400 C   0  0  0  0  0  0  0  0  0  0  0  0
    7.1205   50.6506  129.1045 C   0  0  0  0  0  0  0  0  0  0  0  0
    7.1525   49.4452  128.4430 C   0  0  0  0  0  0  0  0  0  0  0  0
    7.8834   48.3820  128.9525 C   0  0  0  0  0  0  0  0  0  0  0  0
    8.5946   48.4921  130.1241 C   0  0  0  0  0  0  0  0  0  0  0  0
    8.5632   49.6952  130.7851 C   0  0  0  0  0  0  0  0  0  0  0  0
    7.8295   50.7683  130.2771 C   0  0  0  0  0  0  0  0  0  0  0  0
    6.4029   51.7443  128.6337 O   0  0  0  0  0  0  0  0  0  0  0  0
    7.1047   53.4004  127.0442 C   0  0  0  0  0  0  0  0  0  0  0  0
    7.0633   52.9806  128.5000 C   0  0  0  0  0  0  0  0  0  0  0  0
   10.6789   45.3269  130.3670 C   0  0  0  0  0  0  0  0  0  0  0  0
   10.0135   44.4623  131.2413 C   0  0  0  0  0  0  0  0  0  0  0  0
   10.6145   43.3588  131.8001 C   0  0  0  0  0  0  0  0  0  0  0  0
   11.9297   43.0850  131.4908 C   0  0  0  0  0  0  0  0  0  0  0  0
   12.5861   43.9323  130.6323 C   0  0  0  0  0  0  0  0  0  0  0  0
   11.9792   45.0449  130.0692 C   0  0  0  0  0  0  0  0  0  0  0  0
    9.8594   42.5739  132.6520 O   0  0  0  0  0  0  0  0  0  0  0  0
    8.5553   42.8735  133.0690 C   0  0  0  0  0  0  0  0  0  0  0  0
   13.9113   43.6371  130.3343 O   0  0  0  0  0  0  0  0  0  0  0  0
   14.6065   44.1567  129.2377 C   0  0  0  0  0  0  0  0  0  0  0  0
 10 11  1  0  0  0
 11  9  1  0  0  0
  9  3  1  0  0  0
  3  4  2  0  0  0
  4  5  1  0  0  0
  5  6  2  0  0  0
  6  1  1  0  0  0
  1  2  2  0  0  0
  2 12  1  0  0  0
 12 13  2  0  0  0
 13 14  1  0  0  0
 14 18  1  0  0  0
 18 19  1  0  0  0
 14 15  2  0  0  0
 15 16  1  0  0  0
 16 20  1  0  0  0
 20 21  1  0  0  0
 16 17  2  0  0  0
  6  7  1  0  0  0
  7  8  2  0  0  0
  8  3  1  0  0  0
 17 12  1  0  0  0
M  END
> <minimizedAffinity>
-1.90040

> <CNNscore>
0.5086251497

> <CNNaffinity>
6.5170316696

> <CNN_VS>
3.3147261143

> <CNNaffinity_variance>
1.1049079895

$$$$
[H]/C(=C(/[H])c1c([H])c(OC([H])([H])[H])c([H])c(OC([H])([H])[H])c1[H])c1c([H])c([H])c(OC([H])([H])C([H])([H])[H])c([H])c1[H]


 21 22  0  0  0  0  0  0  0  0999 V2000
    9.1821   47.3094  130.8361 C   0  0  0  0  0  0  0  0  0  0  0  0
    9.6985   46.3329  130.1278 C   0  0  0  0  0  0  0  0  0  0  0  0
    7.1437   50.6180  129.0734 C   0  0  0  0  0  0  0  0  0  0  0  0
    7.2382   49.4073  128.4279 C   0  0  0  0  0  0  0  0  0  0  0  0
    7.9056   48.3446  129.0191 C   0  0  0  0  0  0  0  0  0  0  0  0
    8.4906   48.4606  130.2580 C   0  0  0  0  0  0  0  0  0  0  0  0
    8.3967   49.6691  130.9032 C   0  0  0  0  0  0  0  0  0  0  0  0
    7.7265   50.7416  130.3130 C   0  0  0  0  0  0  0  0  0  0  0  0
    6.4857   51.7113  128.5218 O   0  0  0  0  0  0  0  0  0  0  0  0
    7.1466   53.4918  127.0539 C   0  0  0  0  0  0  0  0  0  0  0  0
    7.1555   52.9487  128.4689 C   0  0  0  0  0  0  0  0  0  0  0  0
   10.3803   45.2018  130.7384 C   0  0  0  0  0  0  0  0  0  0  0  0
   11.7080   44.9650  130.3698 C   0  0  0  0  0  0  0  0  0  0  0  0
   12.4503   43.9266  130.8815 C   0  0  0  0  0  0  0  0  0  0  0  0
   11.8688   43.0770  131.7984 C   0  0  0  0  0  0  0  0  0  0  0  0
   10.5649   43.3070  132.1625 C   0  0  0  0  0  0  0  0  0  0  0  0
    9.8170   44.3544  131.6459 C   0  0  0  0  0  0  0  0  0  0  0  0
   13.7548   43.7883  130.4444 O   0  0  0  0  0  0  0  0  0  0  0  0
   14.2890   44.4176  129.3119 C   0  0  0  0  0  0  0  0  0  0  0  0
    9.9988   42.4382  133.0882 O   0  0  0  0  0  0  0  0  0  0  0  0
    8.6641   42.4897  133.5030 C   0  0  0  0  0  0  0  0  0  0  0  0
 10 11  1  0  0  0
 11  9  1  0  0  0
  9  3  1  0  0  0
  3  4  2  0  0  0
  4  5  1  0  0  0
  5  6  2  0  0  0
  6  1  1  0  0  0
  1  2  2  0  0  0
  2 12  1  0  0  0
 12 13  2  0  0  0
 13 14  1  0  0  0
 14 18  1  0  0  0
 18 19  1  0  0  0
 14 15  2  0  0  0
 15 16  1  0  0  0
 16 20  1  0  0  0
 20 21  1  0  0  0
 16 17  2  0  0  0
  6  7  1  0  0  0
  7  8  2  0  0  0
  8  3  1  0  0  0
 17 12  1  0  0  0
M  END
> <minimizedAffinity>
-2.41880

> <CNNscore>
0.5017878413

> <CNNaffinity>
6.6353845596

> <CNN_VS>
3.3295552731

> <CNNaffinity_variance>
1.3678988218

$$$$
[H]/C(=C(/[H])c1c([H])c(OC([H])([H])[H])c([H])c(OC([H])([H])[H])c1[H])c1c([H])c([H])c(OC([H])([H])C([H])([H])[H])c([H])c1[H]


 21 22  0  0  0  0  0  0  0  0999 V2000
    8.4569   47.4772  130.6161 C   0  0  0  0  0  0  0  0  0  0  0  0
    8.7571   48.6251  130.0556 C   0  0  0  0  0  0  0  0  0  0  0  0
   11.3493   44.4432  131.4148 C   0  0  0  0  0  0  0  0  0  0  0  0
   11.2594   45.0410  130.1795 C   0  0  0  0  0  0  0  0  0  0  0  0
   10.3115   46.0254  129.9413 C   0  0  0  0  0  0  0  0  0  0  0  0
    9.4369   46.4355  130.9197 C   0  0  0  0  0  0  0  0  0  0  0  0
    9.5260   45.8391  132.1534 C   0  0  0  0  0  0  0  0  0  0  0  0
   10.4777   44.8482  132.3986 C   0  0  0  0  0  0  0  0  0  0  0  0
   12.2820   43.4529  131.7013 O   0  0  0  0  0  0  0  0  0  0  0  0
   12.4534   43.7745  134.0738 C   0  0  0  0  0  0  0  0  0  0  0  0
   12.2102   42.7943  132.9437 C   0  0  0  0  0  0  0  0  0  0  0  0
    7.7541   49.6392  129.7680 C   0  0  0  0  0  0  0  0  0  0  0  0
    8.0199   50.5443  128.7361 C   0  0  0  0  0  0  0  0  0  0  0  0
    7.1459   51.5433  128.3767 C   0  0  0  0  0  0  0  0  0  0  0  0
    5.9534   51.6655  129.0575 C   0  0  0  0  0  0  0  0  0  0  0  0
    5.6893   50.7780  130.0715 C   0  0  0  0  0  0  0  0  0  0  0  0
    6.5714   49.7709  130.4334 C   0  0  0  0  0  0  0  0  0  0  0  0
    7.5137   52.3814  127.3402 O   0  0  0  0  0  0  0  0  0  0  0  0
    7.1608   53.7343  127.2429 C   0  0  0  0  0  0  0  0  0  0  0  0
    4.4812   50.9197  130.7443 O   0  0  0  0  0  0  0  0  0  0  0  0
    4.3595   51.4020  132.0514 C   0  0  0  0  0  0  0  0  0  0  0  0
 10 11  1  0  0  0
 11  9  1  0  0  0
  9  3  1  0  0  0
  3  4  2  0  0  0
  4  5  1  0  0  0
  5  6  2  0  0  0
  6  1  1  0  0  0
  1  2  2  0  0  0
  2 12  1  0  0  0
 12 13  2  0  0  0
 13 14  1  0  0  0
 14 18  1  0  0  0
 18 19  1  0  0  0
 14 15  2  0  0  0
 15 16  1  0  0  0
 16 20  1  0  0  0
 20 21  1  0  0  0
 16 17  2  0  0  0
  6  7  1  0  0  0
  7  8  2  0  0  0
  8  3  1  0  0  0
 17 12  1  0  0  0
M  END
> <minimizedAffinity>
6.61665

> <CNNscore>
0.5000266433

> <CNNaffinity>
6.3730697632

> <CNN_VS>
3.1867046356

> <CNNaffinity_variance>
1.2568813562

$$$$
[H]/C(=C(/[H])c1c([H])c(OC([H])([H])[H])c([H])c(OC([H])([H])[H])c1[H])c1c([H])c([H])c(OC([H])([H])C([H])([H])[H])c([H])c1[H]


 21 22  0  0  0  0  0  0  0  0999 V2000
    9.0550   47.7890  129.9974 C   0  0  0  0  0  0  0  0  0  0  0  0
    9.1537   48.9484  129.3906 C   0  0  0  0  0  0  0  0  0  0  0  0
   12.2116   44.9319  130.2828 C   0  0  0  0  0  0  0  0  0  0  0  0
   11.6867   45.5350  131.4018 C   0  0  0  0  0  0  0  0  0  0  0  0
   10.6606   46.4613  131.2863 C   0  0  0  0  0  0  0  0  0  0  0  0
   10.1361   46.8070  130.0633 C   0  0  0  0  0  0  0  0  0  0  0  0
   10.6596   46.2053  128.9455 C   0  0  0  0  0  0  0  0  0  0  0  0
   11.6920   45.2726  129.0558 C   0  0  0  0  0  0  0  0  0  0  0  0
   13.2396   43.9982  130.3478 O   0  0  0  0  0  0  0  0  0  0  0  0
   14.9226   43.5069  128.7085 C   0  0  0  0  0  0  0  0  0  0  0  0
   14.5189   44.3667  129.8896 C   0  0  0  0  0  0  0  0  0  0  0  0
    8.0554   49.9017  129.3454 C   0  0  0  0  0  0  0  0  0  0  0  0
    8.1096   50.9129  128.3815 C   0  0  0  0  0  0  0  0  0  0  0  0
    7.1292   51.8677  128.2462 C   0  0  0  0  0  0  0  0  0  0  0  0
    6.0421   51.8346  129.0932 C   0  0  0  0  0  0  0  0  0  0  0  0
    5.9858   50.8426  130.0411 C   0  0  0  0  0  0  0  0  0  0  0  0
    6.9750   49.8801  130.1768 C   0  0  0  0  0  0  0  0  0  0  0  0
    7.2879   52.8208  127.2570 O   0  0  0  0  0  0  0  0  0  0  0  0
    7.3197   54.2044  127.4782 C   0  0  0  0  0  0  0  0  0  0  0  0
    4.8808   50.8283  130.8842 O   0  0  0  0  0  0  0  0  0  0  0  0
    4.9528   50.6975  132.2748 C   0  0  0  0  0  0  0  0  0  0  0  0
 10 11  1  0  0  0
 11  9  1  0  0  0
  9  3  1  0  0  0
  3  4  2  0  0  0
  4  5  1  0  0  0
  5  6  2  0  0  0
  6  1  1  0  0  0
  1  2  2  0  0  0
  2 12  1  0  0  0
 12 13  2  0  0  0
 13 14  1  0  0  0
 14 18  1  0  0  0
 18 19  1  0  0  0
 14 15  2  0  0  0
 15 16  1  0  0  0
 16 20  1  0  0  0
 20 21  1  0  0  0
 16 17  2  0  0  0
  6  7  1  0  0  0
  7  8  2  0  0  0
  8  3  1  0  0  0
 17 12  1  0  0  0
M  END
> <minimizedAffinity>
11.68241

> <CNNscore>
0.4966458976

> <CNNaffinity>
5.9117836952

> <CNN_VS>
2.9360630512

> <CNNaffinity_variance>
1.3008741140

$$$$
[H]/C(=C(/[H])c1c([H])c(OC([H])([H])[H])c([H])c(OC([H])([H])[H])c1[H])c1c([H])c([H])c(OC([H])([H])C([H])([H])[H])c([H])c1[H]


 21 22  0  0  0  0  0  0  0  0999 V2000
    9.6478   46.9288  131.8089 C   0  0  0  0  0  0  0  0  0  0  0  0
    8.5841   46.3410  131.3138 C   0  0  0  0  0  0  0  0  0  0  0  0
    9.8328   51.0120  133.0347 C   0  0  0  0  0  0  0  0  0  0  0  0
   10.4155   50.0127  133.7786 C   0  0  0  0  0  0  0  0  0  0  0  0
   10.3434   48.6917  133.3617 C   0  0  0  0  0  0  0  0  0  0  0  0
    9.6944   48.3360  132.2029 C   0  0  0  0  0  0  0  0  0  0  0  0
    9.1124   49.3331  131.4596 C   0  0  0  0  0  0  0  0  0  0  0  0
    9.1818   50.6640  131.8743 C   0  0  0  0  0  0  0  0  0  0  0  0
    9.8785   52.3495  133.4112 O   0  0  0  0  0  0  0  0  0  0  0  0
    8.4554   51.5714  135.1807 C   0  0  0  0  0  0  0  0  0  0  0  0
    9.1705   52.7543  134.5589 C   0  0  0  0  0  0  0  0  0  0  0  0
    8.5747   44.9369  130.9325 C   0  0  0  0  0  0  0  0  0  0  0  0
    9.1814   44.5862  129.7227 C   0  0  0  0  0  0  0  0  0  0  0  0
    9.2325   43.2916  129.2617 C   0  0  0  0  0  0  0  0  0  0  0  0
    8.6636   42.2894  130.0182 C   0  0  0  0  0  0  0  0  0  0  0  0
    8.0670   42.6305  131.2070 C   0  0  0  0  0  0  0  0  0  0  0  0
    8.0159   43.9364  131.6711 C   0  0  0  0  0  0  0  0  0  0  0  0
    9.8586   43.0615  128.0505 O   0  0  0  0  0  0  0  0  0  0  0  0
   10.7880   43.9250  127.4546 C   0  0  0  0  0  0  0  0  0  0  0  0
    7.5000   41.6041  131.9534 O   0  0  0  0  0  0  0  0  0  0  0  0
    7.2898   41.6584  133.3350 C   0  0  0  0  0  0  0  0  0  0  0  0
 10 11  1  0  0  0
 11  9  1  0  0  0
  9  3  1  0  0  0
  3  4  2  0  0  0
  4  5  1  0  0  0
  5  6  2  0  0  0
  6  1  1  0  0  0
  1  2  2  0  0  0
  2 12  1  0  0  0
 12 13  2  0  0  0
 13 14  1  0  0  0
 14 18  1  0  0  0
 18 19  1  0  0  0
 14 15  2  0  0  0
 15 16  1  0  0  0
 16 20  1  0  0  0
 20 21  1  0  0  0
 16 17  2  0  0  0
  6  7  1  0  0  0
  7  8  2  0  0  0
  8  3  1  0  0  0
 17 12  1  0  0  0
M  END
> <minimizedAffinity>
11.97713

> <CNNscore>
0.4959204197

> <CNNaffinity>
6.4993224144

> <CNN_VS>
3.2231466770

> <CNNaffinity_variance>
2.1622476578

$$$$
[H]/C(C(=O)N(C([H])([H])[H])C([H])([H])c1sc2c([H])c([H])c([H])c([H])c2c1C([H])([H])[H])=C(/[H])c1c([H])nc2c(c1[H])C([H])([H])N([H])C([H])([H])C([H])([H])N2[H]


 30 33  0  0  0  0  0  0  0  0999 V2000
    9.2125   45.1010  130.2395 N   0  0  0  0  0  0  0  0  0  0  0  0
   10.4766   44.7077  129.6787 C   0  0  0  0  0  0  0  0  0  0  0  0
    9.1308   45.1169  131.7089 C   0  0  0  0  0  0  0  0  0  0  0  0
    8.0569   45.1094  132.3105 O   0  0  0  0  0  0  0  0  0  0  0  0
   10.3888   45.2066  132.4406 C   0  0  0  0  0  0  0  0  0  0  0  0
   10.6607   46.4136  132.9624 C   0  0  0  0  0  0  0  0  0  0  0  0
   11.8994   46.6731  133.7196 C   0  0  0  0  0  0  0  0  0  0  0  0
   12.7586   45.6297  133.9820 C   0  0  0  0  0  0  0  0  0  0  0  0
   13.8471   45.7565  134.8130 N   0  0  0  0  0  0  0  0  0  0  0  0
   14.0655   46.9530  135.3831 C   0  0  0  0  0  0  0  0  0  0  0  0
   13.2163   48.0099  135.1170 C   0  0  0  0  0  0  0  0  0  0  0  0
   12.1288   47.8868  134.2900 C   0  0  0  0  0  0  0  0  0  0  0  0
   13.3970   49.3856  135.6874 C   0  0  0  0  0  0  0  0  0  0  0  0
   13.2636   49.1930  137.1043 N   0  0  0  0  0  0  0  0  0  0  0  0
   14.4247   48.8504  137.8180 C   0  0  0  0  0  0  0  0  0  0  0  0
   15.4506   47.9578  137.2943 C   0  0  0  0  0  0  0  0  0  0  0  0
   15.1618   46.9700  136.3235 N   0  0  0  0  0  0  0  0  0  0  0  0
   12.4395   48.5626  137.2500 H   0  0  0  0  0  0  0  0  0  0  0  0
   15.7732   46.1285  136.2789 H   0  0  0  0  0  0  0  0  0  0  0  0
    8.0603   45.3893  129.5580 C   0  0  0  0  0  0  0  0  0  0  0  0
    5.1069   46.4828  129.9092 C   0  0  0  0  0  0  0  0  0  0  0  0
    6.3471   47.3394  129.5612 C   0  0  0  0  0  0  0  0  0  0  0  0
    7.4819   46.6844  129.2109 C   0  0  0  0  0  0  0  0  0  0  0  0
    8.5117   48.0700  128.7365 S   0  0  0  0  0  0  0  0  0  0  0  0
    7.4173   49.3332  129.0496 C   0  0  0  0  0  0  0  0  0  0  0  0
    7.5009   50.7351  128.9908 C   0  0  0  0  0  0  0  0  0  0  0  0
    6.4527   51.5343  129.3691 C   0  0  0  0  0  0  0  0  0  0  0  0
    5.3228   50.8633  129.8031 C   0  0  0  0  0  0  0  0  0  0  0  0
    5.2348   49.5281  129.8637 C   0  0  0  0  0  0  0  0  0  0  0  0
    6.3053   48.6840  129.4864 C   0  0  0  0  0  0  0  0  0  0  0  0
 21 22  1  0  0  0
 22 23  2  0  0  0
 23 20  1  0  0  0
 20  1  1  0  0  0
  1  2  1  0  0  0
  1  3  1  0  0  0
  3  4  2  0  0  0
  3  5  1  0  0  0
  5  6  2  0  0  0
  6  7  1  0  0  0
  7  8  2  0  0  0
  8  9  1  0  0  0
  9 10  2  0  0  0
 10 11  1  0  0  0
 11 12  2  0  0  0
 11 13  1  0  0  0
 13 14  1  0  0  0
 14 15  1  0  0  0
 15 16  1  0  0  0
 16 17  1  0  0  0
 23 24  1  0  0  0
 24 25  1  0  0  0
 25 26  2  0  0  0
 26 27  1  0  0  0
 27 28  2  0  0  0
 28 29  1  0  0  0
 29 30  2  0  0  0
 30 22  1  0  0  0
 12  7  1  0  0  0
 30 25  1  0  0  0
 17 10  1  0  0  0
 14 18  1  0  0  0
 17 19  1  0  0  0
M  END
> <minimizedAffinity>
16.88862

> <CNNscore>
0.5091001391

> <CNNaffinity>
7.0372428894

> <CNN_VS>
3.5826613903

> <CNNaffinity_variance>
1.4097437859

$$$$
[H]/C(C(=O)N(C([H])([H])[H])C([H])([H])c1sc2c([H])c([H])c([H])c([H])c2c1C([H])([H])[H])=C(/[H])c1c([H])nc2c(c1[H])C([H])([H])N([H])C([H])([H])C([H])([H])N2[H]


 30 33  0  0  0  0  0  0  0  0999 V2000
    6.7839   47.6523  129.7348 N   0  0  0  0  0  0  0  0  0  0  0  0
    6.6544   47.1842  128.3815 C   0  0  0  0  0  0  0  0  0  0  0  0
    7.2270   49.0459  129.9004 C   0  0  0  0  0  0  0  0  0  0  0  0
    7.6884   49.4705  130.9596 O   0  0  0  0  0  0  0  0  0  0  0  0
    7.0391   49.9394  128.7635 C   0  0  0  0  0  0  0  0  0  0  0  0
    7.4593   51.2005  128.9533 C   0  0  0  0  0  0  0  0  0  0  0  0
    7.3284   52.2305  127.9058 C   0  0  0  0  0  0  0  0  0  0  0  0
    6.2525   53.0893  127.9374 C   0  0  0  0  0  0  0  0  0  0  0  0
    5.9741   53.9669  126.9158 N   0  0  0  0  0  0  0  0  0  0  0  0
    6.7946   53.9729  125.8524 C   0  0  0  0  0  0  0  0  0  0  0  0
    7.8839   53.1237  125.8160 C   0  0  0  0  0  0  0  0  0  0  0  0
    8.1640   52.2460  126.8323 C   0  0  0  0  0  0  0  0  0  0  0  0
    8.8665   53.0799  124.6832 C   0  0  0  0  0  0  0  0  0  0  0  0
    8.0775   52.6665  123.5566 N   0  0  0  0  0  0  0  0  0  0  0  0
    7.4264   53.6738  122.8243 C   0  0  0  0  0  0  0  0  0  0  0  0
    6.8254   54.8491  123.4415 C   0  0  0  0  0  0  0  0  0  0  0  0
    6.3694   54.8433  124.7808 N   0  0  0  0  0  0  0  0  0  0  0  0
    7.4693   51.8784  123.8832 H   0  0  0  0  0  0  0  0  0  0  0  0
    5.6160   55.5101  125.0484 H   0  0  0  0  0  0  0  0  0  0  0  0
    6.6120   46.9231  130.8811 C   0  0  0  0  0  0  0  0  0  0  0  0
    8.2963   44.5322  129.6615 C   0  0  0  0  0  0  0  0  0  0  0  0
    8.4727   45.1242  131.0797 C   0  0  0  0  0  0  0  0  0  0  0  0
    7.5151   45.9745  131.5265 C   0  0  0  0  0  0  0  0  0  0  0  0
    8.0643   46.2083  133.2145 S   0  0  0  0  0  0  0  0  0  0  0  0
    9.4554   45.2312  133.1786 C   0  0  0  0  0  0  0  0  0  0  0  0
   10.4731   44.9461  134.1053 C   0  0  0  0  0  0  0  0  0  0  0  0
   11.5393   44.1477  133.7793 C   0  0  0  0  0  0  0  0  0  0  0  0
   11.5334   43.6496  132.4881 C   0  0  0  0  0  0  0  0  0  0  0  0
   10.5686   43.9170  131.5981 C   0  0  0  0  0  0  0  0  0  0  0  0
    9.4639   44.7438  131.9092 C   0  0  0  0  0  0  0  0  0  0  0  0
 21 22  1  0  0  0
 22 23  2  0  0  0
 23 20  1  0  0  0
 20  1  1  0  0  0
  1  2  1  0  0  0
  1  3  1  0  0  0
  3  4  2  0  0  0
  3  5  1  0  0  0
  5  6  2  0  0  0
  6  7  1  0  0  0
  7  8  2  0  0  0
  8  9  1  0  0  0
  9 10  2  0  0  0
 10 11  1  0  0  0
 11 12  2  0  0  0
 11 13  1  0  0  0
 13 14  1  0  0  0
 14 15  1  0  0  0
 15 16  1  0  0  0
 16 17  1  0  0  0
 23 24  1  0  0  0
 24 25  1  0  0  0
 25 26  2  0  0  0
 26 27  1  0  0  0
 27 28  2  0  0  0
 28 29  1  0  0  0
 29 30  2  0  0  0
 30 22  1  0  0  0
 12  7  1  0  0  0
 30 25  1  0  0  0
 17 10  1  0  0  0
 14 18  1  0  0  0
 17 19  1  0  0  0
M  END
> <minimizedAffinity>
9.35470

> <CNNscore>
0.4742965996

> <CNNaffinity>
6.8176755905

> <CNN_VS>
3.2336003780

> <CNNaffinity_variance>
0.8839758039

$$$$
[H]/C(C(=O)N(C([H])([H])[H])C([H])([H])c1sc2c([H])c([H])c([H])c([H])c2c1C([H])([H])[H])=C(/[H])c1c([H])nc2c(c1[H])C([H])([H])N([H])C([H])([H])C([H])([H])N2[H]


 30 33  0  0  0  0  0  0  0  0999 V2000
   10.3712   45.5993  129.2101 N   0  0  0  0  0  0  0  0  0  0  0  0
    9.6192   44.6127  128.4833 C   0  0  0  0  0  0  0  0  0  0  0  0
    9.8721   46.9817  129.1346 C   0  0  0  0  0  0  0  0  0  0  0  0
   10.5727   47.9530  129.4193 O   0  0  0  0  0  0  0  0  0  0  0  0
    8.4732   47.1608  128.7642 C   0  0  0  0  0  0  0  0  0  0  0  0
    7.6777   47.6199  129.7436 C   0  0  0  0  0  0  0  0  0  0  0  0
    6.2349   47.8424  129.5344 C   0  0  0  0  0  0  0  0  0  0  0  0
    5.7304   49.1201  129.6294 C   0  0  0  0  0  0  0  0  0  0  0  0
    4.3818   49.3885  129.6064 N   0  0  0  0  0  0  0  0  0  0  0  0
    3.5373   48.3509  129.4862 C   0  0  0  0  0  0  0  0  0  0  0  0
    4.0333   47.0659  129.3781 C   0  0  0  0  0  0  0  0  0  0  0  0
    5.3777   46.7942  129.4021 C   0  0  0  0  0  0  0  0  0  0  0  0
    3.1678   45.8515  129.2148 C   0  0  0  0  0  0  0  0  0  0  0  0
    2.3925   45.8142  130.4231 N   0  0  0  0  0  0  0  0  0  0  0  0
    1.1933   46.5468  130.4396 C   0  0  0  0  0  0  0  0  0  0  0  0
    1.0414   47.8459  129.7972 C   0  0  0  0  0  0  0  0  0  0  0  0
    2.1411   48.7093  129.5804 N   0  0  0  0  0  0  0  0  0  0  0  0
    3.0519   46.0062  131.2144 H   0  0  0  0  0  0  0  0  0  0  0  0
    1.9591   49.7318  129.5095 H   0  0  0  0  0  0  0  0  0  0  0  0
   11.5377   45.4053  129.9007 C   0  0  0  0  0  0  0  0  0  0  0  0
   10.6275   47.2449  132.3149 C   0  0  0  0  0  0  0  0  0  0  0  0
   11.1941   45.8111  132.4414 C   0  0  0  0  0  0  0  0  0  0  0  0
   11.7576   45.2611  131.3370 C   0  0  0  0  0  0  0  0  0  0  0  0
   12.4036   43.7443  132.0352 S   0  0  0  0  0  0  0  0  0  0  0  0
   11.8785   43.9462  133.6398 C   0  0  0  0  0  0  0  0  0  0  0  0
   11.9385   43.1478  134.7951 C   0  0  0  0  0  0  0  0  0  0  0  0
   11.3624   43.5451  135.9744 C   0  0  0  0  0  0  0  0  0  0  0  0
   10.7303   44.7758  135.9398 C   0  0  0  0  0  0  0  0  0  0  0  0
   10.6671   45.5426  134.8433 C   0  0  0  0  0  0  0  0  0  0  0  0
   11.2468   45.1501  133.6142 C   0  0  0  0  0  0  0  0  0  0  0  0
 21 22  1  0  0  0
 22 23  2  0  0  0
 23 20  1  0  0  0
 20  1  1  0  0  0
  1  2  1  0  0  0
  1  3  1  0  0  0
  3  4  2  0  0  0
  3  5  1  0  0  0
  5  6  2  0  0  0
  6  7  1  0  0  0
  7  8  2  0  0  0
  8  9  1  0  0  0
  9 10  2  0  0  0
 10 11  1  0  0  0
 11 12  2  0  0  0
 11 13  1  0  0  0
 13 14  1  0  0  0
 14 15  1  0  0  0
 15 16  1  0  0  0
 16 17  1  0  0  0
 23 24  1  0  0  0
 24 25  1  0  0  0
 25 26  2  0  0  0
 26 27  1  0  0  0
 27 28  2  0  0  0
 28 29  1  0  0  0
 29 30  2  0  0  0
 30 22  1  0  0  0
 12  7  1  0  0  0
 30 25  1  0  0  0
 17 10  1  0  0  0
 14 18  1  0  0  0
 17 19  1  0  0  0
M  END
> <minimizedAffinity>
20.56499

> <CNNscore>
0.4344778955

> <CNNaffinity>
7.2352457047

> <CNN_VS>
3.1435542107

> <CNNaffinity_variance>
0.5629566312

$$$$
[H]/C(C(=O)N(C([H])([H])[H])C([H])([H])c1sc2c([H])c([H])c([H])c([H])c2c1C([H])([H])[H])=C(/[H])c1c([H])nc2c(c1[H])C([H])([H])N([H])C([H])([H])C([H])([H])N2[H]


 30 33  0  0  0  0  0  0  0  0999 V2000
   11.9337   44.8175  131.0322 N   0  0  0  0  0  0  0  0  0  0  0  0
   12.1314   45.2172  129.6653 C   0  0  0  0  0  0  0  0  0  0  0  0
   11.6991   45.9023  131.9986 C   0  0  0  0  0  0  0  0  0  0  0  0
   11.8400   45.7478  133.2116 O   0  0  0  0  0  0  0  0  0  0  0  0
   11.2244   47.1733  131.4642 C   0  0  0  0  0  0  0  0  0  0  0  0
    9.9087   47.2261  131.2013 C   0  0  0  0  0  0  0  0  0  0  0  0
    9.2742   48.4354  130.6446 C   0  0  0  0  0  0  0  0  0  0  0  0
    9.5858   49.6655  131.1791 C   0  0  0  0  0  0  0  0  0  0  0  0
    8.9222   50.8172  130.8259 N   0  0  0  0  0  0  0  0  0  0  0  0
    7.9330   50.7197  129.9225 C   0  0  0  0  0  0  0  0  0  0  0  0
    7.6202   49.4921  129.3710 C   0  0  0  0  0  0  0  0  0  0  0  0
    8.2789   48.3410  129.7218 C   0  0  0  0  0  0  0  0  0  0  0  0
    6.5505   49.2928  128.3382 C   0  0  0  0  0  0  0  0  0  0  0  0
    5.3425   49.6785  129.0124 N   0  0  0  0  0  0  0  0  0  0  0  0
    4.9912   51.0386  128.9729 C   0  0  0  0  0  0  0  0  0  0  0  0
    5.9661   52.1186  129.0534 C   0  0  0  0  0  0  0  0  0  0  0  0
    7.2184   51.9534  129.6908 N   0  0  0  0  0  0  0  0  0  0  0  0
    5.3744   49.2461  129.9662 H   0  0  0  0  0  0  0  0  0  0  0  0
    7.6897   52.7969  130.0786 H   0  0  0  0  0  0  0  0  0  0  0  0
   12.0134   43.5489  131.5416 C   0  0  0  0  0  0  0  0  0  0  0  0
   11.2220   42.8842  134.5372 C   0  0  0  0  0  0  0  0  0  0  0  0
   10.3683   42.5592  133.2887 C   0  0  0  0  0  0  0  0  0  0  0  0
   10.9592   42.6908  132.0750 C   0  0  0  0  0  0  0  0  0  0  0  0
    9.6671   42.0352  131.0230 S   0  0  0  0  0  0  0  0  0  0  0  0
    8.5068   41.6845  132.2155 C   0  0  0  0  0  0  0  0  0  0  0  0
    7.1870   41.2020  132.1822 C   0  0  0  0  0  0  0  0  0  0  0  0
    6.4410   41.0692  133.3252 C   0  0  0  0  0  0  0  0  0  0  0  0
    7.0802   41.4383  134.4959 C   0  0  0  0  0  0  0  0  0  0  0  0
    8.3369   41.9002  134.5368 C   0  0  0  0  0  0  0  0  0  0  0  0
    9.1224   42.0530  133.3705 C   0  0  0  0  0  0  0  0  0  0  0  0
 21 22  1  0  0  0
 22 23  2  0  0  0
 23 20  1  0  0  0
 20  1  1  0  0  0
  1  2  1  0  0  0
  1  3  1  0  0  0
  3  4  2  0  0  0
  3  5  1  0  0  0
  5  6  2  0  0  0
  6  7  1  0  0  0
  7  8  2  0  0  0
  8  9  1  0  0  0
  9 10  2  0  0  0
 10 11  1  0  0  0
 11 12  2  0  0  0
 11 13  1  0  0  0
 13 14  1  0  0  0
 14 15  1  0  0  0
 15 16  1  0  0  0
 16 17  1  0  0  0
 23 24  1  0  0  0
 24 25  1  0  0  0
 25 26  2  0  0  0
 26 27  1  0  0  0
 27 28  2  0  0  0
 28 29  1  0  0  0
 29 30  2  0  0  0
 30 22  1  0  0  0
 12  7  1  0  0  0
 30 25  1  0  0  0
 17 10  1  0  0  0
 14 18  1  0  0  0
 17 19  1  0  0  0
M  END
> <minimizedAffinity>
17.67184

> <CNNscore>
0.4312069714

> <CNNaffinity>
7.3685393333

> <CNN_VS>
3.1773655415

> <CNNaffinity_variance>
1.4135189056

$$$$
[H]/C(C(=O)N(C([H])([H])[H])C([H])([H])c1sc2c([H])c([H])c([H])c([H])c2c1C([H])([H])[H])=C(/[H])c1c([H])nc2c(c1[H])C([H])([H])N([H])C([H])([H])C([H])([H])N2[H]


 30 33  0  0  0  0  0  0  0  0999 V2000
   10.1325   45.7105  129.1742 N   0  0  0  0  0  0  0  0  0  0  0  0
   11.1093   45.8998  128.1364 C   0  0  0  0  0  0  0  0  0  0  0  0
    9.4933   44.3861  129.2308 C   0  0  0  0  0  0  0  0  0  0  0  0
    8.4368   44.1880  129.8305 O   0  0  0  0  0  0  0  0  0  0  0  0
   10.2007   43.2823  128.5925 C   0  0  0  0  0  0  0  0  0  0  0  0
    9.5207   42.6556  127.6190 C   0  0  0  0  0  0  0  0  0  0  0  0
   10.0907   41.5109  126.8843 C   0  0  0  0  0  0  0  0  0  0  0  0
    9.3896   40.3268  126.8345 C   0  0  0  0  0  0  0  0  0  0  0  0
    9.9208   39.1720  126.3096 N   0  0  0  0  0  0  0  0  0  0  0  0
   11.1750   39.2189  125.8312 C   0  0  0  0  0  0  0  0  0  0  0  0
   11.8831   40.4048  125.8654 C   0  0  0  0  0  0  0  0  0  0  0  0
   11.3572   41.5583  126.3895 C   0  0  0  0  0  0  0  0  0  0  0  0
   13.2768   40.5568  125.3315 C   0  0  0  0  0  0  0  0  0  0  0  0
   14.0589   39.6722  126.1492 N   0  0  0  0  0  0  0  0  0  0  0  0
   14.1520   38.3316  125.7379 C   0  0  0  0  0  0  0  0  0  0  0  0
   13.0415   37.5992  125.1430 C   0  0  0  0  0  0  0  0  0  0  0  0
   11.6930   37.9412  125.4003 N   0  0  0  0  0  0  0  0  0  0  0  0
   13.7525   39.8222  127.1398 H   0  0  0  0  0  0  0  0  0  0  0  0
   10.9696   37.1980  125.3095 H   0  0  0  0  0  0  0  0  0  0  0  0
    9.6809   46.6480  130.0645 C   0  0  0  0  0  0  0  0  0  0  0  0
   10.6008   44.5099  132.2148 C   0  0  0  0  0  0  0  0  0  0  0  0
    9.8384   45.8208  132.5199 C   0  0  0  0  0  0  0  0  0  0  0  0
    9.3115   46.4975  131.4692 C   0  0  0  0  0  0  0  0  0  0  0  0
    8.4065   47.7744  132.3388 S   0  0  0  0  0  0  0  0  0  0  0  0
    8.8028   47.3404  133.9344 C   0  0  0  0  0  0  0  0  0  0  0  0
    8.5296   47.8988  135.1951 C   0  0  0  0  0  0  0  0  0  0  0  0
    9.0417   47.3587  136.3468 C   0  0  0  0  0  0  0  0  0  0  0  0
    9.8331   46.2366  136.1741 C   0  0  0  0  0  0  0  0  0  0  0  0
   10.0997   45.6985  134.9767 C   0  0  0  0  0  0  0  0  0  0  0  0
    9.5892   46.2427  133.7750 C   0  0  0  0  0  0  0  0  0  0  0  0
 21 22  1  0  0  0
 22 23  2  0  0  0
 23 20  1  0  0  0
 20  1  1  0  0  0
  1  2  1  0  0  0
  1  3  1  0  0  0
  3  4  2  0  0  0
  3  5  1  0  0  0
  5  6  2  0  0  0
  6  7  1  0  0  0
  7  8  2  0  0  0
  8  9  1  0  0  0
  9 10  2  0  0  0
 10 11  1  0  0  0
 11 12  2  0  0  0
 11 13  1  0  0  0
 13 14  1  0  0  0
 14 15  1  0  0  0
 15 16  1  0  0  0
 16 17  1  0  0  0
 23 24  1  0  0  0
 24 25  1  0  0  0
 25 26  2  0  0  0
 26 27  1  0  0  0
 27 28  2  0  0  0
 28 29  1  0  0  0
 29 30  2  0  0  0
 30 22  1  0  0  0
 12  7  1  0  0  0
 30 25  1  0  0  0
 17 10  1  0  0  0
 14 18  1  0  0  0
 17 19  1  0  0  0
M  END
> <minimizedAffinity>
32.77365

> <CNNscore>
0.4307244718

> <CNNaffinity>
6.9196791649

> <CNN_VS>
2.9804751873

> <CNNaffinity_variance>
1.3025493622

$$$$
[H]/C(C(=O)N(C([H])([H])[H])C([H])([H])c1sc2c([H])c([H])c([H])c([H])c2c1C([H])([H])[H])=C(/[H])c1c([H])nc2c(c1[H])C([H])([H])N([H])C([H])([H])C([H])([H])N2[H]


 30 33  0  0  0  0  0  0  0  0999 V2000
    8.8467   44.2042  132.8873 N   0  0  0  0  0  0  0  0  0  0  0  0
    8.5765   45.1680  133.9194 C   0  0  0  0  0  0  0  0  0  0  0  0
    7.8712   44.1399  131.7872 C   0  0  0  0  0  0  0  0  0  0  0  0
    7.7917   43.1719  131.0310 O   0  0  0  0  0  0  0  0  0  0  0  0
    7.0282   45.3117  131.5812 C   0  0  0  0  0  0  0  0  0  0  0  0
    7.3682   46.0827  130.5358 C   0  0  0  0  0  0  0  0  0  0  0  0
    6.6242   47.3111  130.2001 C   0  0  0  0  0  0  0  0  0  0  0  0
    5.4233   47.2095  129.5342 C   0  0  0  0  0  0  0  0  0  0  0  0
    4.7507   48.3056  129.0467 N   0  0  0  0  0  0  0  0  0  0  0  0
    5.3020   49.5158  129.2364 C   0  0  0  0  0  0  0  0  0  0  0  0
    6.5007   49.6299  129.9138 C   0  0  0  0  0  0  0  0  0  0  0  0
    7.1752   48.5388  130.4002 C   0  0  0  0  0  0  0  0  0  0  0  0
    7.1759   50.9399  130.1942 C   0  0  0  0  0  0  0  0  0  0  0  0
    7.4736   51.4618  128.8897 N   0  0  0  0  0  0  0  0  0  0  0  0
    6.4745   52.2228  128.2592 C   0  0  0  0  0  0  0  0  0  0  0  0
    5.0540   51.9111  128.3523 C   0  0  0  0  0  0  0  0  0  0  0  0
    4.5882   50.5983  128.5999 N   0  0  0  0  0  0  0  0  0  0  0  0
    7.8633   50.6693  128.3260 H   0  0  0  0  0  0  0  0  0  0  0  0
    3.6359   50.3416  128.2666 H   0  0  0  0  0  0  0  0  0  0  0  0
    9.8684   43.2930  132.8550 C   0  0  0  0  0  0  0  0  0  0  0  0
    9.9740   42.7408  129.7365 C   0  0  0  0  0  0  0  0  0  0  0  0
   11.1518   43.2523  130.5991 C   0  0  0  0  0  0  0  0  0  0  0  0
   11.0083   43.2027  131.9469 C   0  0  0  0  0  0  0  0  0  0  0  0
   12.6505   43.7011  132.4570 S   0  0  0  0  0  0  0  0  0  0  0  0
   13.3426   43.9437  130.9228 C   0  0  0  0  0  0  0  0  0  0  0  0
   14.5926   44.4069  130.4773 C   0  0  0  0  0  0  0  0  0  0  0  0
   14.8668   44.5653  129.1430 C   0  0  0  0  0  0  0  0  0  0  0  0
   13.8341   44.2353  128.2829 C   0  0  0  0  0  0  0  0  0  0  0  0
   12.6395   43.7944  128.6986 C   0  0  0  0  0  0  0  0  0  0  0  0
   12.3314   43.6307  130.0693 C   0  0  0  0  0  0  0  0  0  0  0  0
 21 22  1  0  0  0
 22 23  2  0  0  0
 23 20  1  0  0  0
 20  1  1  0  0  0
  1  2  1  0  0  0
  1  3  1  0  0  0
  3  4  2  0  0  0
  3  5  1  0  0  0
  5  6  2  0  0  0
  6  7  1  0  0  0
  7  8  2  0  0  0
  8  9  1  0  0  0
  9 10  2  0  0  0
 10 11  1  0  0  0
 11 12  2  0  0  0
 11 13  1  0  0  0
 13 14  1  0  0  0
 14 15  1  0  0  0
 15 16  1  0  0  0
 16 17  1  0  0  0
 23 24  1  0  0  0
 24 25  1  0  0  0
 25 26  2  0  0  0
 26 27  1  0  0  0
 27 28  2  0  0  0
 28 29  1  0  0  0
 29 30  2  0  0  0
 30 22  1  0  0  0
 12  7  1  0  0  0
 30 25  1  0  0  0
 17 10  1  0  0  0
 14 18  1  0  0  0
 17 19  1  0  0  0
M  END
> <minimizedAffinity>
15.22730

> <CNNscore>
0.4151429236

> <CNNaffinity>
7.1438016891

> <CNN_VS>
2.9656987190

> <CNNaffinity_variance>
0.8051458597

$$$$
[H]/C(C(=O)N(C([H])([H])[H])C([H])([H])c1sc2c([H])c([H])c([H])c([H])c2c1C([H])([H])[H])=C(/[H])c1c([H])nc2c(c1[H])C([H])([H])N([H])C([H])([H])C([H])([H])N2[H]


 30 33  0  0  0  0  0  0  0  0999 V2000
    7.6632   44.0532  131.0135 N   0  0  0  0  0  0  0  0  0  0  0  0
    6.6362   44.9891  131.3828 C   0  0  0  0  0  0  0  0  0  0  0  0
    8.1480   44.1348  129.6264 C   0  0  0  0  0  0  0  0  0  0  0  0
    8.7637   43.2154  129.0870 O   0  0  0  0  0  0  0  0  0  0  0  0
    7.9242   45.3907  128.9201 C   0  0  0  0  0  0  0  0  0  0  0  0
    7.5402   46.4195  129.6929 C   0  0  0  0  0  0  0  0  0  0  0  0
    7.2607   47.7537  129.1301 C   0  0  0  0  0  0  0  0  0  0  0  0
    7.6917   48.0505  127.8564 C   0  0  0  0  0  0  0  0  0  0  0  0
    7.6122   49.3155  127.3226 N   0  0  0  0  0  0  0  0  0  0  0  0
    7.0909   50.2882  128.0883 C   0  0  0  0  0  0  0  0  0  0  0  0
    6.6444   49.9987  129.3633 C   0  0  0  0  0  0  0  0  0  0  0  0
    6.7234   48.7386  129.8997 C   0  0  0  0  0  0  0  0  0  0  0  0
    6.0257   51.0140  130.2782 C   0  0  0  0  0  0  0  0  0  0  0  0
    7.0761   51.9687  130.4963 N   0  0  0  0  0  0  0  0  0  0  0  0
    7.1925   53.0185  129.5693 C   0  0  0  0  0  0  0  0  0  0  0  0
    6.9695   52.8502  128.1391 C   0  0  0  0  0  0  0  0  0  0  0  0
    7.1450   51.6035  127.4936 N   0  0  0  0  0  0  0  0  0  0  0  0
    7.9522   51.4226  130.6750 H   0  0  0  0  0  0  0  0  0  0  0  0
    7.3741   51.6017  126.4780 H   0  0  0  0  0  0  0  0  0  0  0  0
    8.1838   43.0503  131.7871 C   0  0  0  0  0  0  0  0  0  0  0  0
   10.9739   41.5822  131.4691 C   0  0  0  0  0  0  0  0  0  0  0  0
   10.6613   42.7085  132.4824 C   0  0  0  0  0  0  0  0  0  0  0  0
    9.3609   43.0552  132.6512 C   0  0  0  0  0  0  0  0  0  0  0  0
    9.5169   44.2102  134.0103 S   0  0  0  0  0  0  0  0  0  0  0  0
   11.2044   44.1565  134.2117 C   0  0  0  0  0  0  0  0  0  0  0  0
   12.1114   44.8385  135.0411 C   0  0  0  0  0  0  0  0  0  0  0  0
   13.4644   44.6359  134.9466 C   0  0  0  0  0  0  0  0  0  0  0  0
   13.8606   43.7195  133.9883 C   0  0  0  0  0  0  0  0  0  0  0  0
   13.0035   43.0660  133.1928 C   0  0  0  0  0  0  0  0  0  0  0  0
   11.6051   43.2645  133.2669 C   0  0  0  0  0  0  0  0  0  0  0  0
 21 22  1  0  0  0
 22 23  2  0  0  0
 23 20  1  0  0  0
 20  1  1  0  0  0
  1  2  1  0  0  0
  1  3  1  0  0  0
  3  4  2  0  0  0
  3  5  1  0  0  0
  5  6  2  0  0  0
  6  7  1  0  0  0
  7  8  2  0  0  0
  8  9  1  0  0  0
  9 10  2  0  0  0
 10 11  1  0  0  0
 11 12  2  0  0  0
 11 13  1  0  0  0
 13 14  1  0  0  0
 14 15  1  0  0  0
 15 16  1  0  0  0
 16 17  1  0  0  0
 23 24  1  0  0  0
 24 25  1  0  0  0
 25 26  2  0  0  0
 26 27  1  0  0  0
 27 28  2  0  0  0
 28 29  1  0  0  0
 29 30  2  0  0  0
 30 22  1  0  0  0
 12  7  1  0  0  0
 30 25  1  0  0  0
 17 10  1  0  0  0
 14 18  1  0  0  0
 17 19  1  0  0  0
M  END
> <minimizedAffinity>
18.14422

> <CNNscore>
0.4116216302

> <CNNaffinity>
7.1666855812

> <CNN_VS>
2.9499628544

> <CNNaffinity_variance>
2.5305938721

$$$$
[H]/C(C(=O)N(C([H])([H])[H])C([H])([H])c1sc2c([H])c([H])c([H])c([H])c2c1C([H])([H])[H])=C(/[H])c1c([H])nc2c(c1[H])C([H])([H])N([H])C([H])([H])C([H])([H])N2[H]


 30 33  0  0  0  0  0  0  0  0999 V2000
    8.2663   48.7219  130.3464 N   0  0  0  0  0  0  0  0  0  0  0  0
    7.9423   48.5059  128.9624 C   0  0  0  0  0  0  0  0  0  0  0  0
    8.5044   50.1177  130.7475 C   0  0  0  0  0  0  0  0  0  0  0  0
    9.0964   50.4147  131.7850 O   0  0  0  0  0  0  0  0  0  0  0  0
    7.9492   51.1568  129.8883 C   0  0  0  0  0  0  0  0  0  0  0  0
    8.4234   51.1726  128.6322 C   0  0  0  0  0  0  0  0  0  0  0  0
    7.9733   52.1693  127.6428 C   0  0  0  0  0  0  0  0  0  0  0  0
    6.9389   53.0186  127.9660 C   0  0  0  0  0  0  0  0  0  0  0  0
    6.3581   53.8626  127.0485 N   0  0  0  0  0  0  0  0  0  0  0  0
    6.8309   53.8442  125.7915 C   0  0  0  0  0  0  0  0  0  0  0  0
    7.8766   53.0044  125.4594 C   0  0  0  0  0  0  0  0  0  0  0  0
    8.4575   52.1602  126.3713 C   0  0  0  0  0  0  0  0  0  0  0  0
    8.4850   52.9355  124.0898 C   0  0  0  0  0  0  0  0  0  0  0  0
    7.4081   52.4812  123.2552 N   0  0  0  0  0  0  0  0  0  0  0  0
    6.5534   53.4600  122.7201 C   0  0  0  0  0  0  0  0  0  0  0  0
    6.1388   54.6476  123.4556 C   0  0  0  0  0  0  0  0  0  0  0  0
    6.0952   54.6779  124.8694 N   0  0  0  0  0  0  0  0  0  0  0  0
    6.9362   51.6977  123.7663 H   0  0  0  0  0  0  0  0  0  0  0  0
    5.4416   55.3455  125.3287 H   0  0  0  0  0  0  0  0  0  0  0  0
    8.4494   47.7669  131.3107 C   0  0  0  0  0  0  0  0  0  0  0  0
    8.5634   44.8092  132.4420 C   0  0  0  0  0  0  0  0  0  0  0  0
    9.7299   45.5519  131.7485 C   0  0  0  0  0  0  0  0  0  0  0  0
    9.5897   46.8855  131.5449 C   0  0  0  0  0  0  0  0  0  0  0  0
   11.2202   47.2818  130.9203 S   0  0  0  0  0  0  0  0  0  0  0  0
   11.9038   45.7253  130.9571 C   0  0  0  0  0  0  0  0  0  0  0  0
   13.1415   45.1923  130.5576 C   0  0  0  0  0  0  0  0  0  0  0  0
   13.4097   43.8506  130.6489 C   0  0  0  0  0  0  0  0  0  0  0  0
   12.3840   43.0749  131.1602 C   0  0  0  0  0  0  0  0  0  0  0  0
   11.2011   43.5740  131.5422 C   0  0  0  0  0  0  0  0  0  0  0  0
   10.8992   44.9528  131.4500 C   0  0  0  0  0  0  0  0  0  0  0  0
 21 22  1  0  0  0
 22 23  2  0  0  0
 23 20  1  0  0  0
 20  1  1  0  0  0
  1  2  1  0  0  0
  1  3  1  0  0  0
  3  4  2  0  0  0
  3  5  1  0  0  0
  5  6  2  0  0  0
  6  7  1  0  0  0
  7  8  2  0  0  0
  8  9  1  0  0  0
  9 10  2  0  0  0
 10 11  1  0  0  0
 11 12  2  0  0  0
 11 13  1  0  0  0
 13 14  1  0  0  0
 14 15  1  0  0  0
 15 16  1  0  0  0
 16 17  1  0  0  0
 23 24  1  0  0  0
 24 25  1  0  0  0
 25 26  2  0  0  0
 26 27  1  0  0  0
 27 28  2  0  0  0
 28 29  1  0  0  0
 29 30  2  0  0  0
 30 22  1  0  0  0
 12  7  1  0  0  0
 30 25  1  0  0  0
 17 10  1  0  0  0
 14 18  1  0  0  0
 17 19  1  0  0  0
M  END
> <minimizedAffinity>
19.37070

> <CNNscore>
0.4019021392

> <CNNaffinity>
6.4799804688

> <CNN_VS>
2.6043179035

> <CNNaffinity_variance>
1.2571192980

$$$$
[H]/C(C(=O)N(C([H])([H])[H])C([H])([H])c1sc2c([H])c([H])c([H])c([H])c2c1C([H])([H])[H])=C(/[H])c1c([H])nc2c(c1[H])C([H])([H])N([H])C([H])([H])C([H])([H])N2[H]


 30 33  0  0  0  0  0  0  0  0999 V2000
    9.3073   45.8330  128.7197 N   0  0  0  0  0  0  0  0  0  0  0  0
   10.7200   46.0144  128.9153 C   0  0  0  0  0  0  0  0  0  0  0  0
    8.6976   44.6866  129.4124 C   0  0  0  0  0  0  0  0  0  0  0  0
    7.6045   44.2236  129.0869 O   0  0  0  0  0  0  0  0  0  0  0  0
    9.4181   44.1475  130.5598 C   0  0  0  0  0  0  0  0  0  0  0  0
    9.7687   45.0508  131.4893 C   0  0  0  0  0  0  0  0  0  0  0  0
   10.5137   44.6690  132.7036 C   0  0  0  0  0  0  0  0  0  0  0  0
   11.2809   43.5256  132.6907 C   0  0  0  0  0  0  0  0  0  0  0  0
   11.8742   43.0179  133.8228 N   0  0  0  0  0  0  0  0  0  0  0  0
   11.6869   43.6762  134.9786 C   0  0  0  0  0  0  0  0  0  0  0  0
   10.9288   44.8310  135.0004 C   0  0  0  0  0  0  0  0  0  0  0  0
   10.3343   45.3397  133.8736 C   0  0  0  0  0  0  0  0  0  0  0  0
   10.6880   45.6443  136.2379 C   0  0  0  0  0  0  0  0  0  0  0  0
    9.9699   44.7519  137.1041 N   0  0  0  0  0  0  0  0  0  0  0  0
   10.7313   43.9044  137.9269 C   0  0  0  0  0  0  0  0  0  0  0  0
   11.9747   43.2782  137.4965 C   0  0  0  0  0  0  0  0  0  0  0  0
   12.2514   43.0176  136.1337 N   0  0  0  0  0  0  0  0  0  0  0  0
    9.2406   44.2798  136.5185 H   0  0  0  0  0  0  0  0  0  0  0  0
   12.9095   42.2447  135.9029 H   0  0  0  0  0  0  0  0  0  0  0  0
    8.4857   46.5639  127.9034 C   0  0  0  0  0  0  0  0  0  0  0  0
    5.3932   46.8725  128.5218 C   0  0  0  0  0  0  0  0  0  0  0  0
    6.4673   47.9636  128.7428 C   0  0  0  0  0  0  0  0  0  0  0  0
    7.6934   47.7534  128.2024 C   0  0  0  0  0  0  0  0  0  0  0  0
    8.4695   49.3266  128.5610 S   0  0  0  0  0  0  0  0  0  0  0  0
    7.1799   50.0791  129.3747 C   0  0  0  0  0  0  0  0  0  0  0  0
    7.0244   51.3143  130.0271 C   0  0  0  0  0  0  0  0  0  0  0  0
    5.8595   51.6462  130.6701 C   0  0  0  0  0  0  0  0  0  0  0  0
    4.8635   50.6864  130.6242 C   0  0  0  0  0  0  0  0  0  0  0  0
    5.0034   49.5063  130.0060 C   0  0  0  0  0  0  0  0  0  0  0  0
    6.1978   49.1392  129.3433 C   0  0  0  0  0  0  0  0  0  0  0  0
 21 22  1  0  0  0
 22 23  2  0  0  0
 23 20  1  0  0  0
 20  1  1  0  0  0
  1  2  1  0  0  0
  1  3  1  0  0  0
  3  4  2  0  0  0
  3  5  1  0  0  0
  5  6  2  0  0  0
  6  7  1  0  0  0
  7  8  2  0  0  0
  8  9  1  0  0  0
  9 10  2  0  0  0
 10 11  1  0  0  0
 11 12  2  0  0  0
 11 13  1  0  0  0
 13 14  1  0  0  0
 14 15  1  0  0  0
 15 16  1  0  0  0
 16 17  1  0  0  0
 23 24  1  0  0  0
 24 25  1  0  0  0
 25 26  2  0  0  0
 26 27  1  0  0  0
 27 28  2  0  0  0
 28 29  1  0  0  0
 29 30  2  0  0  0
 30 22  1  0  0  0
 12  7  1  0  0  0
 30 25  1  0  0  0
 17 10  1  0  0  0
 14 18  1  0  0  0
 17 19  1  0  0  0
M  END
> <minimizedAffinity>
20.65675

> <CNNscore>
0.3943764567

> <CNNaffinity>
7.1885194778

> <CNN_VS>
2.8349828720

> <CNNaffinity_variance>
1.6091582775

$$$$
[H]c1c([H])c([H])c(C([H])([H])N(C([H])([H])[H])C([H])([H])C([H])([H])OC(=O)C2=C(C([H])([H])[H])N=C(C([H])([H])[H])C([H])(C(=O)OC([H])([H])[H])C2([H])c2c([H])c([H])c([H])c([N+](=O)[O-])c2[H])c([H])c1[H]


 35 37  0  0  0  0  0  0  0  0999 V2000
    8.8621   48.5528  129.5247 C   0  0  0  0  0  0  0  0  0  0  0  0
    7.6116   49.1549  129.0512 C   0  0  0  0  0  0  0  0  0  0  0  0
    7.7419   50.4589  128.2808 C   0  0  0  0  0  0  0  0  0  0  0  0
    6.4554   48.6919  129.2233 N   0  0  0  0  0  0  0  0  0  0  0  0
    6.2506   47.4815  129.9254 C   0  0  0  0  0  0  0  0  0  0  0  0
    4.8278   47.0195  130.0998 C   0  0  0  0  0  0  0  0  0  0  0  0
    7.2857   46.8241  130.4043 C   0  0  0  0  0  0  0  0  0  0  0  0
    8.6993   47.2784  130.2112 C   0  0  0  0  0  0  0  0  0  0  0  0
    9.4471   46.1608  129.5595 C   0  0  0  0  0  0  0  0  0  0  0  0
   10.3941   46.3593  128.5930 C   0  0  0  0  0  0  0  0  0  0  0  0
   11.0819   45.3056  128.0258 C   0  0  0  0  0  0  0  0  0  0  0  0
   10.8081   44.0080  128.4449 C   0  0  0  0  0  0  0  0  0  0  0  0
    9.8503   43.7974  129.4236 C   0  0  0  0  0  0  0  0  0  0  0  0
    9.1826   44.8789  129.9675 C   0  0  0  0  0  0  0  0  0  0  0  0
    9.5884   42.4652  129.8353 N   0  0  0  0  0  0  0  0  0  0  0  0
    8.4083   42.0851  129.8882 O   0  0  0  0  0  0  0  0  0  0  0  0
   10.5755   41.5841  130.1757 O   0  0  0  0  0  0  0  0  0  0  0  0
    9.5127   49.6033  130.3979 C   0  0  0  0  0  0  0  0  0  0  0  0
   10.6178   50.0798  130.1408 O   0  0  0  0  0  0  0  0  0  0  0  0
    9.4641   50.0854  132.7839 C   0  0  0  0  0  0  0  0  0  0  0  0
    8.8204   50.0235  131.5149 O   0  0  0  0  0  0  0  0  0  0  0  0
    7.0795   45.5804  131.1292 C   0  0  0  0  0  0  0  0  0  0  0  0
    6.9381   44.5099  130.4246 O   0  0  0  0  0  0  0  0  0  0  0  0
    7.0133   45.3766  132.4878 O   0  0  0  0  0  0  0  0  0  0  0  0
    8.1906   45.6533  133.2661 C   0  0  0  0  0  0  0  0  0  0  0  0
    8.7278   44.4579  133.9444 C   0  0  0  0  0  0  0  0  0  0  0  0
    8.9212   43.2722  133.2134 N   0  0  0  0  0  0  0  0  0  0  0  0
    7.9982   42.2300  133.2696 C   0  0  0  0  0  0  0  0  0  0  0  0
   10.2861   42.8447  133.3513 C   0  0  0  0  0  0  0  0  0  0  0  0
   11.2864   43.8955  133.0809 C   0  0  0  0  0  0  0  0  0  0  0  0
   11.6857   44.8418  134.0069 C   0  0  0  0  0  0  0  0  0  0  0  0
   12.6242   45.8077  133.7142 C   0  0  0  0  0  0  0  0  0  0  0  0
   13.1861   45.8321  132.4525 C   0  0  0  0  0  0  0  0  0  0  0  0
   12.8010   44.8975  131.5164 C   0  0  0  0  0  0  0  0  0  0  0  0
   11.8695   43.9513  131.8309 C   0  0  0  0  0  0  0  0  0  0  0  0
 20 21  1  0  0  0
 21 18  1  0  0  0
 18 19  2  0  0  0
 18  1  1  0  0  0
  1  2  1  0  0  0
  2  3  1  0  0  0
  2  4  2  0  0  0
  4  5  1  0  0  0
  5  6  1  0  0  0
  5  7  2  0  0  0
  7 22  1  0  0  0
 22 23  2  0  0  0
 22 24  1  0  0  0
 24 25  1  0  0  0
 25 26  1  0  0  0
 26 27  1  0  0  0
 27 28  1  0  0  0
 27 29  1  0  0  0
 29 30  1  0  0  0
 30 31  2  0  0  0
 31 32  1  0  0  0
 32 33  2  0  0  0
 33 34  1  0  0  0
 34 35  2  0  0  0
  7  8  1  0  0  0
  8  9  1  0  0  0
  9 10  2  0  0  0
 10 11  1  0  0  0
 11 12  2  0  0  0
 12 13  1  0  0  0
 13 15  1  0  0  0
 15 16  2  0  0  0
 15 17  1  0  0  0
 13 14  2  0  0  0
  8  1  1  0  0  0
 14  9  1  0  0  0
 35 30  1  0  0  0
M  CHG 1  15   1
M  CHG 1  17  -1
M  END
> <minimizedAffinity>
-0.83074

> <CNNscore>
0.3884293139

> <CNNaffinity>
7.5463371277

> <CNN_VS>
2.9312186241

> <CNNaffinity_variance>
0.3562546372

$$$$
[H]c1c([H])c([H])c(C([H])([H])N(C([H])([H])[H])C([H])([H])C([H])([H])OC(=O)C2=C(C([H])([H])[H])N=C(C([H])([H])[H])C([H])(C(=O)OC([H])([H])[H])C2([H])c2c([H])c([H])c([H])c([N+](=O)[O-])c2[H])c([H])c1[H]


 35 37  0  0  0  0  0  0  0  0999 V2000
   11.6022   45.0472  133.0645 C   0  0  0  0  0  0  0  0  0  0  0  0
   11.3940   46.2357  133.8982 C   0  0  0  0  0  0  0  0  0  0  0  0
   12.5732   46.6744  134.7513 C   0  0  0  0  0  0  0  0  0  0  0  0
   10.3390   46.9161  133.9670 N   0  0  0  0  0  0  0  0  0  0  0  0
    9.1995   46.5759  133.2015 C   0  0  0  0  0  0  0  0  0  0  0  0
    7.9758   47.4377  133.3689 C   0  0  0  0  0  0  0  0  0  0  0  0
    9.2423   45.5329  132.3995 C   0  0  0  0  0  0  0  0  0  0  0  0
   10.4680   44.6912  132.2228 C   0  0  0  0  0  0  0  0  0  0  0  0
   10.7996   44.6778  130.7657 C   0  0  0  0  0  0  0  0  0  0  0  0
    9.8703   44.8949  129.7862 C   0  0  0  0  0  0  0  0  0  0  0  0
   10.2140   44.8964  128.4495 C   0  0  0  0  0  0  0  0  0  0  0  0
   11.5374   44.6721  128.0853 C   0  0  0  0  0  0  0  0  0  0  0  0
   12.4857   44.4512  129.0709 C   0  0  0  0  0  0  0  0  0  0  0  0
   12.1022   44.4573  130.3992 C   0  0  0  0  0  0  0  0  0  0  0  0
   13.8294   44.2251  128.6755 N   0  0  0  0  0  0  0  0  0  0  0  0
   14.0438   43.8030  127.5284 O   0  0  0  0  0  0  0  0  0  0  0  0
   14.8954   44.4506  129.4995 O   0  0  0  0  0  0  0  0  0  0  0  0
   11.9828   43.9408  134.0238 C   0  0  0  0  0  0  0  0  0  0  0  0
   13.0971   43.4185  134.0165 O   0  0  0  0  0  0  0  0  0  0  0  0
   11.3458   43.3997  136.3106 C   0  0  0  0  0  0  0  0  0  0  0  0
   11.0281   43.5225  134.9276 O   0  0  0  0  0  0  0  0  0  0  0  0
    8.0721   45.1780  131.6125 C   0  0  0  0  0  0  0  0  0  0  0  0
    7.8845   43.9243  131.3770 O   0  0  0  0  0  0  0  0  0  0  0  0
    7.1149   46.0048  131.0723 O   0  0  0  0  0  0  0  0  0  0  0  0
    6.9891   46.0399  129.6401 C   0  0  0  0  0  0  0  0  0  0  0  0
    5.9425   46.9708  129.1756 C   0  0  0  0  0  0  0  0  0  0  0  0
    6.0653   48.3454  129.4459 N   0  0  0  0  0  0  0  0  0  0  0  0
    4.9846   49.2113  129.2924 C   0  0  0  0  0  0  0  0  0  0  0  0
    7.2871   48.8368  128.8709 C   0  0  0  0  0  0  0  0  0  0  0  0
    8.3631   49.0927  129.8478 C   0  0  0  0  0  0  0  0  0  0  0  0
    8.3117   50.0776  130.8171 C   0  0  0  0  0  0  0  0  0  0  0  0
    9.3395   50.2842  131.7118 C   0  0  0  0  0  0  0  0  0  0  0  0
   10.4601   49.4799  131.6386 C   0  0  0  0  0  0  0  0  0  0  0  0
   10.5298   48.4931  130.6797 C   0  0  0  0  0  0  0  0  0  0  0  0
    9.4988   48.3088  129.8052 C   0  0  0  0  0  0  0  0  0  0  0  0
 20 21  1  0  0  0
 21 18  1  0  0  0
 18 19  2  0  0  0
 18  1  1  0  0  0
  1  2  1  0  0  0
  2  3  1  0  0  0
  2  4  2  0  0  0
  4  5  1  0  0  0
  5  6  1  0  0  0
  5  7  2  0  0  0
  7 22  1  0  0  0
 22 23  2  0  0  0
 22 24  1  0  0  0
 24 25  1  0  0  0
 25 26  1  0  0  0
 26 27  1  0  0  0
 27 28  1  0  0  0
 27 29  1  0  0  0
 29 30  1  0  0  0
 30 31  2  0  0  0
 31 32  1  0  0  0
 32 33  2  0  0  0
 33 34  1  0  0  0
 34 35  2  0  0  0
  7  8  1  0  0  0
  8  9  1  0  0  0
  9 10  2  0  0  0
 10 11  1  0  0  0
 11 12  2  0  0  0
 12 13  1  0  0  0
 13 15  1  0  0  0
 15 16  2  0  0  0
 15 17  1  0  0  0
 13 14  2  0  0  0
  8  1  1  0  0  0
 14  9  1  0  0  0
 35 30  1  0  0  0
M  CHG 1  15   1
M  CHG 1  17  -1
M  END
> <minimizedAffinity>
0.85350

> <CNNscore>
0.3701784611

> <CNNaffinity>
7.4807343483

> <CNN_VS>
2.7692067623

> <CNNaffinity_variance>
0.3702753186

$$$$
[H]c1c([H])c([H])c(C([H])([H])N(C([H])([H])[H])C([H])([H])C([H])([H])OC(=O)C2=C(C([H])([H])[H])N=C(C([H])([H])[H])C([H])(C(=O)OC([H])([H])[H])C2([H])c2c([H])c([H])c([H])c([N+](=O)[O-])c2[H])c([H])c1[H]


 35 37  0  0  0  0  0  0  0  0999 V2000
   11.5491   44.6611  133.1809 C   0  0  0  0  0  0  0  0  0  0  0  0
   11.9310   46.0316  133.5366 C   0  0  0  0  0  0  0  0  0  0  0  0
   13.4205   46.3001  133.6784 C   0  0  0  0  0  0  0  0  0  0  0  0
   11.1438   46.9926  133.7307 N   0  0  0  0  0  0  0  0  0  0  0  0
    9.7444   46.8254  133.6136 C   0  0  0  0  0  0  0  0  0  0  0  0
    8.8822   48.0295  133.8872 C   0  0  0  0  0  0  0  0  0  0  0  0
    9.2548   45.6464  133.2919 C   0  0  0  0  0  0  0  0  0  0  0  0
   10.1180   44.4576  133.0022 C   0  0  0  0  0  0  0  0  0  0  0  0
    9.7610   43.9630  131.6380 C   0  0  0  0  0  0  0  0  0  0  0  0
    8.8260   42.9897  131.4174 C   0  0  0  0  0  0  0  0  0  0  0  0
    8.5046   42.5700  130.1425 C   0  0  0  0  0  0  0  0  0  0  0  0
    9.1453   43.1488  129.0521 C   0  0  0  0  0  0  0  0  0  0  0  0
   10.0940   44.1355  129.2661 C   0  0  0  0  0  0  0  0  0  0  0  0
   10.3886   44.5289  130.5584 C   0  0  0  0  0  0  0  0  0  0  0  0
   10.7340   44.7116  128.1385 N   0  0  0  0  0  0  0  0  0  0  0  0
   11.3400   43.9620  127.3570 O   0  0  0  0  0  0  0  0  0  0  0  0
   10.7132   46.0521  127.8755 O   0  0  0  0  0  0  0  0  0  0  0  0
   12.1287   43.7835  134.2687 C   0  0  0  0  0  0  0  0  0  0  0  0
   13.3118   43.4449  134.2798 O   0  0  0  0  0  0  0  0  0  0  0  0
   10.7787   44.2885  136.2309 C   0  0  0  0  0  0  0  0  0  0  0  0
   11.2787   43.3630  135.2707 O   0  0  0  0  0  0  0  0  0  0  0  0
    7.8163   45.4693  133.1729 C   0  0  0  0  0  0  0  0  0  0  0  0
    7.2490   44.6987  134.0369 O   0  0  0  0  0  0  0  0  0  0  0  0
    6.9547   46.0182  132.2521 O   0  0  0  0  0  0  0  0  0  0  0  0
    7.3063   45.9187  130.8612 C   0  0  0  0  0  0  0  0  0  0  0  0
    6.2071   46.3124  129.9587 C   0  0  0  0  0  0  0  0  0  0  0  0
    6.2372   47.5727  129.3355 N   0  0  0  0  0  0  0  0  0  0  0  0
    5.2414   47.9607  128.4417 C   0  0  0  0  0  0  0  0  0  0  0  0
    7.5698   47.8426  128.8703 C   0  0  0  0  0  0  0  0  0  0  0  0
    8.3988   48.6230  129.8091 C   0  0  0  0  0  0  0  0  0  0  0  0
    7.9466   49.7264  130.5093 C   0  0  0  0  0  0  0  0  0  0  0  0
    8.7541   50.4286  131.3779 C   0  0  0  0  0  0  0  0  0  0  0  0
   10.0605   50.0166  131.5558 C   0  0  0  0  0  0  0  0  0  0  0  0
   10.5294   48.9195  130.8669 C   0  0  0  0  0  0  0  0  0  0  0  0
    9.7099   48.2412  130.0124 C   0  0  0  0  0  0  0  0  0  0  0  0
 20 21  1  0  0  0
 21 18  1  0  0  0
 18 19  2  0  0  0
 18  1  1  0  0  0
  1  2  1  0  0  0
  2  3  1  0  0  0
  2  4  2  0  0  0
  4  5  1  0  0  0
  5  6  1  0  0  0
  5  7  2  0  0  0
  7 22  1  0  0  0
 22 23  2  0  0  0
 22 24  1  0  0  0
 24 25  1  0  0  0
 25 26  1  0  0  0
 26 27  1  0  0  0
 27 28  1  0  0  0
 27 29  1  0  0  0
 29 30  1  0  0  0
 30 31  2  0  0  0
 31 32  1  0  0  0
 32 33  2  0  0  0
 33 34  1  0  0  0
 34 35  2  0  0  0
  7  8  1  0  0  0
  8  9  1  0  0  0
  9 10  2  0  0  0
 10 11  1  0  0  0
 11 12  2  0  0  0
 12 13  1  0  0  0
 13 15  1  0  0  0
 15 16  2  0  0  0
 15 17  1  0  0  0
 13 14  2  0  0  0
  8  1  1  0  0  0
 14  9  1  0  0  0
 35 30  1  0  0  0
M  CHG 1  15   1
M  CHG 1  17  -1
M  END
> <minimizedAffinity>
-0.83111

> <CNNscore>
0.2640139461

> <CNNaffinity>
7.3730020523

> <CNN_VS>
1.9465754032

> <CNNaffinity_variance>
0.1650315970

$$$$
[H]c1c([H])c([H])c(C([H])([H])N(C([H])([H])[H])C([H])([H])C([H])([H])OC(=O)C2=C(C([H])([H])[H])N=C(C([H])([H])[H])C([H])(C(=O)OC([H])([H])[H])C2([H])c2c([H])c([H])c([H])c([N+](=O)[O-])c2[H])c([H])c1[H]


 35 37  0  0  0  0  0  0  0  0999 V2000
   10.8269   44.1127  129.6334 C   0  0  0  0  0  0  0  0  0  0  0  0
   10.2367   42.8538  129.1669 C   0  0  0  0  0  0  0  0  0  0  0  0
   11.0393   42.0747  128.1375 C   0  0  0  0  0  0  0  0  0  0  0  0
    9.1390   42.3677  129.5405 N   0  0  0  0  0  0  0  0  0  0  0  0
    8.3356   43.0292  130.4982 C   0  0  0  0  0  0  0  0  0  0  0  0
    7.0273   42.3799  130.8652 C   0  0  0  0  0  0  0  0  0  0  0  0
    8.7430   44.1707  131.0121 C   0  0  0  0  0  0  0  0  0  0  0  0
   10.0538   44.8017  130.6576 C   0  0  0  0  0  0  0  0  0  0  0  0
   10.8135   45.0071  131.9279 C   0  0  0  0  0  0  0  0  0  0  0  0
   12.1724   44.8800  132.0143 C   0  0  0  0  0  0  0  0  0  0  0  0
   12.8461   45.0971  133.1992 C   0  0  0  0  0  0  0  0  0  0  0  0
   12.1288   45.4544  134.3360 C   0  0  0  0  0  0  0  0  0  0  0  0
   10.7518   45.5856  134.2577 C   0  0  0  0  0  0  0  0  0  0  0  0
   10.1131   45.3596  133.0525 C   0  0  0  0  0  0  0  0  0  0  0  0
   10.0415   45.9514  135.4301 N   0  0  0  0  0  0  0  0  0  0  0  0
    9.3724   46.9964  135.4128 O   0  0  0  0  0  0  0  0  0  0  0  0
   10.0615   45.2062  136.5750 O   0  0  0  0  0  0  0  0  0  0  0  0
   11.0232   44.9532  128.3907 C   0  0  0  0  0  0  0  0  0  0  0  0
   10.0916   45.2491  127.6430 O   0  0  0  0  0  0  0  0  0  0  0  0
   13.4249   44.8048  128.7617 C   0  0  0  0  0  0  0  0  0  0  0  0
   12.3015   45.3899  128.1103 O   0  0  0  0  0  0  0  0  0  0  0  0
    7.9189   44.8556  131.9952 C   0  0  0  0  0  0  0  0  0  0  0  0
    7.8997   44.3630  133.1866 O   0  0  0  0  0  0  0  0  0  0  0  0
    7.1409   45.9783  131.8343 O   0  0  0  0  0  0  0  0  0  0  0  0
    6.3013   46.0517  130.6690 C   0  0  0  0  0  0  0  0  0  0  0  0
    6.8798   46.8789  129.5924 C   0  0  0  0  0  0  0  0  0  0  0  0
    6.7204   48.2757  129.6275 N   0  0  0  0  0  0  0  0  0  0  0  0
    5.6698   48.9000  128.9585 C   0  0  0  0  0  0  0  0  0  0  0  0
    7.9949   48.9061  129.4199 C   0  0  0  0  0  0  0  0  0  0  0  0
    8.8097   49.0548  130.6412 C   0  0  0  0  0  0  0  0  0  0  0  0
    8.5021   49.9168  131.6778 C   0  0  0  0  0  0  0  0  0  0  0  0
    9.2905   50.0259  132.8030 C   0  0  0  0  0  0  0  0  0  0  0  0
   10.4275   49.2475  132.8996 C   0  0  0  0  0  0  0  0  0  0  0  0
   10.7507   48.3826  131.8770 C   0  0  0  0  0  0  0  0  0  0  0  0
    9.9536   48.2932  130.7731 C   0  0  0  0  0  0  0  0  0  0  0  0
 20 21  1  0  0  0
 21 18  1  0  0  0
 18 19  2  0  0  0
 18  1  1  0  0  0
  1  2  1  0  0  0
  2  3  1  0  0  0
  2  4  2  0  0  0
  4  5  1  0  0  0
  5  6  1  0  0  0
  5  7  2  0  0  0
  7 22  1  0  0  0
 22 23  2  0  0  0
 22 24  1  0  0  0
 24 25  1  0  0  0
 25 26  1  0  0  0
 26 27  1  0  0  0
 27 28  1  0  0  0
 27 29  1  0  0  0
 29 30  1  0  0  0
 30 31  2  0  0  0
 31 32  1  0  0  0
 32 33  2  0  0  0
 33 34  1  0  0  0
 34 35  2  0  0  0
  7  8  1  0  0  0
  8  9  1  0  0  0
  9 10  2  0  0  0
 10 11  1  0  0  0
 11 12  2  0  0  0
 12 13  1  0  0  0
 13 15  1  0  0  0
 15 16  2  0  0  0
 15 17  1  0  0  0
 13 14  2  0  0  0
  8  1  1  0  0  0
 14  9  1  0  0  0
 35 30  1  0  0  0
M  CHG 1  15   1
M  CHG 1  17  -1
M  END
> <minimizedAffinity>
2.78476

> <CNNscore>
0.2304981798

> <CNNaffinity>
7.1303763390

> <CNN_VS>
1.6435387135

> <CNNaffinity_variance>
0.1025021821

$$$$
[H]c1c([H])c([H])c(C([H])([H])N(C([H])([H])[H])C([H])([H])C([H])([H])OC(=O)C2=C(C([H])([H])[H])N=C(C([H])([H])[H])C([H])(C(=O)OC([H])([H])[H])C2([H])c2c([H])c([H])c([H])c([N+](=O)[O-])c2[H])c([H])c1[H]


 35 37  0  0  0  0  0  0  0  0999 V2000
    6.9491   48.1374  130.0577 C   0  0  0  0  0  0  0  0  0  0  0  0
    6.6880   49.5264  130.4495 C   0  0  0  0  0  0  0  0  0  0  0  0
    5.2939   50.0574  130.1575 C   0  0  0  0  0  0  0  0  0  0  0  0
    7.5059   50.3063  131.0005 N   0  0  0  0  0  0  0  0  0  0  0  0
    8.8206   49.8866  131.3092 C   0  0  0  0  0  0  0  0  0  0  0  0
    9.7341   50.8994  131.9479 C   0  0  0  0  0  0  0  0  0  0  0  0
    9.1962   48.6584  131.0201 C   0  0  0  0  0  0  0  0  0  0  0  0
    8.2776   47.6499  130.4026 C   0  0  0  0  0  0  0  0  0  0  0  0
    8.2500   46.4558  131.3006 C   0  0  0  0  0  0  0  0  0  0  0  0
    7.9002   45.2057  130.8703 C   0  0  0  0  0  0  0  0  0  0  0  0
    7.9052   44.1192  131.7214 C   0  0  0  0  0  0  0  0  0  0  0  0
    8.2745   44.2957  133.0506 C   0  0  0  0  0  0  0  0  0  0  0  0
    8.6305   45.5587  133.4953 C   0  0  0  0  0  0  0  0  0  0  0  0
    8.6129   46.6223  132.6121 C   0  0  0  0  0  0  0  0  0  0  0  0
    9.0040   45.7144  134.8552 N   0  0  0  0  0  0  0  0  0  0  0  0
    8.6069   46.7197  135.4648 O   0  0  0  0  0  0  0  0  0  0  0  0
    9.7800   44.8090  135.5219 O   0  0  0  0  0  0  0  0  0  0  0  0
    6.6771   48.0779  128.5705 C   0  0  0  0  0  0  0  0  0  0  0  0
    7.4124   48.6190  127.7453 O   0  0  0  0  0  0  0  0  0  0  0  0
    4.6960   46.7659  129.1014 C   0  0  0  0  0  0  0  0  0  0  0  0
    5.5588   47.3861  128.1530 O   0  0  0  0  0  0  0  0  0  0  0  0
   10.5480   48.2234  131.3334 C   0  0  0  0  0  0  0  0  0  0  0  0
   11.4047   48.2386  130.3701 O   0  0  0  0  0  0  0  0  0  0  0  0
   11.0559   47.7898  132.5358 O   0  0  0  0  0  0  0  0  0  0  0  0
   12.2167   46.9413  132.5072 C   0  0  0  0  0  0  0  0  0  0  0  0
   12.0462   45.7040  133.2932 C   0  0  0  0  0  0  0  0  0  0  0  0
   11.9525   44.4672  132.6304 N   0  0  0  0  0  0  0  0  0  0  0  0
   12.2448   43.2726  133.2853 C   0  0  0  0  0  0  0  0  0  0  0  0
   12.5538   44.5766  131.3299 C   0  0  0  0  0  0  0  0  0  0  0  0
   11.6432   44.2771  130.2080 C   0  0  0  0  0  0  0  0  0  0  0  0
   11.5139   45.0695  129.0821 C   0  0  0  0  0  0  0  0  0  0  0  0
   10.6507   44.7539  128.0551 C   0  0  0  0  0  0  0  0  0  0  0  0
    9.8879   43.6064  128.1529 C   0  0  0  0  0  0  0  0  0  0  0  0
   10.0028   42.8041  129.2670 C   0  0  0  0  0  0  0  0  0  0  0  0
   10.8647   43.1386  130.2705 C   0  0  0  0  0  0  0  0  0  0  0  0
 20 21  1  0  0  0
 21 18  1  0  0  0
 18 19  2  0  0  0
 18  1  1  0  0  0
  1  2  1  0  0  0
  2  3  1  0  0  0
  2  4  2  0  0  0
  4  5  1  0  0  0
  5  6  1  0  0  0
  5  7  2  0  0  0
  7 22  1  0  0  0
 22 23  2  0  0  0
 22 24  1  0  0  0
 24 25  1  0  0  0
 25 26  1  0  0  0
 26 27  1  0  0  0
 27 28  1  0  0  0
 27 29  1  0  0  0
 29 30  1  0  0  0
 30 31  2  0  0  0
 31 32  1  0  0  0
 32 33  2  0  0  0
 33 34  1  0  0  0
 34 35  2  0  0  0
  7  8  1  0  0  0
  8  9  1  0  0  0
  9 10  2  0  0  0
 10 11  1  0  0  0
 11 12  2  0  0  0
 12 13  1  0  0  0
 13 15  1  0  0  0
 15 16  2  0  0  0
 15 17  1  0  0  0
 13 14  2  0  0  0
  8  1  1  0  0  0
 14  9  1  0  0  0
 35 30  1  0  0  0
M  CHG 1  15   1
M  CHG 1  17  -1
M  END
> <minimizedAffinity>
-1.86136

> <CNNscore>
0.2097451985

> <CNNaffinity>
7.2742052078

> <CNN_VS>
1.5257296562

> <CNNaffinity_variance>
0.1436499506

$$$$
[H]c1c([H])c([H])c(C([H])([H])N(C([H])([H])[H])C([H])([H])C([H])([H])OC(=O)C2=C(C([H])([H])[H])N=C(C([H])([H])[H])C([H])(C(=O)OC([H])([H])[H])C2([H])c2c([H])c([H])c([H])c([N+](=O)[O-])c2[H])c([H])c1[H]


 35 37  0  0  0  0  0  0  0  0999 V2000
    9.1761   48.3460  129.8189 C   0  0  0  0  0  0  0  0  0  0  0  0
    7.8690   48.7730  129.3090 C   0  0  0  0  0  0  0  0  0  0  0  0
    7.8487   50.0632  128.5055 C   0  0  0  0  0  0  0  0  0  0  0  0
    6.7773   48.1717  129.4749 N   0  0  0  0  0  0  0  0  0  0  0  0
    6.7132   46.9630  130.2064 C   0  0  0  0  0  0  0  0  0  0  0  0
    5.3570   46.3291  130.3703 C   0  0  0  0  0  0  0  0  0  0  0  0
    7.8135   46.4542  130.7197 C   0  0  0  0  0  0  0  0  0  0  0  0
    9.1620   47.0789  130.5371 C   0  0  0  0  0  0  0  0  0  0  0  0
   10.0574   46.0490  129.9282 C   0  0  0  0  0  0  0  0  0  0  0  0
   11.4019   45.9904  130.1713 C   0  0  0  0  0  0  0  0  0  0  0  0
   12.1975   45.0128  129.6090 C   0  0  0  0  0  0  0  0  0  0  0  0
   11.6215   44.0616  128.7736 C   0  0  0  0  0  0  0  0  0  0  0  0
   10.2601   44.1133  128.5217 C   0  0  0  0  0  0  0  0  0  0  0  0
    9.4965   45.1081  129.1037 C   0  0  0  0  0  0  0  0  0  0  0  0
    9.6948   43.1322  127.6667 N   0  0  0  0  0  0  0  0  0  0  0  0
    8.6705   43.4240  127.0298 O   0  0  0  0  0  0  0  0  0  0  0  0
   10.2265   41.8830  127.5141 O   0  0  0  0  0  0  0  0  0  0  0  0
    9.6718   49.4920  130.6735 C   0  0  0  0  0  0  0  0  0  0  0  0
   10.7337   50.0708  130.4457 O   0  0  0  0  0  0  0  0  0  0  0  0
    9.4622   50.5488  132.8568 C   0  0  0  0  0  0  0  0  0  0  0  0
    8.8859   49.8810  131.7386 O   0  0  0  0  0  0  0  0  0  0  0  0
    7.7518   45.2129  131.4748 C   0  0  0  0  0  0  0  0  0  0  0  0
    7.3401   45.2906  132.6941 O   0  0  0  0  0  0  0  0  0  0  0  0
    8.0752   43.9399  131.0666 O   0  0  0  0  0  0  0  0  0  0  0  0
    8.5249   43.0086  132.0658 C   0  0  0  0  0  0  0  0  0  0  0  0
    9.9127   42.5558  131.8495 C   0  0  0  0  0  0  0  0  0  0  0  0
   10.9740   43.2576  132.4484 N   0  0  0  0  0  0  0  0  0  0  0  0
   12.2953   42.8473  132.2844 C   0  0  0  0  0  0  0  0  0  0  0  0
   10.6302   43.5725  133.8077 C   0  0  0  0  0  0  0  0  0  0  0  0
   10.3447   44.9996  134.0514 C   0  0  0  0  0  0  0  0  0  0  0  0
    9.3180   45.4581  134.8563 C   0  0  0  0  0  0  0  0  0  0  0  0
    9.0848   46.8014  135.0583 C   0  0  0  0  0  0  0  0  0  0  0  0
    9.9046   47.7223  134.4356 C   0  0  0  0  0  0  0  0  0  0  0  0
   10.9329   47.2849  133.6298 C   0  0  0  0  0  0  0  0  0  0  0  0
   11.1430   45.9493  133.4457 C   0  0  0  0  0  0  0  0  0  0  0  0
 20 21  1  0  0  0
 21 18  1  0  0  0
 18 19  2  0  0  0
 18  1  1  0  0  0
  1  2  1  0  0  0
  2  3  1  0  0  0
  2  4  2  0  0  0
  4  5  1  0  0  0
  5  6  1  0  0  0
  5  7  2  0  0  0
  7 22  1  0  0  0
 22 23  2  0  0  0
 22 24  1  0  0  0
 24 25  1  0  0  0
 25 26  1  0  0  0
 26 27  1  0  0  0
 27 28  1  0  0  0
 27 29  1  0  0  0
 29 30  1  0  0  0
 30 31  2  0  0  0
 31 32  1  0  0  0
 32 33  2  0  0  0
 33 34  1  0  0  0
 34 35  2  0  0  0
  7  8  1  0  0  0
  8  9  1  0  0  0
  9 10  2  0  0  0
 10 11  1  0  0  0
 11 12  2  0  0  0
 12 13  1  0  0  0
 13 15  1  0  0  0
 15 16  2  0  0  0
 15 17  1  0  0  0
 13 14  2  0  0  0
  8  1  1  0  0  0
 14  9  1  0  0  0
 35 30  1  0  0  0
M  CHG 1  15   1
M  CHG 1  17  -1
M  END
> <minimizedAffinity>
-2.50210

> <CNNscore>
0.2082350850

> <CNNaffinity>
7.1521148682

> <CNN_VS>
1.4893212318

> <CNNaffinity_variance>
0.3528248072

$$$$
[H]c1c([H])c([H])c(C([H])([H])N(C([H])([H])[H])C([H])([H])C([H])([H])OC(=O)C2=C(C([H])([H])[H])N=C(C([H])([H])[H])C([H])(C(=O)OC([H])([H])[H])C2([H])c2c([H])c([H])c([H])c([N+](=O)[O-])c2[H])c([H])c1[H]


 35 37  0  0  0  0  0  0  0  0999 V2000
    8.8269   48.7889  129.8349 C   0  0  0  0  0  0  0  0  0  0  0  0
    7.5775   49.2689  129.2356 C   0  0  0  0  0  0  0  0  0  0  0  0
    7.6011   50.6792  128.6688 C   0  0  0  0  0  0  0  0  0  0  0  0
    6.5020   48.6233  129.1492 N   0  0  0  0  0  0  0  0  0  0  0  0
    6.4002   47.3040  129.6483 C   0  0  0  0  0  0  0  0  0  0  0  0
    5.0644   46.6207  129.5191 C   0  0  0  0  0  0  0  0  0  0  0  0
    7.4481   46.7381  130.2094 C   0  0  0  0  0  0  0  0  0  0  0  0
    8.7790   47.4155  130.3178 C   0  0  0  0  0  0  0  0  0  0  0  0
    9.7906   46.5288  129.6671 C   0  0  0  0  0  0  0  0  0  0  0  0
    9.7393   46.1813  128.3455 C   0  0  0  0  0  0  0  0  0  0  0  0
   10.7019   45.3767  127.7703 C   0  0  0  0  0  0  0  0  0  0  0  0
   11.7521   44.9053  128.5509 C   0  0  0  0  0  0  0  0  0  0  0  0
   11.8122   45.2522  129.8909 C   0  0  0  0  0  0  0  0  0  0  0  0
   10.8287   46.0603  130.4304 C   0  0  0  0  0  0  0  0  0  0  0  0
   12.8929   44.7598  130.6671 N   0  0  0  0  0  0  0  0  0  0  0  0
   12.9455   45.0680  131.8680 O   0  0  0  0  0  0  0  0  0  0  0  0
   13.8765   43.9635  130.1523 O   0  0  0  0  0  0  0  0  0  0  0  0
    9.1570   49.7783  130.9311 C   0  0  0  0  0  0  0  0  0  0  0  0
    8.4708   50.7775  131.1434 O   0  0  0  0  0  0  0  0  0  0  0  0
   10.1736   49.4926  133.1248 C   0  0  0  0  0  0  0  0  0  0  0  0
   10.2715   49.5266  131.7043 O   0  0  0  0  0  0  0  0  0  0  0  0
    7.3471   45.3826  130.7264 C   0  0  0  0  0  0  0  0  0  0  0  0
    6.9169   45.2485  131.9344 O   0  0  0  0  0  0  0  0  0  0  0  0
    7.6497   44.1970  130.0984 O   0  0  0  0  0  0  0  0  0  0  0  0
    8.0248   43.0785  130.9210 C   0  0  0  0  0  0  0  0  0  0  0  0
    9.4433   42.7010  130.7694 C   0  0  0  0  0  0  0  0  0  0  0  0
   10.3037   42.7720  131.8795 N   0  0  0  0  0  0  0  0  0  0  0  0
   11.3640   41.8807  132.0300 C   0  0  0  0  0  0  0  0  0  0  0  0
    9.5262   42.9537  133.0742 C   0  0  0  0  0  0  0  0  0  0  0  0
    9.6704   44.2816  133.7016 C   0  0  0  0  0  0  0  0  0  0  0  0
   10.8857   44.8884  133.9606 C   0  0  0  0  0  0  0  0  0  0  0  0
   10.9772   46.1314  134.5488 C   0  0  0  0  0  0  0  0  0  0  0  0
    9.8152   46.7949  134.8917 C   0  0  0  0  0  0  0  0  0  0  0  0
    8.5948   46.2066  134.6415 C   0  0  0  0  0  0  0  0  0  0  0  0
    8.5310   44.9748  134.0582 C   0  0  0  0  0  0  0  0  0  0  0  0
 20 21  1  0  0  0
 21 18  1  0  0  0
 18 19  2  0  0  0
 18  1  1  0  0  0
  1  2  1  0  0  0
  2  3  1  0  0  0
  2  4  2  0  0  0
  4  5  1  0  0  0
  5  6  1  0  0  0
  5  7  2  0  0  0
  7 22  1  0  0  0
 22 23  2  0  0  0
 22 24  1  0  0  0
 24 25  1  0  0  0
 25 26  1  0  0  0
 26 27  1  0  0  0
 27 28  1  0  0  0
 27 29  1  0  0  0
 29 30  1  0  0  0
 30 31  2  0  0  0
 31 32  1  0  0  0
 32 33  2  0  0  0
 33 34  1  0  0  0
 34 35  2  0  0  0
  7  8  1  0  0  0
  8  9  1  0  0  0
  9 10  2  0  0  0
 10 11  1  0  0  0
 11 12  2  0  0  0
 12 13  1  0  0  0
 13 15  1  0  0  0
 15 16  2  0  0  0
 15 17  1  0  0  0
 13 14  2  0  0  0
  8  1  1  0  0  0
 14  9  1  0  0  0
 35 30  1  0  0  0
M  CHG 1  15   1
M  CHG 1  17  -1
M  END
> <minimizedAffinity>
-4.89049

> <CNNscore>
0.2078773975

> <CNNaffinity>
7.2402801514

> <CNN_VS>
1.5050905943

> <CNNaffinity_variance>
0.4196500778

$$$$
[H]c1c([H])c([H])c(C([H])([H])N(C([H])([H])[H])C([H])([H])C([H])([H])OC(=O)C2=C(C([H])([H])[H])N=C(C([H])([H])[H])C([H])(C(=O)OC([H])([H])[H])C2([H])c2c([H])c([H])c([H])c([N+](=O)[O-])c2[H])c([H])c1[H]


 35 37  0  0  0  0  0  0  0  0999 V2000
    8.7063   48.8358  129.7574 C   0  0  0  0  0  0  0  0  0  0  0  0
    7.4128   49.2342  129.1927 C   0  0  0  0  0  0  0  0  0  0  0  0
    7.3699   50.5843  128.4954 C   0  0  0  0  0  0  0  0  0  0  0  0
    6.3496   48.5643  129.2330 N   0  0  0  0  0  0  0  0  0  0  0  0
    6.3084   47.2970  129.8593 C   0  0  0  0  0  0  0  0  0  0  0  0
    4.9837   46.5807  129.8763 C   0  0  0  0  0  0  0  0  0  0  0  0
    7.4005   46.8059  130.4063 C   0  0  0  0  0  0  0  0  0  0  0  0
    8.7192   47.5141  130.3694 C   0  0  0  0  0  0  0  0  0  0  0  0
    9.7113   46.5876  129.7446 C   0  0  0  0  0  0  0  0  0  0  0  0
    9.5875   46.1105  128.4690 C   0  0  0  0  0  0  0  0  0  0  0  0
   10.5333   45.2722  127.9144 C   0  0  0  0  0  0  0  0  0  0  0  0
   11.6415   44.9008  128.6683 C   0  0  0  0  0  0  0  0  0  0  0  0
   11.7752   45.3793  129.9617 C   0  0  0  0  0  0  0  0  0  0  0  0
   10.8063   46.2172  130.4819 C   0  0  0  0  0  0  0  0  0  0  0  0
   12.9141   44.9873  130.7114 N   0  0  0  0  0  0  0  0  0  0  0  0
   13.0560   45.4496  131.8542 O   0  0  0  0  0  0  0  0  0  0  0  0
   13.8598   44.1257  130.2321 O   0  0  0  0  0  0  0  0  0  0  0  0
    9.0769   49.9309  130.7336 C   0  0  0  0  0  0  0  0  0  0  0  0
    8.3940   50.9449  130.8746 O   0  0  0  0  0  0  0  0  0  0  0  0
   10.1567   49.6377  132.8959 C   0  0  0  0  0  0  0  0  0  0  0  0
   10.2255   49.7606  131.4786 O   0  0  0  0  0  0  0  0  0  0  0  0
    7.3620   45.5042  131.0536 C   0  0  0  0  0  0  0  0  0  0  0  0
    7.3687   44.4690  130.2851 O   0  0  0  0  0  0  0  0  0  0  0  0
    7.3197   45.2117  132.3969 O   0  0  0  0  0  0  0  0  0  0  0  0
    7.7940   46.2105  133.3165 C   0  0  0  0  0  0  0  0  0  0  0  0
    8.4165   45.6338  134.5238 C   0  0  0  0  0  0  0  0  0  0  0  0
    9.7842   45.8485  134.7706 N   0  0  0  0  0  0  0  0  0  0  0  0
   10.5383   46.7007  133.9667 C   0  0  0  0  0  0  0  0  0  0  0  0
   10.4233   44.5899  135.0393 C   0  0  0  0  0  0  0  0  0  0  0  0
   10.6127   43.7345  133.8518 C   0  0  0  0  0  0  0  0  0  0  0  0
    9.5921   43.3548  132.9995 C   0  0  0  0  0  0  0  0  0  0  0  0
    9.8113   42.5538  131.8996 C   0  0  0  0  0  0  0  0  0  0  0  0
   11.0947   42.1145  131.6387 C   0  0  0  0  0  0  0  0  0  0  0  0
   12.1248   42.4822  132.4764 C   0  0  0  0  0  0  0  0  0  0  0  0
   11.8817   43.2761  133.5592 C   0  0  0  0  0  0  0  0  0  0  0  0
 20 21  1  0  0  0
 21 18  1  0  0  0
 18 19  2  0  0  0
 18  1  1  0  0  0
  1  2  1  0  0  0
  2  3  1  0  0  0
  2  4  2  0  0  0
  4  5  1  0  0  0
  5  6  1  0  0  0
  5  7  2  0  0  0
  7 22  1  0  0  0
 22 23  2  0  0  0
 22 24  1  0  0  0
 24 25  1  0  0  0
 25 26  1  0  0  0
 26 27  1  0  0  0
 27 28  1  0  0  0
 27 29  1  0  0  0
 29 30  1  0  0  0
 30 31  2  0  0  0
 31 32  1  0  0  0
 32 33  2  0  0  0
 33 34  1  0  0  0
 34 35  2  0  0  0
  7  8  1  0  0  0
  8  9  1  0  0  0
  9 10  2  0  0  0
 10 11  1  0  0  0
 11 12  2  0  0  0
 12 13  1  0  0  0
 13 15  1  0  0  0
 15 16  2  0  0  0
 15 17  1  0  0  0
 13 14  2  0  0  0
  8  1  1  0  0  0
 14  9  1  0  0  0
 35 30  1  0  0  0
M  CHG 1  15   1
M  CHG 1  17  -1
M  END
> <minimizedAffinity>
-3.65753

> <CNNscore>
0.1951509863

> <CNNaffinity>
7.2548589706

> <CNN_VS>
1.4157929420

> <CNNaffinity_variance>
0.5188415647

$$$$
[H]c1c([H])c([H])c(C([H])([H])N(C([H])([H])[H])C([H])([H])C([H])([H])OC(=O)C2=C(C([H])([H])[H])N=C(C([H])([H])[H])C([H])(C(=O)OC([H])([H])[H])C2([H])c2c([H])c([H])c([H])c([N+](=O)[O-])c2[H])c([H])c1[H]


 35 37  0  0  0  0  0  0  0  0999 V2000
    7.2041   47.3903  130.4403 C   0  0  0  0  0  0  0  0  0  0  0  0
    6.6575   48.7480  130.3472 C   0  0  0  0  0  0  0  0  0  0  0  0
    5.3027   48.8832  129.6711 C   0  0  0  0  0  0  0  0  0  0  0  0
    7.2040   49.7969  130.7737 N   0  0  0  0  0  0  0  0  0  0  0  0
    8.4621   49.7545  131.4183 C   0  0  0  0  0  0  0  0  0  0  0  0
    9.0461   51.0657  131.8742 C   0  0  0  0  0  0  0  0  0  0  0  0
    9.0717   48.5989  131.5798 C   0  0  0  0  0  0  0  0  0  0  0  0
    8.4773   47.2963  131.1415 C   0  0  0  0  0  0  0  0  0  0  0  0
    8.4250   46.4000  132.3360 C   0  0  0  0  0  0  0  0  0  0  0  0
    8.2851   46.8661  133.6140 C   0  0  0  0  0  0  0  0  0  0  0  0
    8.2192   46.0094  134.6941 C   0  0  0  0  0  0  0  0  0  0  0  0
    8.2967   44.6370  134.4819 C   0  0  0  0  0  0  0  0  0  0  0  0
    8.4385   44.1558  133.1904 C   0  0  0  0  0  0  0  0  0  0  0  0
    8.5008   45.0460  132.1344 C   0  0  0  0  0  0  0  0  0  0  0  0
    8.5149   42.7522  132.9984 N   0  0  0  0  0  0  0  0  0  0  0  0
    7.6105   42.1941  132.3576 O   0  0  0  0  0  0  0  0  0  0  0  0
    9.5374   41.9890  133.4868 O   0  0  0  0  0  0  0  0  0  0  0  0
    7.2880   46.8885  129.0154 C   0  0  0  0  0  0  0  0  0  0  0  0
    6.3026   46.8276  128.2806 O   0  0  0  0  0  0  0  0  0  0  0  0
    9.6076   47.4154  128.4966 C   0  0  0  0  0  0  0  0  0  0  0  0
    8.5246   46.4920  128.5495 O   0  0  0  0  0  0  0  0  0  0  0  0
   10.3667   48.5510  132.2397 C   0  0  0  0  0  0  0  0  0  0  0  0
   11.3065   49.2756  131.7356 O   0  0  0  0  0  0  0  0  0  0  0  0
   10.7415   47.8294  133.3490 O   0  0  0  0  0  0  0  0  0  0  0  0
   11.9231   47.0153  133.2524 C   0  0  0  0  0  0  0  0  0  0  0  0
   11.8454   45.7870  134.0665 C   0  0  0  0  0  0  0  0  0  0  0  0
   12.1107   44.5408  133.4711 N   0  0  0  0  0  0  0  0  0  0  0  0
   12.6181   43.4779  134.2154 C   0  0  0  0  0  0  0  0  0  0  0  0
   12.7854   44.7449  132.2189 C   0  0  0  0  0  0  0  0  0  0  0  0
   11.9810   44.4070  131.0288 C   0  0  0  0  0  0  0  0  0  0  0  0
   12.1311   45.0126  129.7946 C   0  0  0  0  0  0  0  0  0  0  0  0
   11.3586   44.6675  128.7066 C   0  0  0  0  0  0  0  0  0  0  0  0
   10.4012   43.6826  128.8530 C   0  0  0  0  0  0  0  0  0  0  0  0
   10.2368   43.0676  130.0748 C   0  0  0  0  0  0  0  0  0  0  0  0
   11.0142   43.4275  131.1369 C   0  0  0  0  0  0  0  0  0  0  0  0
 20 21  1  0  0  0
 21 18  1  0  0  0
 18 19  2  0  0  0
 18  1  1  0  0  0
  1  2  1  0  0  0
  2  3  1  0  0  0
  2  4  2  0  0  0
  4  5  1  0  0  0
  5  6  1  0  0  0
  5  7  2  0  0  0
  7 22  1  0  0  0
 22 23  2  0  0  0
 22 24  1  0  0  0
 24 25  1  0  0  0
 25 26  1  0  0  0
 26 27  1  0  0  0
 27 28  1  0  0  0
 27 29  1  0  0  0
 29 30  1  0  0  0
 30 31  2  0  0  0
 31 32  1  0  0  0
 32 33  2  0  0  0
 33 34  1  0  0  0
 34 35  2  0  0  0
  7  8  1  0  0  0
  8  9  1  0  0  0
  9 10  2  0  0  0
 10 11  1  0  0  0
 11 12  2  0  0  0
 12 13  1  0  0  0
 13 15  1  0  0  0
 15 16  2  0  0  0
 15 17  1  0  0  0
 13 14  2  0  0  0
  8  1  1  0  0  0
 14  9  1  0  0  0
 35 30  1  0  0  0
M  CHG 1  15   1
M  CHG 1  17  -1
M  END
> <minimizedAffinity>
-0.78325

> <CNNscore>
0.1811001450

> <CNNaffinity>
7.2013487816

> <CNN_VS>
1.3041653633

> <CNNaffinity_variance>
0.4355527759

$$$$
[H]/C(=C(\[H])C([H])([H])C([H])([H])C([H])([H])C([H])([H])C([H])([H])C([H])([H])C([H])([H])C([H])([H])[H])C([H])([H])C([H])([H])C([H])([H])C([H])([H])C([H])([H])C([H])([H])C([H])([H])C(=O)c1nc2c([H])c([H])c([H])nc2o1


 28 29  0  0  0  0  0  0  0  0999 V2000
   10.8662   45.8266  135.1642 C   0  0  0  0  0  0  0  0  0  0  0  0
   10.2633   47.0306  134.6191 C   0  0  0  0  0  0  0  0  0  0  0  0
   10.8514   47.8541  133.5649 C   0  0  0  0  0  0  0  0  0  0  0  0
   10.2030   49.1597  133.2325 C   0  0  0  0  0  0  0  0  0  0  0  0
   10.0872   49.3136  131.7348 C   0  0  0  0  0  0  0  0  0  0  0  0
   11.0691   49.7561  131.1041 O   0  0  0  0  0  0  0  0  0  0  0  0
    8.8767   48.9604  131.0475 C   0  0  0  0  0  0  0  0  0  0  0  0
    8.4074   47.7006  130.8672 N   0  0  0  0  0  0  0  0  0  0  0  0
    7.2505   47.7410  130.1805 C   0  0  0  0  0  0  0  0  0  0  0  0
    6.3437   46.8293  129.7148 C   0  0  0  0  0  0  0  0  0  0  0  0
    5.2363   47.2570  129.0276 C   0  0  0  0  0  0  0  0  0  0  0  0
    5.0597   48.6119  128.8191 C   0  0  0  0  0  0  0  0  0  0  0  0
    5.9542   49.5288  129.2772 N   0  0  0  0  0  0  0  0  0  0  0  0
    7.0341   49.0985  129.9483 C   0  0  0  0  0  0  0  0  0  0  0  0
    8.0259   49.7820  130.4818 O   0  0  0  0  0  0  0  0  0  0  0  0
   11.2517   44.6790  134.3246 C   0  0  0  0  0  0  0  0  0  0  0  0
   12.5918   44.7837  133.6822 C   0  0  0  0  0  0  0  0  0  0  0  0
   12.5584   45.1303  132.2011 C   0  0  0  0  0  0  0  0  0  0  0  0
   12.1893   43.9008  130.1320 C   0  0  0  0  0  0  0  0  0  0  0  0
   12.3845   43.8949  131.4275 C   0  0  0  0  0  0  0  0  0  0  0  0
   12.1223   45.0944  129.3192 C   0  0  0  0  0  0  0  0  0  0  0  0
   10.7913   45.2444  128.5852 C   0  0  0  0  0  0  0  0  0  0  0  0
   10.1367   43.9342  128.3474 C   0  0  0  0  0  0  0  0  0  0  0  0
    8.7390   43.8011  128.9516 C   0  0  0  0  0  0  0  0  0  0  0  0
    8.6488   42.6788  129.9135 C   0  0  0  0  0  0  0  0  0  0  0  0
    8.5563   42.9584  131.3592 C   0  0  0  0  0  0  0  0  0  0  0  0
    7.9695   45.0443  132.5734 C   0  0  0  0  0  0  0  0  0  0  0  0
    9.0338   44.2527  131.8924 C   0  0  0  0  0  0  0  0  0  0  0  0
 27 28  1  0  0  0
 28 26  1  0  0  0
 26 25  1  0  0  0
 25 24  1  0  0  0
 24 23  1  0  0  0
 23 22  1  0  0  0
 22 21  1  0  0  0
 21 19  1  0  0  0
 19 20  2  0  0  0
 20 18  1  0  0  0
 18 17  1  0  0  0
 17 16  1  0  0  0
 16  1  1  0  0  0
  1  2  1  0  0  0
  2  3  1  0  0  0
  3  4  1  0  0  0
  4  5  1  0  0  0
  5  6  2  0  0  0
  5  7  1  0  0  0
  7  8  2  0  0  0
  8  9  1  0  0  0
  9 10  2  0  0  0
 10 11  1  0  0  0
 11 12  2  0  0  0
 12 13  1  0  0  0
 13 14  2  0  0  0
 14 15  1  0  0  0
 15  7  1  0  0  0
 14  9  1  0  0  0
M  END
> <minimizedAffinity>
-4.45954

> <CNNscore>
0.1831850857

> <CNNaffinity>
7.2172288895

> <CNN_VS>
1.3220887184

> <CNNaffinity_variance>
0.1637962759

$$$$
[H]/C(=C(\[H])C([H])([H])C([H])([H])C([H])([H])C([H])([H])C([H])([H])C([H])([H])C([H])([H])C([H])([H])[H])C([H])([H])C([H])([H])C([H])([H])C([H])([H])C([H])([H])C([H])([H])C([H])([H])C(=O)c1nc2c([H])c([H])c([H])nc2o1


 28 29  0  0  0  0  0  0  0  0999 V2000
    5.1431   49.2067  129.2608 C   0  0  0  0  0  0  0  0  0  0  0  0
    5.7588   48.0779  128.5848 C   0  0  0  0  0  0  0  0  0  0  0  0
    6.5393   47.0343  129.2460 C   0  0  0  0  0  0  0  0  0  0  0  0
    6.1961   46.6694  130.6548 C   0  0  0  0  0  0  0  0  0  0  0  0
    7.2835   45.8036  131.2447 C   0  0  0  0  0  0  0  0  0  0  0  0
    7.2374   45.5375  132.4632 O   0  0  0  0  0  0  0  0  0  0  0  0
    8.3487   45.2957  130.4263 C   0  0  0  0  0  0  0  0  0  0  0  0
    9.6308   45.7384  130.4311 N   0  0  0  0  0  0  0  0  0  0  0  0
   10.3564   45.0380  129.5398 C   0  0  0  0  0  0  0  0  0  0  0  0
   11.6553   45.0262  129.1119 C   0  0  0  0  0  0  0  0  0  0  0  0
   12.0487   44.1341  128.1471 C   0  0  0  0  0  0  0  0  0  0  0  0
   11.1156   43.2590  127.6240 C   0  0  0  0  0  0  0  0  0  0  0  0
    9.8207   43.2605  128.0410 N   0  0  0  0  0  0  0  0  0  0  0  0
    9.4472   44.1380  128.9856 C   0  0  0  0  0  0  0  0  0  0  0  0
    8.2693   44.3295  129.5437 O   0  0  0  0  0  0  0  0  0  0  0  0
    5.9176   50.1835  130.0459 C   0  0  0  0  0  0  0  0  0  0  0  0
    7.3338   50.3616  129.6192 C   0  0  0  0  0  0  0  0  0  0  0  0
    8.3446   50.3436  130.7562 C   0  0  0  0  0  0  0  0  0  0  0  0
   10.1315   48.8030  131.3585 C   0  0  0  0  0  0  0  0  0  0  0  0
    9.4057   49.3818  130.4340 C   0  0  0  0  0  0  0  0  0  0  0  0
    9.9835   49.0314  132.7783 C   0  0  0  0  0  0  0  0  0  0  0  0
    9.4278   47.8201  133.5244 C   0  0  0  0  0  0  0  0  0  0  0  0
   10.3965   46.6967  133.5601 C   0  0  0  0  0  0  0  0  0  0  0  0
   10.0463   45.5845  134.5485 C   0  0  0  0  0  0  0  0  0  0  0  0
   10.6426   44.2847  134.1639 C   0  0  0  0  0  0  0  0  0  0  0  0
    9.9130   43.3856  133.2495 C   0  0  0  0  0  0  0  0  0  0  0  0
   12.0805   43.0074  132.0970 C   0  0  0  0  0  0  0  0  0  0  0  0
   10.6556   42.5937  132.2451 C   0  0  0  0  0  0  0  0  0  0  0  0
 27 28  1  0  0  0
 28 26  1  0  0  0
 26 25  1  0  0  0
 25 24  1  0  0  0
 24 23  1  0  0  0
 23 22  1  0  0  0
 22 21  1  0  0  0
 21 19  1  0  0  0
 19 20  2  0  0  0
 20 18  1  0  0  0
 18 17  1  0  0  0
 17 16  1  0  0  0
 16  1  1  0  0  0
  1  2  1  0  0  0
  2  3  1  0  0  0
  3  4  1  0  0  0
  4  5  1  0  0  0
  5  6  2  0  0  0
  5  7  1  0  0  0
  7  8  2  0  0  0
  8  9  1  0  0  0
  9 10  2  0  0  0
 10 11  1  0  0  0
 11 12  2  0  0  0
 12 13  1  0  0  0
 13 14  2  0  0  0
 14 15  1  0  0  0
 15  7  1  0  0  0
 14  9  1  0  0  0
M  END
> <minimizedAffinity>
-4.85087

> <CNNscore>
0.1357895434

> <CNNaffinity>
6.9640059471

> <CNN_VS>
0.9456391931

> <CNNaffinity_variance>
0.5596967936

$$$$
[H]/C(=C(\[H])C([H])([H])C([H])([H])C([H])([H])C([H])([H])C([H])([H])C([H])([H])C([H])([H])C([H])([H])[H])C([H])([H])C([H])([H])C([H])([H])C([H])([H])C([H])([H])C([H])([H])C([H])([H])C(=O)c1nc2c([H])c([H])c([H])nc2o1


 28 29  0  0  0  0  0  0  0  0999 V2000
    8.2992   45.3611  134.1523 C   0  0  0  0  0  0  0  0  0  0  0  0
    8.7401   46.7029  134.4916 C   0  0  0  0  0  0  0  0  0  0  0  0
   10.1235   47.1687  134.4226 C   0  0  0  0  0  0  0  0  0  0  0  0
   10.6609   47.6188  133.1019 C   0  0  0  0  0  0  0  0  0  0  0  0
    9.9199   48.8482  132.6334 C   0  0  0  0  0  0  0  0  0  0  0  0
   10.2527   49.9575  133.0988 O   0  0  0  0  0  0  0  0  0  0  0  0
    8.8554   48.7484  131.6747 C   0  0  0  0  0  0  0  0  0  0  0  0
    8.4748   47.6178  131.0290 N   0  0  0  0  0  0  0  0  0  0  0  0
    7.4467   47.8901  130.2042 C   0  0  0  0  0  0  0  0  0  0  0  0
    6.6678   47.1862  129.3277 C   0  0  0  0  0  0  0  0  0  0  0  0
    5.6725   47.8252  128.6331 C   0  0  0  0  0  0  0  0  0  0  0  0
    5.4768   49.1783  128.8360 C   0  0  0  0  0  0  0  0  0  0  0  0
    6.2447   49.8897  129.7050 N   0  0  0  0  0  0  0  0  0  0  0  0
    7.2156   49.2538  130.3791 C   0  0  0  0  0  0  0  0  0  0  0  0
    8.0765   49.7187  131.2613 O   0  0  0  0  0  0  0  0  0  0  0  0
    8.3347   44.8354  132.7765 C   0  0  0  0  0  0  0  0  0  0  0  0
    8.8098   43.4294  132.6458 C   0  0  0  0  0  0  0  0  0  0  0  0
    8.8605   42.9086  131.2172 C   0  0  0  0  0  0  0  0  0  0  0  0
    8.7106   44.1163  129.1080 C   0  0  0  0  0  0  0  0  0  0  0  0
    8.2681   43.9118  130.3241 C   0  0  0  0  0  0  0  0  0  0  0  0
    9.8110   43.3980  128.5053 C   0  0  0  0  0  0  0  0  0  0  0  0
   10.9007   44.3197  127.9615 C   0  0  0  0  0  0  0  0  0  0  0  0
   11.5387   45.1205  129.0355 C   0  0  0  0  0  0  0  0  0  0  0  0
   12.4457   44.3227  129.9720 C   0  0  0  0  0  0  0  0  0  0  0  0
   12.4441   44.8648  131.3501 C   0  0  0  0  0  0  0  0  0  0  0  0
   12.2590   43.9538  132.4958 C   0  0  0  0  0  0  0  0  0  0  0  0
   11.5296   43.7360  134.8601 C   0  0  0  0  0  0  0  0  0  0  0  0
   12.3749   44.4715  133.8763 C   0  0  0  0  0  0  0  0  0  0  0  0
 27 28  1  0  0  0
 28 26  1  0  0  0
 26 25  1  0  0  0
 25 24  1  0  0  0
 24 23  1  0  0  0
 23 22  1  0  0  0
 22 21  1  0  0  0
 21 19  1  0  0  0
 19 20  2  0  0  0
 20 18  1  0  0  0
 18 17  1  0  0  0
 17 16  1  0  0  0
 16  1  1  0  0  0
  1  2  1  0  0  0
  2  3  1  0  0  0
  3  4  1  0  0  0
  4  5  1  0  0  0
  5  6  2  0  0  0
  5  7  1  0  0  0
  7  8  2  0  0  0
  8  9  1  0  0  0
  9 10  2  0  0  0
 10 11  1  0  0  0
 11 12  2  0  0  0
 12 13  1  0  0  0
 13 14  2  0  0  0
 14 15  1  0  0  0
 15  7  1  0  0  0
 14  9  1  0  0  0
M  END
> <minimizedAffinity>
-6.94593

> <CNNscore>
0.1349689960

> <CNNaffinity>
7.4012565613

> <CNN_VS>
0.9989401698

> <CNNaffinity_variance>
0.2761066556

$$$$
[H]/C(=C(\[H])C([H])([H])C([H])([H])C([H])([H])C([H])([H])C([H])([H])C([H])([H])C([H])([H])C([H])([H])[H])C([H])([H])C([H])([H])C([H])([H])C([H])([H])C([H])([H])C([H])([H])C([H])([H])C(=O)c1nc2c([H])c([H])c([H])nc2o1


 28 29  0  0  0  0  0  0  0  0999 V2000
    8.5354   45.8898  134.0643 C   0  0  0  0  0  0  0  0  0  0  0  0
    9.8401   46.3607  134.4960 C   0  0  0  0  0  0  0  0  0  0  0  0
   11.0201   46.4500  133.6388 C   0  0  0  0  0  0  0  0  0  0  0  0
   12.2459   45.6876  134.0287 C   0  0  0  0  0  0  0  0  0  0  0  0
   12.2444   44.3310  133.3655 C   0  0  0  0  0  0  0  0  0  0  0  0
   12.6747   43.3527  134.0101 O   0  0  0  0  0  0  0  0  0  0  0  0
   11.7601   44.1654  132.0237 C   0  0  0  0  0  0  0  0  0  0  0  0
   12.1955   44.8475  130.9351 N   0  0  0  0  0  0  0  0  0  0  0  0
   11.5223   44.4383  129.8437 C   0  0  0  0  0  0  0  0  0  0  0  0
   11.5183   44.7445  128.5109 C   0  0  0  0  0  0  0  0  0  0  0  0
   10.6581   44.0942  127.6631 C   0  0  0  0  0  0  0  0  0  0  0  0
    9.8068   43.1353  128.1791 C   0  0  0  0  0  0  0  0  0  0  0  0
    9.8011   42.8216  129.5029 N   0  0  0  0  0  0  0  0  0  0  0  0
   10.6472   43.4645  130.3229 C   0  0  0  0  0  0  0  0  0  0  0  0
   10.8258   43.3380  131.6220 O   0  0  0  0  0  0  0  0  0  0  0  0
    8.3575   44.6798  133.2429 C   0  0  0  0  0  0  0  0  0  0  0  0
    7.8421   44.9174  131.8654 C   0  0  0  0  0  0  0  0  0  0  0  0
    7.8610   46.3736  131.4249 C   0  0  0  0  0  0  0  0  0  0  0  0
    9.6727   47.3771  130.1443 C   0  0  0  0  0  0  0  0  0  0  0  0
    8.7051   46.4980  130.2303 C   0  0  0  0  0  0  0  0  0  0  0  0
   10.0241   48.3131  131.1884 C   0  0  0  0  0  0  0  0  0  0  0  0
    9.6317   49.7519  130.8590 C   0  0  0  0  0  0  0  0  0  0  0  0
    8.2292   50.0476  131.2429 C   0  0  0  0  0  0  0  0  0  0  0  0
    7.3540   50.5719  130.1048 C   0  0  0  0  0  0  0  0  0  0  0  0
    6.3223   49.5921  129.6941 C   0  0  0  0  0  0  0  0  0  0  0  0
    6.6177   48.6231  128.6215 C   0  0  0  0  0  0  0  0  0  0  0  0
    4.9319   47.1124  129.6440 C   0  0  0  0  0  0  0  0  0  0  0  0
    5.7567   47.4337  128.4441 C   0  0  0  0  0  0  0  0  0  0  0  0
 27 28  1  0  0  0
 28 26  1  0  0  0
 26 25  1  0  0  0
 25 24  1  0  0  0
 24 23  1  0  0  0
 23 22  1  0  0  0
 22 21  1  0  0  0
 21 19  1  0  0  0
 19 20  2  0  0  0
 20 18  1  0  0  0
 18 17  1  0  0  0
 17 16  1  0  0  0
 16  1  1  0  0  0
  1  2  1  0  0  0
  2  3  1  0  0  0
  3  4  1  0  0  0
  4  5  1  0  0  0
  5  6  2  0  0  0
  5  7  1  0  0  0
  7  8  2  0  0  0
  8  9  1  0  0  0
  9 10  2  0  0  0
 10 11  1  0  0  0
 11 12  2  0  0  0
 12 13  1  0  0  0
 13 14  2  0  0  0
 14 15  1  0  0  0
 15  7  1  0  0  0
 14  9  1  0  0  0
M  END
> <minimizedAffinity>
-6.43772

> <CNNscore>
0.1316175461

> <CNNaffinity>
7.1876740456

> <CNN_VS>
0.9460240006

> <CNNaffinity_variance>
0.4942967892

$$$$
[H]/C(=C(\[H])C([H])([H])C([H])([H])C([H])([H])C([H])([H])C([H])([H])C([H])([H])C([H])([H])C([H])([H])[H])C([H])([H])C([H])([H])C([H])([H])C([H])([H])C([H])([H])C([H])([H])C([H])([H])C(=O)c1nc2c([H])c([H])c([H])nc2o1


 28 29  0  0  0  0  0  0  0  0999 V2000
    9.0975   49.9219  131.1519 C   0  0  0  0  0  0  0  0  0  0  0  0
    7.7338   50.0455  130.6668 C   0  0  0  0  0  0  0  0  0  0  0  0
    7.3330   49.9299  129.2663 C   0  0  0  0  0  0  0  0  0  0  0  0
    7.5658   48.6322  128.5611 C   0  0  0  0  0  0  0  0  0  0  0  0
    6.6879   47.5562  129.1541 C   0  0  0  0  0  0  0  0  0  0  0  0
    5.4522   47.7317  129.1592 O   0  0  0  0  0  0  0  0  0  0  0  0
    7.2573   46.3567  129.7013 C   0  0  0  0  0  0  0  0  0  0  0  0
    7.4279   46.0918  131.0206 N   0  0  0  0  0  0  0  0  0  0  0  0
    7.9897   44.8779  131.1710 C   0  0  0  0  0  0  0  0  0  0  0  0
    8.3877   44.0946  132.2190 C   0  0  0  0  0  0  0  0  0  0  0  0
    8.9429   42.8634  131.9793 C   0  0  0  0  0  0  0  0  0  0  0  0
    9.0890   42.4377  130.6725 C   0  0  0  0  0  0  0  0  0  0  0  0
    8.6970   43.2073  129.6214 N   0  0  0  0  0  0  0  0  0  0  0  0
    8.1552   44.4103  129.8681 C   0  0  0  0  0  0  0  0  0  0  0  0
    7.7057   45.3230  129.0311 O   0  0  0  0  0  0  0  0  0  0  0  0
    9.9758   48.7988  130.7807 C   0  0  0  0  0  0  0  0  0  0  0  0
   10.3277   47.8731  131.8937 C   0  0  0  0  0  0  0  0  0  0  0  0
    9.8942   48.3475  133.2727 C   0  0  0  0  0  0  0  0  0  0  0  0
    9.0242   46.5029  134.6032 C   0  0  0  0  0  0  0  0  0  0  0  0
    8.8132   47.4798  133.7560 C   0  0  0  0  0  0  0  0  0  0  0  0
   10.3159   46.1635  135.1567 C   0  0  0  0  0  0  0  0  0  0  0  0
   10.9138   44.8971  134.5472 C   0  0  0  0  0  0  0  0  0  0  0  0
   12.0659   45.1967  133.6615 C   0  0  0  0  0  0  0  0  0  0  0  0
   12.2084   44.2598  132.4622 C   0  0  0  0  0  0  0  0  0  0  0  0
   11.7994   44.9063  131.1942 C   0  0  0  0  0  0  0  0  0  0  0  0
   12.4242   44.4894  129.9243 C   0  0  0  0  0  0  0  0  0  0  0  0
   10.9265   45.9287  128.5623 C   0  0  0  0  0  0  0  0  0  0  0  0
   11.6872   44.6493  128.6520 C   0  0  0  0  0  0  0  0  0  0  0  0
 27 28  1  0  0  0
 28 26  1  0  0  0
 26 25  1  0  0  0
 25 24  1  0  0  0
 24 23  1  0  0  0
 23 22  1  0  0  0
 22 21  1  0  0  0
 21 19  1  0  0  0
 19 20  2  0  0  0
 20 18  1  0  0  0
 18 17  1  0  0  0
 17 16  1  0  0  0
 16  1  1  0  0  0
  1  2  1  0  0  0
  2  3  1  0  0  0
  3  4  1  0  0  0
  4  5  1  0  0  0
  5  6  2  0  0  0
  5  7  1  0  0  0
  7  8  2  0  0  0
  8  9  1  0  0  0
  9 10  2  0  0  0
 10 11  1  0  0  0
 11 12  2  0  0  0
 12 13  1  0  0  0
 13 14  2  0  0  0
 14 15  1  0  0  0
 15  7  1  0  0  0
 14  9  1  0  0  0
M  END
> <minimizedAffinity>
-7.15542

> <CNNscore>
0.1294894516

> <CNNaffinity>
7.0772185326

> <CNN_VS>
0.9164251685

> <CNNaffinity_variance>
0.9175543785

$$$$
[H]/C(=C(\[H])C([H])([H])C([H])([H])C([H])([H])C([H])([H])C([H])([H])C([H])([H])C([H])([H])C([H])([H])[H])C([H])([H])C([H])([H])C([H])([H])C([H])([H])C([H])([H])C([H])([H])C([H])([H])C(=O)c1nc2c([H])c([H])c([H])nc2o1


 28 29  0  0  0  0  0  0  0  0999 V2000
    7.0168   48.6932  127.9708 C   0  0  0  0  0  0  0  0  0  0  0  0
    6.0227   47.6446  128.1201 C   0  0  0  0  0  0  0  0  0  0  0  0
    5.5550   47.1147  129.3991 C   0  0  0  0  0  0  0  0  0  0  0  0
    6.5697   46.6503  130.3943 C   0  0  0  0  0  0  0  0  0  0  0  0
    7.6586   45.8702  129.6974 C   0  0  0  0  0  0  0  0  0  0  0  0
    7.8609   46.0837  128.4844 O   0  0  0  0  0  0  0  0  0  0  0  0
    8.4460   44.9033  130.4097 C   0  0  0  0  0  0  0  0  0  0  0  0
    9.6847   44.4769  130.0579 N   0  0  0  0  0  0  0  0  0  0  0  0
   10.1229   43.5693  130.9501 C   0  0  0  0  0  0  0  0  0  0  0  0
   11.2505   42.8149  131.1218 C   0  0  0  0  0  0  0  0  0  0  0  0
   11.3467   41.9641  132.1934 C   0  0  0  0  0  0  0  0  0  0  0  0
   10.2925   41.8873  133.0840 C   0  0  0  0  0  0  0  0  0  0  0  0
    9.1655   42.6324  132.9244 N   0  0  0  0  0  0  0  0  0  0  0  0
    9.0827   43.4614  131.8721 C   0  0  0  0  0  0  0  0  0  0  0  0
    8.1101   44.2723  131.5088 O   0  0  0  0  0  0  0  0  0  0  0  0
    6.6882   50.1245  128.0888 C   0  0  0  0  0  0  0  0  0  0  0  0
    7.4960   50.8815  129.0858 C   0  0  0  0  0  0  0  0  0  0  0  0
    6.7905   51.1371  130.4093 C   0  0  0  0  0  0  0  0  0  0  0  0
    7.9761   49.3821  131.6107 C   0  0  0  0  0  0  0  0  0  0  0  0
    6.8446   49.9150  131.2207 C   0  0  0  0  0  0  0  0  0  0  0  0
    9.2831   49.9161  131.2998 C   0  0  0  0  0  0  0  0  0  0  0  0
   10.4237   49.0788  131.8748 C   0  0  0  0  0  0  0  0  0  0  0  0
   10.3685   49.0063  133.3558 C   0  0  0  0  0  0  0  0  0  0  0  0
    9.9422   47.6479  133.9119 C   0  0  0  0  0  0  0  0  0  0  0  0
   10.3980   46.5255  133.0601 C   0  0  0  0  0  0  0  0  0  0  0  0
   11.6315   45.7950  133.4086 C   0  0  0  0  0  0  0  0  0  0  0  0
   12.8729   43.9671  134.5432 C   0  0  0  0  0  0  0  0  0  0  0  0
   11.5893   44.7155  134.4188 C   0  0  0  0  0  0  0  0  0  0  0  0
 27 28  1  0  0  0
 28 26  1  0  0  0
 26 25  1  0  0  0
 25 24  1  0  0  0
 24 23  1  0  0  0
 23 22  1  0  0  0
 22 21  1  0  0  0
 21 19  1  0  0  0
 19 20  2  0  0  0
 20 18  1  0  0  0
 18 17  1  0  0  0
 17 16  1  0  0  0
 16  1  1  0  0  0
  1  2  1  0  0  0
  2  3  1  0  0  0
  3  4  1  0  0  0
  4  5  1  0  0  0
  5  6  2  0  0  0
  5  7  1  0  0  0
  7  8  2  0  0  0
  8  9  1  0  0  0
  9 10  2  0  0  0
 10 11  1  0  0  0
 11 12  2  0  0  0
 12 13  1  0  0  0
 13 14  2  0  0  0
 14 15  1  0  0  0
 15  7  1  0  0  0
 14  9  1  0  0  0
M  END
> <minimizedAffinity>
-1.48971

> <CNNscore>
0.1248952374

> <CNNaffinity>
6.9051461220

> <CNN_VS>
0.8624198437

> <CNNaffinity_variance>
0.0823511407

$$$$
[H]/C(=C(\[H])C([H])([H])C([H])([H])C([H])([H])C([H])([H])C([H])([H])C([H])([H])C([H])([H])C([H])([H])[H])C([H])([H])C([H])([H])C([H])([H])C([H])([H])C([H])([H])C([H])([H])C([H])([H])C(=O)c1nc2c([H])c([H])c([H])nc2o1


 28 29  0  0  0  0  0  0  0  0999 V2000
    8.4235   44.6401  129.8933 C   0  0  0  0  0  0  0  0  0  0  0  0
    8.7655   43.7494  128.7980 C   0  0  0  0  0  0  0  0  0  0  0  0
   10.1079   43.5851  128.2445 C   0  0  0  0  0  0  0  0  0  0  0  0
   11.0085   44.7773  128.1884 C   0  0  0  0  0  0  0  0  0  0  0  0
   12.1617   44.6002  129.1470 C   0  0  0  0  0  0  0  0  0  0  0  0
   13.3230   44.6093  128.6896 O   0  0  0  0  0  0  0  0  0  0  0  0
   11.9325   44.4245  130.5538 C   0  0  0  0  0  0  0  0  0  0  0  0
   12.4381   45.2043  131.5418 N   0  0  0  0  0  0  0  0  0  0  0  0
   12.0193   44.7504  132.7377 C   0  0  0  0  0  0  0  0  0  0  0  0
   12.1903   45.1071  134.0468 C   0  0  0  0  0  0  0  0  0  0  0  0
   11.5834   44.3789  135.0382 C   0  0  0  0  0  0  0  0  0  0  0  0
   10.8055   43.2910  134.6893 C   0  0  0  0  0  0  0  0  0  0  0  0
   10.6274   42.9259  133.3909 N   0  0  0  0  0  0  0  0  0  0  0  0
   11.2262   43.6460  132.4294 C   0  0  0  0  0  0  0  0  0  0  0  0
   11.2051   43.4927  131.1210 O   0  0  0  0  0  0  0  0  0  0  0  0
    8.1007   46.0633  129.6910 C   0  0  0  0  0  0  0  0  0  0  0  0
    6.7572   46.4852  130.1774 C   0  0  0  0  0  0  0  0  0  0  0  0
    6.0874   47.5599  129.3340 C   0  0  0  0  0  0  0  0  0  0  0  0
    7.6455   49.3763  128.8841 C   0  0  0  0  0  0  0  0  0  0  0  0
    7.1096   48.2357  128.5257 C   0  0  0  0  0  0  0  0  0  0  0  0
    7.3075   50.0967  130.0910 C   0  0  0  0  0  0  0  0  0  0  0  0
    8.4782   50.2154  131.0646 C   0  0  0  0  0  0  0  0  0  0  0  0
    9.6533   49.4260  130.6200 C   0  0  0  0  0  0  0  0  0  0  0  0
   10.1016   48.3429  131.6011 C   0  0  0  0  0  0  0  0  0  0  0  0
    9.0957   48.0939  132.6590 C   0  0  0  0  0  0  0  0  0  0  0  0
    9.5104   47.4792  133.9345 C   0  0  0  0  0  0  0  0  0  0  0  0
    8.0893   45.4838  133.5241 C   0  0  0  0  0  0  0  0  0  0  0  0
    8.6954   46.3997  134.5327 C   0  0  0  0  0  0  0  0  0  0  0  0
 27 28  1  0  0  0
 28 26  1  0  0  0
 26 25  1  0  0  0
 25 24  1  0  0  0
 24 23  1  0  0  0
 23 22  1  0  0  0
 22 21  1  0  0  0
 21 19  1  0  0  0
 19 20  2  0  0  0
 20 18  1  0  0  0
 18 17  1  0  0  0
 17 16  1  0  0  0
 16  1  1  0  0  0
  1  2  1  0  0  0
  2  3  1  0  0  0
  3  4  1  0  0  0
  4  5  1  0  0  0
  5  6  2  0  0  0
  5  7  1  0  0  0
  7  8  2  0  0  0
  8  9  1  0  0  0
  9 10  2  0  0  0
 10 11  1  0  0  0
 11 12  2  0  0  0
 12 13  1  0  0  0
 13 14  2  0  0  0
 14 15  1  0  0  0
 15  7  1  0  0  0
 14  9  1  0  0  0
M  END
> <minimizedAffinity>
-7.02079

> <CNNscore>
0.1231843829

> <CNNaffinity>
6.8319001198

> <CNN_VS>
0.8415833712

> <CNNaffinity_variance>
1.2768099308

$$$$
[H]/C(=C(\[H])C([H])([H])C([H])([H])C([H])([H])C([H])([H])C([H])([H])C([H])([H])C([H])([H])C([H])([H])[H])C([H])([H])C([H])([H])C([H])([H])C([H])([H])C([H])([H])C([H])([H])C([H])([H])C(=O)c1nc2c([H])c([H])c([H])nc2o1


 28 29  0  0  0  0  0  0  0  0999 V2000
    8.9535   46.5380  130.1250 C   0  0  0  0  0  0  0  0  0  0  0  0
    9.7053   46.7374  128.8981 C   0  0  0  0  0  0  0  0  0  0  0  0
   10.8401   45.9207  128.4732 C   0  0  0  0  0  0  0  0  0  0  0  0
   10.5700   44.6656  127.7067 C   0  0  0  0  0  0  0  0  0  0  0  0
   10.3489   43.5150  128.6592 C   0  0  0  0  0  0  0  0  0  0  0  0
    9.8557   42.4589  128.2128 O   0  0  0  0  0  0  0  0  0  0  0  0
   10.6962   43.6287  130.0480 C   0  0  0  0  0  0  0  0  0  0  0  0
   10.0247   43.0613  131.0810 N   0  0  0  0  0  0  0  0  0  0  0  0
   10.6278   43.3764  132.2423 C   0  0  0  0  0  0  0  0  0  0  0  0
   10.4233   43.1095  133.5679 C   0  0  0  0  0  0  0  0  0  0  0  0
   11.2799   43.6230  134.5082 C   0  0  0  0  0  0  0  0  0  0  0  0
   12.3402   44.4056  134.0916 C   0  0  0  0  0  0  0  0  0  0  0  0
   12.5545   44.6784  132.7762 N   0  0  0  0  0  0  0  0  0  0  0  0
   11.7098   44.1705  131.8651 C   0  0  0  0  0  0  0  0  0  0  0  0
   11.7083   44.2916  130.5532 O   0  0  0  0  0  0  0  0  0  0  0  0
    7.7151   45.7418  130.1794 C   0  0  0  0  0  0  0  0  0  0  0  0
    6.4514   46.5308  130.1607 C   0  0  0  0  0  0  0  0  0  0  0  0
    6.2516   47.3764  128.9118 C   0  0  0  0  0  0  0  0  0  0  0  0
    6.0567   49.7154  129.5604 C   0  0  0  0  0  0  0  0  0  0  0  0
    5.4822   48.5750  129.2672 C   0  0  0  0  0  0  0  0  0  0  0  0
    7.4858   49.9336  129.5707 C   0  0  0  0  0  0  0  0  0  0  0  0
    8.0869   49.8939  130.9742 C   0  0  0  0  0  0  0  0  0  0  0  0
    9.5683   49.8155  130.9427 C   0  0  0  0  0  0  0  0  0  0  0  0
   10.2073   49.3099  132.2358 C   0  0  0  0  0  0  0  0  0  0  0  0
    9.2917   48.4421  133.0115 C   0  0  0  0  0  0  0  0  0  0  0  0
    9.8259   47.2678  133.7273 C   0  0  0  0  0  0  0  0  0  0  0  0
    8.0179   45.5734  133.8999 C   0  0  0  0  0  0  0  0  0  0  0  0
    8.9463   46.4878  134.6247 C   0  0  0  0  0  0  0  0  0  0  0  0
 27 28  1  0  0  0
 28 26  1  0  0  0
 26 25  1  0  0  0
 25 24  1  0  0  0
 24 23  1  0  0  0
 23 22  1  0  0  0
 22 21  1  0  0  0
 21 19  1  0  0  0
 19 20  2  0  0  0
 20 18  1  0  0  0
 18 17  1  0  0  0
 17 16  1  0  0  0
 16  1  1  0  0  0
  1  2  1  0  0  0
  2  3  1  0  0  0
  3  4  1  0  0  0
  4  5  1  0  0  0
  5  6  2  0  0  0
  5  7  1  0  0  0
  7  8  2  0  0  0
  8  9  1  0  0  0
  9 10  2  0  0  0
 10 11  1  0  0  0
 11 12  2  0  0  0
 12 13  1  0  0  0
 13 14  2  0  0  0
 14 15  1  0  0  0
 15  7  1  0  0  0
 14  9  1  0  0  0
M  END
> <minimizedAffinity>
-7.22555

> <CNNscore>
0.1213133186

> <CNNaffinity>
6.8438539505

> <CNN_VS>
0.8302506208

> <CNNaffinity_variance>
1.1293979883

$$$$
[H]/C(=C(\[H])C([H])([H])C([H])([H])C([H])([H])C([H])([H])C([H])([H])C([H])([H])C([H])([H])C([H])([H])[H])C([H])([H])C([H])([H])C([H])([H])C([H])([H])C([H])([H])C([H])([H])C([H])([H])C(=O)c1nc2c([H])c([H])c([H])nc2o1


 28 29  0  0  0  0  0  0  0  0999 V2000
    8.1243   45.7954  134.2330 C   0  0  0  0  0  0  0  0  0  0  0  0
    9.3353   46.1714  134.9417 C   0  0  0  0  0  0  0  0  0  0  0  0
   10.6791   45.7103  134.5997 C   0  0  0  0  0  0  0  0  0  0  0  0
   10.9700   44.2450  134.6648 C   0  0  0  0  0  0  0  0  0  0  0  0
   11.9263   43.8578  133.5623 C   0  0  0  0  0  0  0  0  0  0  0  0
   13.0942   43.5434  133.8702 O   0  0  0  0  0  0  0  0  0  0  0  0
   11.5062   43.8504  132.1890 C   0  0  0  0  0  0  0  0  0  0  0  0
   12.0187   44.6247  131.2001 N   0  0  0  0  0  0  0  0  0  0  0  0
   11.3893   44.3564  130.0410 C   0  0  0  0  0  0  0  0  0  0  0  0
   11.4634   44.7988  128.7492 C   0  0  0  0  0  0  0  0  0  0  0  0
   10.6269   44.2728  127.7978 C   0  0  0  0  0  0  0  0  0  0  0  0
    9.7196   43.2985  128.1690 C   0  0  0  0  0  0  0  0  0  0  0  0
    9.6359   42.8498  129.4506 N   0  0  0  0  0  0  0  0  0  0  0  0
   10.4595   43.3719  130.3729 C   0  0  0  0  0  0  0  0  0  0  0  0
   10.5671   43.1050  131.6585 O   0  0  0  0  0  0  0  0  0  0  0  0
    8.1375   45.2744  132.8550 C   0  0  0  0  0  0  0  0  0  0  0  0
    7.7106   46.2424  131.8059 C   0  0  0  0  0  0  0  0  0  0  0  0
    7.5267   45.6362  130.4226 C   0  0  0  0  0  0  0  0  0  0  0  0
    7.5475   47.3768  128.7199 C   0  0  0  0  0  0  0  0  0  0  0  0
    8.1964   46.4919  129.4357 C   0  0  0  0  0  0  0  0  0  0  0  0
    6.1248   47.6177  128.8085 C   0  0  0  0  0  0  0  0  0  0  0  0
    5.7857   49.0171  129.3179 C   0  0  0  0  0  0  0  0  0  0  0  0
    6.9735   49.9062  129.3334 C   0  0  0  0  0  0  0  0  0  0  0  0
    7.4514   50.3068  130.7289 C   0  0  0  0  0  0  0  0  0  0  0  0
    8.8717   49.9551  130.9573 C   0  0  0  0  0  0  0  0  0  0  0  0
    9.4082   49.9284  132.3315 C   0  0  0  0  0  0  0  0  0  0  0  0
   10.6428   47.8790  131.6641 C   0  0  0  0  0  0  0  0  0  0  0  0
   10.2500   48.7953  132.7729 C   0  0  0  0  0  0  0  0  0  0  0  0
 27 28  1  0  0  0
 28 26  1  0  0  0
 26 25  1  0  0  0
 25 24  1  0  0  0
 24 23  1  0  0  0
 23 22  1  0  0  0
 22 21  1  0  0  0
 21 19  1  0  0  0
 19 20  2  0  0  0
 20 18  1  0  0  0
 18 17  1  0  0  0
 17 16  1  0  0  0
 16  1  1  0  0  0
  1  2  1  0  0  0
  2  3  1  0  0  0
  3  4  1  0  0  0
  4  5  1  0  0  0
  5  6  2  0  0  0
  5  7  1  0  0  0
  7  8  2  0  0  0
  8  9  1  0  0  0
  9 10  2  0  0  0
 10 11  1  0  0  0
 11 12  2  0  0  0
 12 13  1  0  0  0
 13 14  2  0  0  0
 14 15  1  0  0  0
 15  7  1  0  0  0
 14  9  1  0  0  0
M  END
> <minimizedAffinity>
-7.04786

> <CNNscore>
0.1194287986

> <CNNaffinity>
6.9611597061

> <CNN_VS>
0.8313629627

> <CNNaffinity_variance>
1.0036208630

$$$$
[H]c1c([H])c([H])c(C([H])([H])C([H])([H])C([H])([H])[H])c(OC([H])(C2=NC([H])([H])C([H])([H])N2[H])C([H])([H])[H])c1[H]


 18 19  0  0  0  0  0  0  0  0999 V2000
    9.8451   44.4335  132.0307 C   0  0  0  0  0  0  0  0  0  0  0  0
   10.2559   43.4255  132.8743 C   0  0  0  0  0  0  0  0  0  0  0  0
   11.4138   43.5158  133.6176 C   0  0  0  0  0  0  0  0  0  0  0  0
   12.2084   44.6403  133.5357 C   0  0  0  0  0  0  0  0  0  0  0  0
   11.8146   45.6602  132.6974 C   0  0  0  0  0  0  0  0  0  0  0  0
   10.6587   45.5710  131.9546 C   0  0  0  0  0  0  0  0  0  0  0  0
    8.6252   44.3733  131.2206 C   0  0  0  0  0  0  0  0  0  0  0  0
    9.3472   43.5747  128.9734 C   0  0  0  0  0  0  0  0  0  0  0  0
    8.6109   43.1981  130.2652 C   0  0  0  0  0  0  0  0  0  0  0  0
   10.2385   46.5577  131.1177 O   0  0  0  0  0  0  0  0  0  0  0  0
    9.8180   47.8375  131.4250 C   0  0  0  0  0  0  0  0  0  0  0  0
    9.2627   47.9899  132.8060 C   0  0  0  0  0  0  0  0  0  0  0  0
    8.7986   48.3453  130.4303 C   0  0  0  0  0  0  0  0  0  0  0  0
    8.3296   47.6108  129.4913 N   0  0  0  0  0  0  0  0  0  0  0  0
    7.3861   48.3385  128.6968 C   0  0  0  0  0  0  0  0  0  0  0  0
    7.5222   49.7768  129.1434 C   0  0  0  0  0  0  0  0  0  0  0  0
    8.2365   49.6407  130.3866 N   0  0  0  0  0  0  0  0  0  0  0  0
    8.3270   50.3834  131.1426 H   0  0  0  0  0  0  0  0  0  0  0  0
  8  9  1  0  0  0
  9  7  1  0  0  0
  7  1  1  0  0  0
  1  2  2  0  0  0
  2  3  1  0  0  0
  3  4  2  0  0  0
  4  5  1  0  0  0
  5  6  2  0  0  0
  6 10  1  0  0  0
 10 11  1  0  0  0
 11 12  1  0  0  0
 11 13  1  0  0  0
 13 14  2  0  0  0
 14 15  1  0  0  0
 15 16  1  0  0  0
 16 17  1  0  0  0
  6  1  1  0  0  0
 17 13  1  0  0  0
 17 18  1  0  0  0
M  END
> <minimizedAffinity>
-6.34545

> <CNNscore>
0.7910857201

> <CNNaffinity>
7.0416383743

> <CNN_VS>
5.5705394745

> <CNNaffinity_variance>
0.5209906101

$$$$
[H]c1c([H])c([H])c(C([H])([H])C([H])([H])C([H])([H])[H])c(OC([H])(C2=NC([H])([H])C([H])([H])N2[H])C([H])([H])[H])c1[H]


 18 19  0  0  0  0  0  0  0  0999 V2000
   10.0475   44.4842  131.2349 C   0  0  0  0  0  0  0  0  0  0  0  0
   10.1328   43.2781  131.8940 C   0  0  0  0  0  0  0  0  0  0  0  0
   10.6572   43.1709  133.1648 C   0  0  0  0  0  0  0  0  0  0  0  0
   11.1196   44.2904  133.8245 C   0  0  0  0  0  0  0  0  0  0  0  0
   11.0428   45.5068  133.1822 C   0  0  0  0  0  0  0  0  0  0  0  0
   10.5196   45.6150  131.9131 C   0  0  0  0  0  0  0  0  0  0  0  0
    9.5024   44.6388  129.8832 C   0  0  0  0  0  0  0  0  0  0  0  0
   11.7632   44.7060  128.8378 C   0  0  0  0  0  0  0  0  0  0  0  0
   10.3884   44.0265  128.8181 C   0  0  0  0  0  0  0  0  0  0  0  0
   10.4273   46.7986  131.2488 O   0  0  0  0  0  0  0  0  0  0  0  0
    9.9165   48.0046  131.6888 C   0  0  0  0  0  0  0  0  0  0  0  0
    9.2685   47.9459  133.0362 C   0  0  0  0  0  0  0  0  0  0  0  0
    8.9338   48.5900  130.6999 C   0  0  0  0  0  0  0  0  0  0  0  0
    8.3568   49.7179  130.8900 N   0  0  0  0  0  0  0  0  0  0  0  0
    7.4786   50.0318  129.8033 C   0  0  0  0  0  0  0  0  0  0  0  0
    7.3972   48.7633  128.9842 C   0  0  0  0  0  0  0  0  0  0  0  0
    8.5227   48.0123  129.4779 N   0  0  0  0  0  0  0  0  0  0  0  0
    8.9694   47.1694  129.0074 H   0  0  0  0  0  0  0  0  0  0  0  0
  8  9  1  0  0  0
  9  7  1  0  0  0
  7  1  1  0  0  0
  1  2  2  0  0  0
  2  3  1  0  0  0
  3  4  2  0  0  0
  4  5  1  0  0  0
  5  6  2  0  0  0
  6 10  1  0  0  0
 10 11  1  0  0  0
 11 12  1  0  0  0
 11 13  1  0  0  0
 13 14  2  0  0  0
 14 15  1  0  0  0
 15 16  1  0  0  0
 16 17  1  0  0  0
  6  1  1  0  0  0
 17 13  1  0  0  0
 17 18  1  0  0  0
M  END
> <minimizedAffinity>
-6.27497

> <CNNscore>
0.7758729458

> <CNNaffinity>
6.9861097336

> <CNN_VS>
5.4203333855

> <CNNaffinity_variance>
0.3071869016

$$$$
[H]c1c([H])c([H])c(C([H])([H])C([H])([H])C([H])([H])[H])c(OC([H])(C2=NC([H])([H])C([H])([H])N2[H])C([H])([H])[H])c1[H]


 18 19  0  0  0  0  0  0  0  0999 V2000
    9.0185   44.3584  132.0052 C   0  0  0  0  0  0  0  0  0  0  0  0
    9.7826   44.0634  133.1122 C   0  0  0  0  0  0  0  0  0  0  0  0
   10.0648   45.0027  134.0815 C   0  0  0  0  0  0  0  0  0  0  0  0
    9.5799   46.2888  133.9675 C   0  0  0  0  0  0  0  0  0  0  0  0
    8.8130   46.6040  132.8672 C   0  0  0  0  0  0  0  0  0  0  0  0
    8.5308   45.6669  131.8986 C   0  0  0  0  0  0  0  0  0  0  0  0
    8.7011   43.3906  130.9512 C   0  0  0  0  0  0  0  0  0  0  0  0
    9.7980   43.2501  128.7183 C   0  0  0  0  0  0  0  0  0  0  0  0
    9.9289   42.9071  130.2075 C   0  0  0  0  0  0  0  0  0  0  0  0
    7.7771   45.9417  130.8000 O   0  0  0  0  0  0  0  0  0  0  0  0
    8.1144   46.6681  129.6741 C   0  0  0  0  0  0  0  0  0  0  0  0
    9.5792   46.6901  129.3696 C   0  0  0  0  0  0  0  0  0  0  0  0
    7.6115   48.0918  129.7555 C   0  0  0  0  0  0  0  0  0  0  0  0
    8.2126   48.9951  130.4366 N   0  0  0  0  0  0  0  0  0  0  0  0
    7.5252   50.2479  130.3422 C   0  0  0  0  0  0  0  0  0  0  0  0
    6.2085   49.9246  129.6727 C   0  0  0  0  0  0  0  0  0  0  0  0
    6.4610   48.6165  129.1254 N   0  0  0  0  0  0  0  0  0  0  0  0
    5.8845   48.1276  128.3772 H   0  0  0  0  0  0  0  0  0  0  0  0
  8  9  1  0  0  0
  9  7  1  0  0  0
  7  1  1  0  0  0
  1  2  2  0  0  0
  2  3  1  0  0  0
  3  4  2  0  0  0
  4  5  1  0  0  0
  5  6  2  0  0  0
  6 10  1  0  0  0
 10 11  1  0  0  0
 11 12  1  0  0  0
 11 13  1  0  0  0
 13 14  2  0  0  0
 14 15  1  0  0  0
 15 16  1  0  0  0
 16 17  1  0  0  0
  6  1  1  0  0  0
 17 13  1  0  0  0
 17 18  1  0  0  0
M  END
> <minimizedAffinity>
-6.24785

> <CNNscore>
0.7687458992

> <CNNaffinity>
6.8818459511

> <CNN_VS>
5.2903909683

> <CNNaffinity_variance>
0.1519825011

$$$$
[H]c1c([H])c([H])c(C([H])([H])C([H])([H])C([H])([H])[H])c(OC([H])(C2=NC([H])([H])C([H])([H])N2[H])C([H])([H])[H])c1[H]


 18 19  0  0  0  0  0  0  0  0999 V2000
   10.9407   45.4179  132.2965 C   0  0  0  0  0  0  0  0  0  0  0  0
   12.0011   44.7753  132.8957 C   0  0  0  0  0  0  0  0  0  0  0  0
   12.2438   43.4303  132.7121 C   0  0  0  0  0  0  0  0  0  0  0  0
   11.4154   42.6763  131.9073 C   0  0  0  0  0  0  0  0  0  0  0  0
   10.3489   43.3008  131.2985 C   0  0  0  0  0  0  0  0  0  0  0  0
   10.1055   44.6437  131.4813 C   0  0  0  0  0  0  0  0  0  0  0  0
   10.6461   46.8430  132.4708 C   0  0  0  0  0  0  0  0  0  0  0  0
    8.9906   46.6287  134.3208 C   0  0  0  0  0  0  0  0  0  0  0  0
   10.3490   47.2105  133.9099 C   0  0  0  0  0  0  0  0  0  0  0  0
    9.0634   45.2935  130.8962 O   0  0  0  0  0  0  0  0  0  0  0  0
    8.9253   45.7124  129.5868 C   0  0  0  0  0  0  0  0  0  0  0  0
   10.2164   45.8505  128.8434 C   0  0  0  0  0  0  0  0  0  0  0  0
    8.1669   47.0172  129.4940 C   0  0  0  0  0  0  0  0  0  0  0  0
    6.9142   47.0668  129.2306 N   0  0  0  0  0  0  0  0  0  0  0  0
    6.4516   48.4219  129.2019 C   0  0  0  0  0  0  0  0  0  0  0  0
    7.7053   49.2664  129.2433 C   0  0  0  0  0  0  0  0  0  0  0  0
    8.6966   48.3145  129.6741 N   0  0  0  0  0  0  0  0  0  0  0  0
    9.6604   48.5442  130.0611 H   0  0  0  0  0  0  0  0  0  0  0  0
  8  9  1  0  0  0
  9  7  1  0  0  0
  7  1  1  0  0  0
  1  2  2  0  0  0
  2  3  1  0  0  0
  3  4  2  0  0  0
  4  5  1  0  0  0
  5  6  2  0  0  0
  6 10  1  0  0  0
 10 11  1  0  0  0
 11 12  1  0  0  0
 11 13  1  0  0  0
 13 14  2  0  0  0
 14 15  1  0  0  0
 15 16  1  0  0  0
 16 17  1  0  0  0
  6  1  1  0  0  0
 17 13  1  0  0  0
 17 18  1  0  0  0
M  END
> <minimizedAffinity>
-6.38205

> <CNNscore>
0.7537516356

> <CNNaffinity>
6.9366903305

> <CNN_VS>
5.2285418510

> <CNNaffinity_variance>
0.2936977744

$$$$
[H]c1c([H])c([H])c(C([H])([H])C([H])([H])C([H])([H])[H])c(OC([H])(C2=NC([H])([H])C([H])([H])N2[H])C([H])([H])[H])c1[H]


 18 19  0  0  0  0  0  0  0  0999 V2000
    9.0881   45.0668  132.7689 C   0  0  0  0  0  0  0  0  0  0  0  0
    8.5377   45.4739  133.9637 C   0  0  0  0  0  0  0  0  0  0  0  0
    8.6975   46.7553  134.4474 C   0  0  0  0  0  0  0  0  0  0  0  0
    9.4270   47.6833  133.7341 C   0  0  0  0  0  0  0  0  0  0  0  0
    9.9857   47.2957  132.5358 C   0  0  0  0  0  0  0  0  0  0  0  0
    9.8269   46.0164  132.0520 C   0  0  0  0  0  0  0  0  0  0  0  0
    8.9458   43.7137  132.2238 C   0  0  0  0  0  0  0  0  0  0  0  0
   11.0402   42.3949  131.9362 C   0  0  0  0  0  0  0  0  0  0  0  0
    9.8749   42.7141  132.8810 C   0  0  0  0  0  0  0  0  0  0  0  0
   10.3630   45.5988  130.8736 O   0  0  0  0  0  0  0  0  0  0  0  0
    9.7391   45.3996  129.6570 C   0  0  0  0  0  0  0  0  0  0  0  0
   10.6583   45.4436  128.4772 C   0  0  0  0  0  0  0  0  0  0  0  0
    8.6149   46.3866  129.4368 C   0  0  0  0  0  0  0  0  0  0  0  0
    8.8266   47.6107  129.1241 N   0  0  0  0  0  0  0  0  0  0  0  0
    7.5917   48.3211  128.9773 C   0  0  0  0  0  0  0  0  0  0  0  0
    6.5324   47.3828  129.5100 C   0  0  0  0  0  0  0  0  0  0  0  0
    7.2305   46.1232  129.5371 N   0  0  0  0  0  0  0  0  0  0  0  0
    6.7851   45.1608  129.6181 H   0  0  0  0  0  0  0  0  0  0  0  0
  8  9  1  0  0  0
  9  7  1  0  0  0
  7  1  1  0  0  0
  1  2  2  0  0  0
  2  3  1  0  0  0
  3  4  2  0  0  0
  4  5  1  0  0  0
  5  6  2  0  0  0
  6 10  1  0  0  0
 10 11  1  0  0  0
 11 12  1  0  0  0
 11 13  1  0  0  0
 13 14  2  0  0  0
 14 15  1  0  0  0
 15 16  1  0  0  0
 16 17  1  0  0  0
  6  1  1  0  0  0
 17 13  1  0  0  0
 17 18  1  0  0  0
M  END
> <minimizedAffinity>
-6.76046

> <CNNscore>
0.7082970142

> <CNNaffinity>
6.7928190231

> <CNN_VS>
4.8113336563

> <CNNaffinity_variance>
0.0768364668

$$$$
[H]c1c([H])c([H])c(C([H])([H])C([H])([H])C([H])([H])[H])c(OC([H])(C2=NC([H])([H])C([H])([H])N2[H])C([H])([H])[H])c1[H]


 18 19  0  0  0  0  0  0  0  0999 V2000
   11.6028   45.3845  131.3951 C   0  0  0  0  0  0  0  0  0  0  0  0
   12.3711   44.5255  130.6413 C   0  0  0  0  0  0  0  0  0  0  0  0
   12.1312   44.3096  129.3007 C   0  0  0  0  0  0  0  0  0  0  0  0
   11.0951   44.9609  128.6646 C   0  0  0  0  0  0  0  0  0  0  0  0
   10.3148   45.8249  129.4013 C   0  0  0  0  0  0  0  0  0  0  0  0
   10.5533   46.0410  130.7401 C   0  0  0  0  0  0  0  0  0  0  0  0
   11.8219   45.6366  132.8222 C   0  0  0  0  0  0  0  0  0  0  0  0
   10.6821   43.5594  133.5937 C   0  0  0  0  0  0  0  0  0  0  0  0
   11.9880   44.3633  133.6257 C   0  0  0  0  0  0  0  0  0  0  0  0
    9.8045   46.8866  131.4983 O   0  0  0  0  0  0  0  0  0  0  0  0
    9.8107   48.2680  131.5230 C   0  0  0  0  0  0  0  0  0  0  0  0
    9.8505   48.8607  132.8963 C   0  0  0  0  0  0  0  0  0  0  0  0
    8.6298   48.8461  130.7762 C   0  0  0  0  0  0  0  0  0  0  0  0
    7.7252   48.1103  130.2456 N   0  0  0  0  0  0  0  0  0  0  0  0
    6.7276   48.9116  129.6023 C   0  0  0  0  0  0  0  0  0  0  0  0
    7.2946   50.3133  129.5933 C   0  0  0  0  0  0  0  0  0  0  0  0
    8.3574   50.2155  130.5604 N   0  0  0  0  0  0  0  0  0  0  0  0
    8.8531   51.0297  131.0323 H   0  0  0  0  0  0  0  0  0  0  0  0
  8  9  1  0  0  0
  9  7  1  0  0  0
  7  1  1  0  0  0
  1  2  2  0  0  0
  2  3  1  0  0  0
  3  4  2  0  0  0
  4  5  1  0  0  0
  5  6  2  0  0  0
  6 10  1  0  0  0
 10 11  1  0  0  0
 11 12  1  0  0  0
 11 13  1  0  0  0
 13 14  2  0  0  0
 14 15  1  0  0  0
 15 16  1  0  0  0
 16 17  1  0  0  0
  6  1  1  0  0  0
 17 13  1  0  0  0
 17 18  1  0  0  0
M  END
> <minimizedAffinity>
-7.00914

> <CNNscore>
0.6502987742

> <CNNaffinity>
6.5142946243

> <CNN_VS>
4.2362380028

> <CNNaffinity_variance>
0.0477493443

$$$$
[H]c1c([H])c([H])c(C([H])([H])C([H])([H])C([H])([H])[H])c(OC([H])(C2=NC([H])([H])C([H])([H])N2[H])C([H])([H])[H])c1[H]


 18 19  0  0  0  0  0  0  0  0999 V2000
   10.3439   45.8838  133.1030 C   0  0  0  0  0  0  0  0  0  0  0  0
   10.6506   45.2688  134.2964 C   0  0  0  0  0  0  0  0  0  0  0  0
   11.5494   44.2261  134.3758 C   0  0  0  0  0  0  0  0  0  0  0  0
   12.1789   43.7609  133.2402 C   0  0  0  0  0  0  0  0  0  0  0  0
   11.8858   44.3631  132.0362 C   0  0  0  0  0  0  0  0  0  0  0  0
   10.9883   45.4042  131.9557 C   0  0  0  0  0  0  0  0  0  0  0  0
    9.3910   46.9902  132.9763 C   0  0  0  0  0  0  0  0  0  0  0  0
    9.6236   49.3096  132.0958 C   0  0  0  0  0  0  0  0  0  0  0  0
   10.0262   48.3440  133.2174 C   0  0  0  0  0  0  0  0  0  0  0  0
   10.6751   46.0229  130.7854 O   0  0  0  0  0  0  0  0  0  0  0  0
    9.9296   45.5478  129.7235 C   0  0  0  0  0  0  0  0  0  0  0  0
   10.6890   45.4302  128.4397 C   0  0  0  0  0  0  0  0  0  0  0  0
    8.6960   46.3891  129.4854 C   0  0  0  0  0  0  0  0  0  0  0  0
    8.7595   47.6030  129.0809 N   0  0  0  0  0  0  0  0  0  0  0  0
    7.4492   48.1635  128.9398 C   0  0  0  0  0  0  0  0  0  0  0  0
    6.5199   47.1575  129.5809 C   0  0  0  0  0  0  0  0  0  0  0  0
    7.3537   45.9860  129.6636 N   0  0  0  0  0  0  0  0  0  0  0  0
    7.0207   44.9895  129.8295 H   0  0  0  0  0  0  0  0  0  0  0  0
  8  9  1  0  0  0
  9  7  1  0  0  0
  7  1  1  0  0  0
  1  2  2  0  0  0
  2  3  1  0  0  0
  3  4  2  0  0  0
  4  5  1  0  0  0
  5  6  2  0  0  0
  6 10  1  0  0  0
 10 11  1  0  0  0
 11 12  1  0  0  0
 11 13  1  0  0  0
 13 14  2  0  0  0
 14 15  1  0  0  0
 15 16  1  0  0  0
 16 17  1  0  0  0
  6  1  1  0  0  0
 17 13  1  0  0  0
 17 18  1  0  0  0
M  END
> <minimizedAffinity>
-6.65132

> <CNNscore>
0.6377509832

> <CNNaffinity>
6.6951446533

> <CNN_VS>
4.2698349953

> <CNNaffinity_variance>
0.0638788939

$$$$
[H]c1c([H])c([H])c(C([H])([H])C([H])([H])C([H])([H])[H])c(OC([H])(C2=NC([H])([H])C([H])([H])N2[H])C([H])([H])[H])c1[H]


 18 19  0  0  0  0  0  0  0  0999 V2000
    9.4125   44.8795  131.6670 C   0  0  0  0  0  0  0  0  0  0  0  0
   10.1852   43.8186  132.0841 C   0  0  0  0  0  0  0  0  0  0  0  0
   11.3051   43.4087  131.3919 C   0  0  0  0  0  0  0  0  0  0  0  0
   11.6907   44.0625  130.2403 C   0  0  0  0  0  0  0  0  0  0  0  0
   10.9309   45.1268  129.8065 C   0  0  0  0  0  0  0  0  0  0  0  0
    9.8123   45.5368  130.4967 C   0  0  0  0  0  0  0  0  0  0  0  0
    8.2131   45.3421  132.3710 C   0  0  0  0  0  0  0  0  0  0  0  0
    8.8647   46.8808  134.2194 C   0  0  0  0  0  0  0  0  0  0  0  0
    8.4169   45.4566  133.8676 C   0  0  0  0  0  0  0  0  0  0  0  0
    9.0391   46.5830  130.0988 O   0  0  0  0  0  0  0  0  0  0  0  0
    9.3610   47.9249  130.0300 C   0  0  0  0  0  0  0  0  0  0  0  0
   10.1573   48.4291  131.1922 C   0  0  0  0  0  0  0  0  0  0  0  0
    8.1297   48.7881  129.8709 C   0  0  0  0  0  0  0  0  0  0  0  0
    7.9139   49.8185  130.6009 N   0  0  0  0  0  0  0  0  0  0  0  0
    6.6795   50.4494  130.2413 C   0  0  0  0  0  0  0  0  0  0  0  0
    6.0001   49.4781  129.3024 C   0  0  0  0  0  0  0  0  0  0  0  0
    7.0829   48.5998  128.9410 N   0  0  0  0  0  0  0  0  0  0  0  0
    7.0961   47.9258  128.1183 H   0  0  0  0  0  0  0  0  0  0  0  0
  8  9  1  0  0  0
  9  7  1  0  0  0
  7  1  1  0  0  0
  1  2  2  0  0  0
  2  3  1  0  0  0
  3  4  2  0  0  0
  4  5  1  0  0  0
  5  6  2  0  0  0
  6 10  1  0  0  0
 10 11  1  0  0  0
 11 12  1  0  0  0
 11 13  1  0  0  0
 13 14  2  0  0  0
 14 15  1  0  0  0
 15 16  1  0  0  0
 16 17  1  0  0  0
  6  1  1  0  0  0
 17 13  1  0  0  0
 17 18  1  0  0  0
M  END
> <minimizedAffinity>
-6.27522

> <CNNscore>
0.5839275122

> <CNNaffinity>
6.6353402138

> <CNN_VS>
3.8745577335

> <CNNaffinity_variance>
0.0884025097

$$$$
[H]c1c([H])c([H])c(C([H])([H])C([H])([H])C([H])([H])[H])c(OC([H])(C2=NC([H])([H])C([H])([H])N2[H])C([H])([H])[H])c1[H]


 18 19  0  0  0  0  0  0  0  0999 V2000
    8.7911   47.2706  129.7422 C   0  0  0  0  0  0  0  0  0  0  0  0
    7.9182   48.0140  128.9794 C   0  0  0  0  0  0  0  0  0  0  0  0
    7.5370   49.2909  129.3338 C   0  0  0  0  0  0  0  0  0  0  0  0
    8.0290   49.8709  130.4844 C   0  0  0  0  0  0  0  0  0  0  0  0
    8.9039   49.1436  131.2613 C   0  0  0  0  0  0  0  0  0  0  0  0
    9.2851   47.8684  130.9085 C   0  0  0  0  0  0  0  0  0  0  0  0
    9.2161   45.9096  129.4030 C   0  0  0  0  0  0  0  0  0  0  0  0
   11.3789   44.7438  128.9882 C   0  0  0  0  0  0  0  0  0  0  0  0
   10.4552   45.8802  128.5322 C   0  0  0  0  0  0  0  0  0  0  0  0
   10.1468   47.1214  131.6502 O   0  0  0  0  0  0  0  0  0  0  0  0
    9.8876   46.3450  132.7634 C   0  0  0  0  0  0  0  0  0  0  0  0
   10.2931   46.9710  134.0606 C   0  0  0  0  0  0  0  0  0  0  0  0
   10.5327   44.9816  132.6570 C   0  0  0  0  0  0  0  0  0  0  0  0
   11.8037   44.8214  132.6483 N   0  0  0  0  0  0  0  0  0  0  0  0
   12.1428   43.4344  132.5378 C   0  0  0  0  0  0  0  0  0  0  0  0
   10.8413   42.7358  132.2143 C   0  0  0  0  0  0  0  0  0  0  0  0
    9.8667   43.7398  132.5557 N   0  0  0  0  0  0  0  0  0  0  0  0
    8.8262   43.5784  132.7065 H   0  0  0  0  0  0  0  0  0  0  0  0
  8  9  1  0  0  0
  9  7  1  0  0  0
  7  1  1  0  0  0
  1  2  2  0  0  0
  2  3  1  0  0  0
  3  4  2  0  0  0
  4  5  1  0  0  0
  5  6  2  0  0  0
  6 10  1  0  0  0
 10 11  1  0  0  0
 11 12  1  0  0  0
 11 13  1  0  0  0
 13 14  2  0  0  0
 14 15  1  0  0  0
 15 16  1  0  0  0
 16 17  1  0  0  0
  6  1  1  0  0  0
 17 13  1  0  0  0
 17 18  1  0  0  0
M  END
> <minimizedAffinity>
-6.98685

> <CNNscore>
0.4745088518

> <CNNaffinity>
6.4904222488

> <CNN_VS>
3.0797626972

> <CNNaffinity_variance>
0.0664773509

$$$$
[H]C1=C2C([H])([H])C([H])([H])C([H])([H])C([H])([H])[C@]2([H])/C(=C(\[H])C([H])([H])C2([H])C([H])([H])C([H])([H])C(C([H])([H])[H])(C([H])([H])[H])[N+]2(C([H])([H])[H])C([H])([H])[H])[C@]2([H])[C@@]1([H])C(=O)O[C@@]2([H])C([H])([H])[H]


 26 29  0  0  0  0  0  0  0  0999 V2000
    7.5449   45.6302  129.0371 C   0  0  0  0  0  0  0  0  0  0  0  0
    8.9294   46.0092  129.6349 C   0  0  0  0  0  0  0  0  0  0  0  0
    9.8076   45.8749  128.5462 O   0  0  0  0  0  0  0  0  0  0  0  0
    9.9542   44.4979  128.3920 C   0  0  0  0  0  0  0  0  0  0  0  0
   10.5719   43.9570  127.4475 O   0  0  0  0  0  0  0  0  0  0  0  0
    9.2662   43.8190  129.5156 C   0  0  0  0  0  0  0  0  0  0  0  0
    9.8152   42.5611  129.9417 C   0  0  0  0  0  0  0  0  0  0  0  0
   10.5104   42.3538  131.0076 C   0  0  0  0  0  0  0  0  0  0  0  0
   11.0396   41.0188  131.3757 C   0  0  0  0  0  0  0  0  0  0  0  0
   11.0460   40.9446  132.8967 C   0  0  0  0  0  0  0  0  0  0  0  0
    9.9580   41.7699  133.5052 C   0  0  0  0  0  0  0  0  0  0  0  0
    9.9753   43.2207  133.1684 C   0  0  0  0  0  0  0  0  0  0  0  0
   10.8094   43.4499  131.9102 C   0  0  0  0  0  0  0  0  0  0  0  0
   10.4659   44.8327  131.3601 C   0  0  0  0  0  0  0  0  0  0  0  0
   11.3031   45.7328  131.7745 C   0  0  0  0  0  0  0  0  0  0  0  0
    9.3139   44.9661  130.5614 C   0  0  0  0  0  0  0  0  0  0  0  0
   11.2823   47.1350  131.4499 C   0  0  0  0  0  0  0  0  0  0  0  0
    9.9674   47.7028  132.0811 C   0  0  0  0  0  0  0  0  0  0  0  0
   10.1841   47.9619  133.5462 C   0  0  0  0  0  0  0  0  0  0  0  0
   10.3370   49.4835  133.5553 C   0  0  0  0  0  0  0  0  0  0  0  0
    9.2759   49.8545  132.5304 C   0  0  0  0  0  0  0  0  0  0  0  0
    7.9319   49.6191  133.1823 C   0  0  0  0  0  0  0  0  0  0  0  0
    9.3594   51.2825  132.0986 C   0  0  0  0  0  0  0  0  0  0  0  0
    9.5514   48.9116  131.4674 N   0  0  0  0  0  0  0  0  0  0  0  0
    8.2518   48.6495  130.8245 C   0  0  0  0  0  0  0  0  0  0  0  0
   10.4059   49.4439  130.4524 C   0  0  0  0  0  0  0  0  0  0  0  0
  1  2  1  0  0  0
  2  3  1  0  0  0
  3  4  1  0  0  0
  4  5  2  0  0  0
  4  6  1  0  0  0
  6  7  1  0  0  0
  7  8  2  0  0  0
  8  9  1  0  0  0
  9 10  1  0  0  0
 10 11  1  0  0  0
 11 12  1  0  0  0
 12 13  1  0  0  0
 13 14  1  0  0  0
 14 15  2  0  0  0
 15 17  1  0  0  0
 17 18  1  0  0  0
 18 19  1  0  0  0
 19 20  1  0  0  0
 20 21  1  0  0  0
 21 22  1  0  0  0
 21 23  1  0  0  0
 21 24  1  0  0  0
 24 25  1  0  0  0
 24 26  1  0  0  0
 14 16  1  0  0  0
 16  2  1  0  0  0
 16  6  1  0  0  0
 13  8  1  0  0  0
 24 18  1  0  0  0
M  CHG 1  24   1
M  END
> <minimizedAffinity>
6.13581

> <CNNscore>
0.4885071516

> <CNNaffinity>
7.5403456688

> <CNN_VS>
3.6835126877

> <CNNaffinity_variance>
1.2711107731

$$$$
[H]C1=C2C([H])([H])C([H])([H])C([H])([H])C([H])([H])[C@]2([H])/C(=C(\[H])C([H])([H])C2([H])C([H])([H])C([H])([H])C(C([H])([H])[H])(C([H])([H])[H])[N+]2(C([H])([H])[H])C([H])([H])[H])[C@]2([H])[C@@]1([H])C(=O)O[C@@]2([H])C([H])([H])[H]


 26 29  0  0  0  0  0  0  0  0999 V2000
    9.7850   49.3324  132.5307 C   0  0  0  0  0  0  0  0  0  0  0  0
   10.1525   48.1293  131.6169 C   0  0  0  0  0  0  0  0  0  0  0  0
    8.9041   47.5937  131.2573 O   0  0  0  0  0  0  0  0  0  0  0  0
    8.4719   46.9318  132.4047 C   0  0  0  0  0  0  0  0  0  0  0  0
    7.3394   46.4155  132.5352 O   0  0  0  0  0  0  0  0  0  0  0  0
    9.5655   46.9533  133.4049 C   0  0  0  0  0  0  0  0  0  0  0  0
    9.6328   45.8392  134.3100 C   0  0  0  0  0  0  0  0  0  0  0  0
   10.4806   44.8688  134.2641 C   0  0  0  0  0  0  0  0  0  0  0  0
   10.4819   43.7549  135.2422 C   0  0  0  0  0  0  0  0  0  0  0  0
   11.9303   43.3205  135.4227 C   0  0  0  0  0  0  0  0  0  0  0  0
   12.8864   44.4526  135.2247 C   0  0  0  0  0  0  0  0  0  0  0  0
   12.8270   45.1311  133.9000 C   0  0  0  0  0  0  0  0  0  0  0  0
   11.4916   44.8299  133.2238 C   0  0  0  0  0  0  0  0  0  0  0  0
   11.2868   45.8499  132.1055 C   0  0  0  0  0  0  0  0  0  0  0  0
   11.6839   45.3884  130.9601 C   0  0  0  0  0  0  0  0  0  0  0  0
   10.7740   47.1170  132.4435 C   0  0  0  0  0  0  0  0  0  0  0  0
   11.6349   46.0766  129.6967 C   0  0  0  0  0  0  0  0  0  0  0  0
   10.3437   45.5623  128.9769 C   0  0  0  0  0  0  0  0  0  0  0  0
   10.5221   45.6686  127.4878 C   0  0  0  0  0  0  0  0  0  0  0  0
   10.7908   44.2088  127.1199 C   0  0  0  0  0  0  0  0  0  0  0  0
    9.8023   43.5231  128.0507 C   0  0  0  0  0  0  0  0  0  0  0  0
    8.4196   43.7895  127.4993 C   0  0  0  0  0  0  0  0  0  0  0  0
   10.0119   42.0460  128.1346 C   0  0  0  0  0  0  0  0  0  0  0  0
   10.0460   44.2138  129.2990 N   0  0  0  0  0  0  0  0  0  0  0  0
    8.7564   44.2101  130.0115 C   0  0  0  0  0  0  0  0  0  0  0  0
   10.9780   43.5345  130.1438 C   0  0  0  0  0  0  0  0  0  0  0  0
  1  2  1  0  0  0
  2  3  1  0  0  0
  3  4  1  0  0  0
  4  5  2  0  0  0
  4  6  1  0  0  0
  6  7  1  0  0  0
  7  8  2  0  0  0
  8  9  1  0  0  0
  9 10  1  0  0  0
 10 11  1  0  0  0
 11 12  1  0  0  0
 12 13  1  0  0  0
 13 14  1  0  0  0
 14 15  2  0  0  0
 15 17  1  0  0  0
 17 18  1  0  0  0
 18 19  1  0  0  0
 19 20  1  0  0  0
 20 21  1  0  0  0
 21 22  1  0  0  0
 21 23  1  0  0  0
 21 24  1  0  0  0
 24 25  1  0  0  0
 24 26  1  0  0  0
 14 16  1  0  0  0
 16  2  1  0  0  0
 16  6  1  0  0  0
 13  8  1  0  0  0
 24 18  1  0  0  0
M  CHG 1  24   1
M  END
> <minimizedAffinity>
3.16165

> <CNNscore>
0.4541715682

> <CNNaffinity>
7.3436417580

> <CNN_VS>
3.3352732658

> <CNNaffinity_variance>
0.5960018039

$$$$
[H]C1=C2C([H])([H])C([H])([H])C([H])([H])C([H])([H])[C@]2([H])/C(=C(\[H])C([H])([H])C2([H])C([H])([H])C([H])([H])C(C([H])([H])[H])(C([H])([H])[H])[N+]2(C([H])([H])[H])C([H])([H])[H])[C@]2([H])[C@@]1([H])C(=O)O[C@@]2([H])C([H])([H])[H]


 26 29  0  0  0  0  0  0  0  0999 V2000
   13.2806   46.5774  133.8981 C   0  0  0  0  0  0  0  0  0  0  0  0
   12.4961   45.8106  132.7961 C   0  0  0  0  0  0  0  0  0  0  0  0
   12.2056   46.8036  131.8453 O   0  0  0  0  0  0  0  0  0  0  0  0
   11.1824   47.5479  132.4288 C   0  0  0  0  0  0  0  0  0  0  0  0
   10.7175   48.6049  131.9464 O   0  0  0  0  0  0  0  0  0  0  0  0
   10.7634   46.8769  133.6822 C   0  0  0  0  0  0  0  0  0  0  0  0
    9.3872   47.0307  134.0664 C   0  0  0  0  0  0  0  0  0  0  0  0
    8.4625   46.1380  133.9657 C   0  0  0  0  0  0  0  0  0  0  0  0
    7.0623   46.3789  134.3892 C   0  0  0  0  0  0  0  0  0  0  0  0
    6.5141   45.0514  134.8956 C   0  0  0  0  0  0  0  0  0  0  0  0
    7.5830   44.1898  135.4873 C   0  0  0  0  0  0  0  0  0  0  0  0
    8.7155   43.8443  134.5836 C   0  0  0  0  0  0  0  0  0  0  0  0
    8.7663   44.8290  133.4179 C   0  0  0  0  0  0  0  0  0  0  0  0
   10.1439   44.7211  132.7670 C   0  0  0  0  0  0  0  0  0  0  0  0
   10.1307   43.9113  131.7536 C   0  0  0  0  0  0  0  0  0  0  0  0
   11.2138   45.4288  133.3476 C   0  0  0  0  0  0  0  0  0  0  0  0
   11.2484   43.5783  130.9099 C   0  0  0  0  0  0  0  0  0  0  0  0
   11.1934   44.5798  129.7083 C   0  0  0  0  0  0  0  0  0  0  0  0
   12.2380   44.2057  128.6938 C   0  0  0  0  0  0  0  0  0  0  0  0
   11.3779   43.5378  127.6200 C   0  0  0  0  0  0  0  0  0  0  0  0
   10.1698   44.4616  127.6473 C   0  0  0  0  0  0  0  0  0  0  0  0
   10.5975   45.7659  127.0127 C   0  0  0  0  0  0  0  0  0  0  0  0
    9.0037   43.9157  126.8890 C   0  0  0  0  0  0  0  0  0  0  0  0
    9.9278   44.5875  129.0687 N   0  0  0  0  0  0  0  0  0  0  0  0
    9.3534   45.9315  129.2547 C   0  0  0  0  0  0  0  0  0  0  0  0
    8.9557   43.6600  129.5569 C   0  0  0  0  0  0  0  0  0  0  0  0
  1  2  1  0  0  0
  2  3  1  0  0  0
  3  4  1  0  0  0
  4  5  2  0  0  0
  4  6  1  0  0  0
  6  7  1  0  0  0
  7  8  2  0  0  0
  8  9  1  0  0  0
  9 10  1  0  0  0
 10 11  1  0  0  0
 11 12  1  0  0  0
 12 13  1  0  0  0
 13 14  1  0  0  0
 14 15  2  0  0  0
 15 17  1  0  0  0
 17 18  1  0  0  0
 18 19  1  0  0  0
 19 20  1  0  0  0
 20 21  1  0  0  0
 21 22  1  0  0  0
 21 23  1  0  0  0
 21 24  1  0  0  0
 24 25  1  0  0  0
 24 26  1  0  0  0
 14 16  1  0  0  0
 16  2  1  0  0  0
 16  6  1  0  0  0
 13  8  1  0  0  0
 24 18  1  0  0  0
M  CHG 1  24   1
M  END
> <minimizedAffinity>
14.31246

> <CNNscore>
0.4356446564

> <CNNaffinity>
7.4254508018

> <CNN_VS>
3.2348580360

> <CNNaffinity_variance>
1.6903851032

$$$$
[H]C1=C2C([H])([H])C([H])([H])C([H])([H])C([H])([H])[C@]2([H])/C(=C(\[H])C([H])([H])C2([H])C([H])([H])C([H])([H])C(C([H])([H])[H])(C([H])([H])[H])[N+]2(C([H])([H])[H])C([H])([H])[H])[C@]2([H])[C@@]1([H])C(=O)O[C@@]2([H])C([H])([H])[H]


 26 29  0  0  0  0  0  0  0  0999 V2000
   11.4748   46.4993  134.2924 C   0  0  0  0  0  0  0  0  0  0  0  0
   10.5864   46.9220  133.0884 C   0  0  0  0  0  0  0  0  0  0  0  0
    9.3516   47.2343  133.6821 O   0  0  0  0  0  0  0  0  0  0  0  0
    8.7990   45.9944  133.9960 C   0  0  0  0  0  0  0  0  0  0  0  0
    7.7430   45.8394  134.6496 O   0  0  0  0  0  0  0  0  0  0  0  0
    9.6650   44.9325  133.4310 C   0  0  0  0  0  0  0  0  0  0  0  0
    9.0149   43.7134  133.0357 C   0  0  0  0  0  0  0  0  0  0  0  0
    8.7625   43.3402  131.8277 C   0  0  0  0  0  0  0  0  0  0  0  0
    8.0870   42.0604  131.5057 C   0  0  0  0  0  0  0  0  0  0  0  0
    8.6548   41.5772  130.1778 C   0  0  0  0  0  0  0  0  0  0  0  0
   10.0696   42.0167  129.9773 C   0  0  0  0  0  0  0  0  0  0  0  0
   10.3057   43.4869  130.0100 C   0  0  0  0  0  0  0  0  0  0  0  0
    9.1397   44.1828  130.7082 C   0  0  0  0  0  0  0  0  0  0  0  0
    9.5931   45.5878  131.0999 C   0  0  0  0  0  0  0  0  0  0  0  0
    9.2534   46.4652  130.2068 C   0  0  0  0  0  0  0  0  0  0  0  0
   10.3332   45.7435  132.2876 C   0  0  0  0  0  0  0  0  0  0  0  0
    9.5151   47.8799  130.2542 C   0  0  0  0  0  0  0  0  0  0  0  0
    8.1608   48.5544  130.6553 C   0  0  0  0  0  0  0  0  0  0  0  0
    8.4319   49.7385  131.5412 C   0  0  0  0  0  0  0  0  0  0  0  0
    8.2224   50.8927  130.5602 C   0  0  0  0  0  0  0  0  0  0  0  0
    7.0221   50.3617  129.7913 C   0  0  0  0  0  0  0  0  0  0  0  0
    5.8305   50.4501  130.7181 C   0  0  0  0  0  0  0  0  0  0  0  0
    6.7307   51.1475  128.5542 C   0  0  0  0  0  0  0  0  0  0  0  0
    7.4222   48.9958  129.5282 N   0  0  0  0  0  0  0  0  0  0  0  0
    6.1719   48.2171  129.4939 C   0  0  0  0  0  0  0  0  0  0  0  0
    8.0396   48.8281  128.2498 C   0  0  0  0  0  0  0  0  0  0  0  0
  1  2  1  0  0  0
  2  3  1  0  0  0
  3  4  1  0  0  0
  4  5  2  0  0  0
  4  6  1  0  0  0
  6  7  1  0  0  0
  7  8  2  0  0  0
  8  9  1  0  0  0
  9 10  1  0  0  0
 10 11  1  0  0  0
 11 12  1  0  0  0
 12 13  1  0  0  0
 13 14  1  0  0  0
 14 15  2  0  0  0
 15 17  1  0  0  0
 17 18  1  0  0  0
 18 19  1  0  0  0
 19 20  1  0  0  0
 20 21  1  0  0  0
 21 22  1  0  0  0
 21 23  1  0  0  0
 21 24  1  0  0  0
 24 25  1  0  0  0
 24 26  1  0  0  0
 14 16  1  0  0  0
 16  2  1  0  0  0
 16  6  1  0  0  0
 13  8  1  0  0  0
 24 18  1  0  0  0
M  CHG 1  24   1
M  END
> <minimizedAffinity>
-2.16936

> <CNNscore>
0.3858712912

> <CNNaffinity>
7.3444871902

> <CNN_VS>
2.8340268135

> <CNNaffinity_variance>
0.2332693040

$$$$
[H]C1=C2C([H])([H])C([H])([H])C([H])([H])C([H])([H])[C@]2([H])/C(=C(\[H])C([H])([H])C2([H])C([H])([H])C([H])([H])C(C([H])([H])[H])(C([H])([H])[H])[N+]2(C([H])([H])[H])C([H])([H])[H])[C@]2([H])[C@@]1([H])C(=O)O[C@@]2([H])C([H])([H])[H]


 26 29  0  0  0  0  0  0  0  0999 V2000
    7.2646   46.6305  129.0072 C   0  0  0  0  0  0  0  0  0  0  0  0
    8.6293   46.9461  129.6824 C   0  0  0  0  0  0  0  0  0  0  0  0
    9.5213   47.0336  128.6001 O   0  0  0  0  0  0  0  0  0  0  0  0
    9.7187   45.7104  128.2110 C   0  0  0  0  0  0  0  0  0  0  0  0
   10.3638   45.3638  127.1962 O   0  0  0  0  0  0  0  0  0  0  0  0
    9.0458   44.8230  129.1890 C   0  0  0  0  0  0  0  0  0  0  0  0
    9.6360   43.5295  129.3979 C   0  0  0  0  0  0  0  0  0  0  0  0
   10.3287   43.1631  130.4217 C   0  0  0  0  0  0  0  0  0  0  0  0
   10.9024   41.8032  130.5598 C   0  0  0  0  0  0  0  0  0  0  0  0
   10.8981   41.4652  132.0447 C   0  0  0  0  0  0  0  0  0  0  0  0
    9.7758   42.1343  132.7711 C   0  0  0  0  0  0  0  0  0  0  0  0
    9.7438   43.6213  132.6921 C   0  0  0  0  0  0  0  0  0  0  0  0
   10.5802   44.0946  131.5056 C   0  0  0  0  0  0  0  0  0  0  0  0
   10.1919   45.5397  131.1994 C   0  0  0  0  0  0  0  0  0  0  0  0
   10.9925   46.3815  131.7765 C   0  0  0  0  0  0  0  0  0  0  0  0
    9.0429   45.7711  130.4189 C   0  0  0  0  0  0  0  0  0  0  0  0
   10.9241   47.8174  131.7005 C   0  0  0  0  0  0  0  0  0  0  0  0
   10.1508   48.2792  132.9805 C   0  0  0  0  0  0  0  0  0  0  0  0
    8.6706   48.1666  132.7416 C   0  0  0  0  0  0  0  0  0  0  0  0
    8.3432   46.8947  133.5250 C   0  0  0  0  0  0  0  0  0  0  0  0
    9.2363   47.1033  134.7385 C   0  0  0  0  0  0  0  0  0  0  0  0
    8.6124   48.2086  135.5606 C   0  0  0  0  0  0  0  0  0  0  0  0
    9.3575   45.8799  135.5878 C   0  0  0  0  0  0  0  0  0  0  0  0
   10.4823   47.5047  134.1211 N   0  0  0  0  0  0  0  0  0  0  0  0
   11.1301   48.4078  135.0883 C   0  0  0  0  0  0  0  0  0  0  0  0
   11.3845   46.4145  133.9172 C   0  0  0  0  0  0  0  0  0  0  0  0
  1  2  1  0  0  0
  2  3  1  0  0  0
  3  4  1  0  0  0
  4  5  2  0  0  0
  4  6  1  0  0  0
  6  7  1  0  0  0
  7  8  2  0  0  0
  8  9  1  0  0  0
  9 10  1  0  0  0
 10 11  1  0  0  0
 11 12  1  0  0  0
 12 13  1  0  0  0
 13 14  1  0  0  0
 14 15  2  0  0  0
 15 17  1  0  0  0
 17 18  1  0  0  0
 18 19  1  0  0  0
 19 20  1  0  0  0
 20 21  1  0  0  0
 21 22  1  0  0  0
 21 23  1  0  0  0
 21 24  1  0  0  0
 24 25  1  0  0  0
 24 26  1  0  0  0
 14 16  1  0  0  0
 16  2  1  0  0  0
 16  6  1  0  0  0
 13  8  1  0  0  0
 24 18  1  0  0  0
M  CHG 1  24   1
M  END
> <minimizedAffinity>
1.38670

> <CNNscore>
0.3224749565

> <CNNaffinity>
7.2596192360

> <CNN_VS>
2.3410453796

> <CNNaffinity_variance>
0.4302687645

$$$$
[H]C1=C2C([H])([H])C([H])([H])C([H])([H])C([H])([H])[C@]2([H])/C(=C(\[H])C([H])([H])C2([H])C([H])([H])C([H])([H])C(C([H])([H])[H])(C([H])([H])[H])[N+]2(C([H])([H])[H])C([H])([H])[H])[C@]2([H])[C@@]1([H])C(=O)O[C@@]2([H])C([H])([H])[H]


 26 29  0  0  0  0  0  0  0  0999 V2000
    9.8648   45.6355  127.7977 C   0  0  0  0  0  0  0  0  0  0  0  0
    9.1657   45.2602  129.1349 C   0  0  0  0  0  0  0  0  0  0  0  0
    7.7970   45.3431  128.8271 O   0  0  0  0  0  0  0  0  0  0  0  0
    7.5410   46.7114  128.7699 C   0  0  0  0  0  0  0  0  0  0  0  0
    6.4525   47.2094  128.4047 O   0  0  0  0  0  0  0  0  0  0  0  0
    8.7556   47.4399  129.2070 C   0  0  0  0  0  0  0  0  0  0  0  0
    8.5493   48.7050  129.8566 C   0  0  0  0  0  0  0  0  0  0  0  0
    8.6613   48.9418  131.1191 C   0  0  0  0  0  0  0  0  0  0  0  0
    8.4320   50.2822  131.7095 C   0  0  0  0  0  0  0  0  0  0  0  0
    9.3703   50.4116  132.9020 C   0  0  0  0  0  0  0  0  0  0  0  0
   10.6272   49.6234  132.7174 C   0  0  0  0  0  0  0  0  0  0  0  0
   10.4522   48.1613  132.4940 C   0  0  0  0  0  0  0  0  0  0  0  0
    9.0248   47.8754  132.0336 C   0  0  0  0  0  0  0  0  0  0  0  0
    8.9972   46.4781  131.4173 C   0  0  0  0  0  0  0  0  0  0  0  0
    8.6295   45.5828  132.2809 C   0  0  0  0  0  0  0  0  0  0  0  0
    9.4064   46.3311  130.0780 C   0  0  0  0  0  0  0  0  0  0  0  0
    8.4903   44.1700  132.0424 C   0  0  0  0  0  0  0  0  0  0  0  0
    9.8627   43.5300  132.4381 C   0  0  0  0  0  0  0  0  0  0  0  0
   10.8260   43.6568  131.2907 C   0  0  0  0  0  0  0  0  0  0  0  0
   11.7097   44.8068  131.7755 C   0  0  0  0  0  0  0  0  0  0  0  0
   11.8152   44.4461  133.2494 C   0  0  0  0  0  0  0  0  0  0  0  0
   12.7123   43.2323  133.3432 C   0  0  0  0  0  0  0  0  0  0  0  0
   12.4013   45.5443  134.0758 C   0  0  0  0  0  0  0  0  0  0  0  0
   10.4379   44.1465  133.5782 N   0  0  0  0  0  0  0  0  0  0  0  0
   10.4975   43.1282  134.6413 C   0  0  0  0  0  0  0  0  0  0  0  0
    9.7358   45.2647  134.1267 C   0  0  0  0  0  0  0  0  0  0  0  0
  1  2  1  0  0  0
  2  3  1  0  0  0
  3  4  1  0  0  0
  4  5  2  0  0  0
  4  6  1  0  0  0
  6  7  1  0  0  0
  7  8  2  0  0  0
  8  9  1  0  0  0
  9 10  1  0  0  0
 10 11  1  0  0  0
 11 12  1  0  0  0
 12 13  1  0  0  0
 13 14  1  0  0  0
 14 15  2  0  0  0
 15 17  1  0  0  0
 17 18  1  0  0  0
 18 19  1  0  0  0
 19 20  1  0  0  0
 20 21  1  0  0  0
 21 22  1  0  0  0
 21 23  1  0  0  0
 21 24  1  0  0  0
 24 25  1  0  0  0
 24 26  1  0  0  0
 14 16  1  0  0  0
 16  2  1  0  0  0
 16  6  1  0  0  0
 13  8  1  0  0  0
 24 18  1  0  0  0
M  CHG 1  24   1
M  END
> <minimizedAffinity>
-4.09114

> <CNNscore>
0.2409625053

> <CNNaffinity>
7.2922592163

> <CNN_VS>
1.7571610212

> <CNNaffinity_variance>
0.1964645684

$$$$
[H]C1=C2C([H])([H])C([H])([H])C([H])([H])C([H])([H])[C@]2([H])/C(=C(\[H])C([H])([H])C2([H])C([H])([H])C([H])([H])C(C([H])([H])[H])(C([H])([H])[H])[N+]2(C([H])([H])[H])C([H])([H])[H])[C@]2([H])[C@@]1([H])C(=O)O[C@@]2([H])C([H])([H])[H]


 26 29  0  0  0  0  0  0  0  0999 V2000
   10.0262   42.8576  127.9745 C   0  0  0  0  0  0  0  0  0  0  0  0
    9.8119   44.2823  128.5593 C   0  0  0  0  0  0  0  0  0  0  0  0
   10.9611   44.9823  128.1542 O   0  0  0  0  0  0  0  0  0  0  0  0
   11.9672   44.5021  128.9899 C   0  0  0  0  0  0  0  0  0  0  0  0
   13.1787   44.7928  128.8721 O   0  0  0  0  0  0  0  0  0  0  0  0
   11.3553   43.6149  130.0074 C   0  0  0  0  0  0  0  0  0  0  0  0
   12.0017   43.5634  131.2898 C   0  0  0  0  0  0  0  0  0  0  0  0
   11.5890   44.1233  132.3754 C   0  0  0  0  0  0  0  0  0  0  0  0
   12.3181   44.0186  133.6619 C   0  0  0  0  0  0  0  0  0  0  0  0
   11.2733   44.0314  134.7698 C   0  0  0  0  0  0  0  0  0  0  0  0
    9.9756   43.4357  134.3269 C   0  0  0  0  0  0  0  0  0  0  0  0
    9.3298   44.0825  133.1509 C   0  0  0  0  0  0  0  0  0  0  0  0
   10.3625   44.8989  132.3774 C   0  0  0  0  0  0  0  0  0  0  0  0
    9.7949   45.1866  130.9889 C   0  0  0  0  0  0  0  0  0  0  0  0
    9.2142   46.3456  130.9415 C   0  0  0  0  0  0  0  0  0  0  0  0
    9.9133   44.1912  130.0000 C   0  0  0  0  0  0  0  0  0  0  0  0
    8.5771   46.9372  129.7942 C   0  0  0  0  0  0  0  0  0  0  0  0
    7.5508   47.9747  130.3598 C   0  0  0  0  0  0  0  0  0  0  0  0
    8.2359   48.8670  131.3573 C   0  0  0  0  0  0  0  0  0  0  0  0
    8.4190   50.1420  130.5329 C   0  0  0  0  0  0  0  0  0  0  0  0
    7.0923   50.1596  129.7889 C   0  0  0  0  0  0  0  0  0  0  0  0
    6.0264   50.5269  130.7966 C   0  0  0  0  0  0  0  0  0  0  0  0
    7.0649   51.1535  128.6735 C   0  0  0  0  0  0  0  0  0  0  0  0
    6.9869   48.7866  129.3430 N   0  0  0  0  0  0  0  0  0  0  0  0
    5.5436   48.4939  129.3016 C   0  0  0  0  0  0  0  0  0  0  0  0
    7.4793   48.5882  128.0157 C   0  0  0  0  0  0  0  0  0  0  0  0
  1  2  1  0  0  0
  2  3  1  0  0  0
  3  4  1  0  0  0
  4  5  2  0  0  0
  4  6  1  0  0  0
  6  7  1  0  0  0
  7  8  2  0  0  0
  8  9  1  0  0  0
  9 10  1  0  0  0
 10 11  1  0  0  0
 11 12  1  0  0  0
 12 13  1  0  0  0
 13 14  1  0  0  0
 14 15  2  0  0  0
 15 17  1  0  0  0
 17 18  1  0  0  0
 18 19  1  0  0  0
 19 20  1  0  0  0
 20 21  1  0  0  0
 21 22  1  0  0  0
 21 23  1  0  0  0
 21 24  1  0  0  0
 24 25  1  0  0  0
 24 26  1  0  0  0
 14 16  1  0  0  0
 16  2  1  0  0  0
 16  6  1  0  0  0
 13  8  1  0  0  0
 24 18  1  0  0  0
M  CHG 1  24   1
M  END
> <minimizedAffinity>
-6.92158

> <CNNscore>
0.2372741103

> <CNNaffinity>
7.2475152016

> <CNN_VS>
1.7196477652

> <CNNaffinity_variance>
0.0821927115

$$$$
[H]C1=C2C([H])([H])C([H])([H])C([H])([H])C([H])([H])[C@]2([H])/C(=C(\[H])C([H])([H])C2([H])C([H])([H])C([H])([H])C(C([H])([H])[H])(C([H])([H])[H])[N+]2(C([H])([H])[H])C([H])([H])[H])[C@]2([H])[C@@]1([H])C(=O)O[C@@]2([H])C([H])([H])[H]


 26 29  0  0  0  0  0  0  0  0999 V2000
   10.4783   44.0228  127.4108 C   0  0  0  0  0  0  0  0  0  0  0  0
   10.3838   45.1883  128.4357 C   0  0  0  0  0  0  0  0  0  0  0  0
   11.7200   45.5890  128.6051 O   0  0  0  0  0  0  0  0  0  0  0  0
   12.2806   44.5873  129.3948 C   0  0  0  0  0  0  0  0  0  0  0  0
   13.4975   44.5114  129.6768 O   0  0  0  0  0  0  0  0  0  0  0  0
   11.2043   43.6623  129.8223 C   0  0  0  0  0  0  0  0  0  0  0  0
   11.3762   43.0183  131.0955 C   0  0  0  0  0  0  0  0  0  0  0  0
   10.7589   43.3120  132.1887 C   0  0  0  0  0  0  0  0  0  0  0  0
   10.9948   42.5933  133.4636 C   0  0  0  0  0  0  0  0  0  0  0  0
    9.6742   42.5831  134.2218 C   0  0  0  0  0  0  0  0  0  0  0  0
    8.4964   42.5854  133.3010 C   0  0  0  0  0  0  0  0  0  0  0  0
    8.4128   43.7314  132.3534 C   0  0  0  0  0  0  0  0  0  0  0  0
    9.7845   44.3870  132.2120 C   0  0  0  0  0  0  0  0  0  0  0  0
    9.7681   45.2520  130.9533 C   0  0  0  0  0  0  0  0  0  0  0  0
    9.4850   46.4880  131.2272 C   0  0  0  0  0  0  0  0  0  0  0  0
    9.9929   44.6277  129.7113 C   0  0  0  0  0  0  0  0  0  0  0  0
    9.3889   47.5727  130.2858 C   0  0  0  0  0  0  0  0  0  0  0  0
    8.0732   48.3398  130.6467 C   0  0  0  0  0  0  0  0  0  0  0  0
    8.3988   49.5022  131.5430 C   0  0  0  0  0  0  0  0  0  0  0  0
    8.3002   50.6682  130.5584 C   0  0  0  0  0  0  0  0  0  0  0  0
    7.0900   50.2220  129.7521 C   0  0  0  0  0  0  0  0  0  0  0  0
    5.8796   50.3931  130.6423 C   0  0  0  0  0  0  0  0  0  0  0  0
    6.8919   51.0261  128.5084 C   0  0  0  0  0  0  0  0  0  0  0  0
    7.4019   48.8316  129.4985 N   0  0  0  0  0  0  0  0  0  0  0  0
    6.1022   48.1418  129.4245 C   0  0  0  0  0  0  0  0  0  0  0  0
    8.0450   48.6213  128.2392 C   0  0  0  0  0  0  0  0  0  0  0  0
  1  2  1  0  0  0
  2  3  1  0  0  0
  3  4  1  0  0  0
  4  5  2  0  0  0
  4  6  1  0  0  0
  6  7  1  0  0  0
  7  8  2  0  0  0
  8  9  1  0  0  0
  9 10  1  0  0  0
 10 11  1  0  0  0
 11 12  1  0  0  0
 12 13  1  0  0  0
 13 14  1  0  0  0
 14 15  2  0  0  0
 15 17  1  0  0  0
 17 18  1  0  0  0
 18 19  1  0  0  0
 19 20  1  0  0  0
 20 21  1  0  0  0
 21 22  1  0  0  0
 21 23  1  0  0  0
 21 24  1  0  0  0
 24 25  1  0  0  0
 24 26  1  0  0  0
 14 16  1  0  0  0
 16  2  1  0  0  0
 16  6  1  0  0  0
 13  8  1  0  0  0
 24 18  1  0  0  0
M  CHG 1  24   1
M  END
> <minimizedAffinity>
-4.12164

> <CNNscore>
0.2364830077

> <CNNaffinity>
7.1352128983

> <CNN_VS>
1.6873565912

> <CNNaffinity_variance>
0.1376595795

$$$$
[H]C1=C2C([H])([H])C([H])([H])C([H])([H])C([H])([H])[C@]2([H])/C(=C(\[H])C([H])([H])C2([H])C([H])([H])C([H])([H])C(C([H])([H])[H])(C([H])([H])[H])[N+]2(C([H])([H])[H])C([H])([H])[H])[C@]2([H])[C@@]1([H])C(=O)O[C@@]2([H])C([H])([H])[H]


 26 29  0  0  0  0  0  0  0  0999 V2000
   10.1255   42.5535  129.4084 C   0  0  0  0  0  0  0  0  0  0  0  0
   10.2280   44.1050  129.3968 C   0  0  0  0  0  0  0  0  0  0  0  0
   11.6075   44.3444  129.2775 O   0  0  0  0  0  0  0  0  0  0  0  0
   12.1161   44.0553  130.5420 C   0  0  0  0  0  0  0  0  0  0  0  0
   13.3356   44.0321  130.8220 O   0  0  0  0  0  0  0  0  0  0  0  0
   10.9827   43.7902  131.4597 C   0  0  0  0  0  0  0  0  0  0  0  0
   11.1782   44.1345  132.8412 C   0  0  0  0  0  0  0  0  0  0  0  0
   10.6758   45.1526  133.4524 C   0  0  0  0  0  0  0  0  0  0  0  0
   10.9272   45.4347  134.8859 C   0  0  0  0  0  0  0  0  0  0  0  0
    9.6711   46.0955  135.4381 C   0  0  0  0  0  0  0  0  0  0  0  0
    8.4364   45.6369  134.7308 C   0  0  0  0  0  0  0  0  0  0  0  0
    8.4047   45.8680  133.2598 C   0  0  0  0  0  0  0  0  0  0  0  0
    9.8235   46.0859  132.7395 C   0  0  0  0  0  0  0  0  0  0  0  0
    9.8065   45.8950  131.2242 C   0  0  0  0  0  0  0  0  0  0  0  0
    9.6748   47.0257  130.6021 C   0  0  0  0  0  0  0  0  0  0  0  0
    9.8741   44.5835  130.7159 C   0  0  0  0  0  0  0  0  0  0  0  0
    9.6247   47.2171  129.1763 C   0  0  0  0  0  0  0  0  0  0  0  0
    8.1059   47.2932  128.8060 C   0  0  0  0  0  0  0  0  0  0  0  0
    7.3162   46.4192  129.7404 C   0  0  0  0  0  0  0  0  0  0  0  0
    6.7014   47.4653  130.6711 C   0  0  0  0  0  0  0  0  0  0  0  0
    6.3717   48.5497  129.6566 C   0  0  0  0  0  0  0  0  0  0  0  0
    5.1985   48.0507  128.8434 C   0  0  0  0  0  0  0  0  0  0  0  0
    5.9990   49.8483  130.2948 C   0  0  0  0  0  0  0  0  0  0  0  0
    7.5954   48.6137  128.8864 N   0  0  0  0  0  0  0  0  0  0  0  0
    7.1868   49.0068  127.5265 C   0  0  0  0  0  0  0  0  0  0  0  0
    8.4963   49.6237  129.3470 C   0  0  0  0  0  0  0  0  0  0  0  0
  1  2  1  0  0  0
  2  3  1  0  0  0
  3  4  1  0  0  0
  4  5  2  0  0  0
  4  6  1  0  0  0
  6  7  1  0  0  0
  7  8  2  0  0  0
  8  9  1  0  0  0
  9 10  1  0  0  0
 10 11  1  0  0  0
 11 12  1  0  0  0
 12 13  1  0  0  0
 13 14  1  0  0  0
 14 15  2  0  0  0
 15 17  1  0  0  0
 17 18  1  0  0  0
 18 19  1  0  0  0
 19 20  1  0  0  0
 20 21  1  0  0  0
 21 22  1  0  0  0
 21 23  1  0  0  0
 21 24  1  0  0  0
 24 25  1  0  0  0
 24 26  1  0  0  0
 14 16  1  0  0  0
 16  2  1  0  0  0
 16  6  1  0  0  0
 13  8  1  0  0  0
 24 18  1  0  0  0
M  CHG 1  24   1
M  END
> <minimizedAffinity>
-4.45752

> <CNNscore>
0.2312264591

> <CNNaffinity>
7.2128081322

> <CNN_VS>
1.6677920818

> <CNNaffinity_variance>
0.2318416834

$$$$
[H]c1c([H])c([H])c(C([H])([H])N2C([H])([H])C([H])([H])C([H])(C([H])([H])C([H])([H])N([H])C(=O)c3c([H])c([H])c([H])c([N+](=O)[O-])c3[H])C([H])([H])C2([H])[H])c([H])c1[H]


 28 30  0  0  0  0  0  0  0  0999 V2000
   10.8834   46.9280  130.3580 C   0  0  0  0  0  0  0  0  0  0  0  0
    8.4640   45.6224  130.8877 O   0  0  0  0  0  0  0  0  0  0  0  0
    9.5013   44.9168  130.8219 C   0  0  0  0  0  0  0  0  0  0  0  0
   10.7414   45.5181  130.5624 N   0  0  0  0  0  0  0  0  0  0  0  0
   11.6125   44.9478  130.5088 H   0  0  0  0  0  0  0  0  0  0  0  0
    9.3151   43.4863  131.0287 C   0  0  0  0  0  0  0  0  0  0  0  0
    8.0830   42.9047  130.8442 C   0  0  0  0  0  0  0  0  0  0  0  0
    7.9048   41.5290  131.0434 C   0  0  0  0  0  0  0  0  0  0  0  0
    8.9680   40.7470  131.4272 C   0  0  0  0  0  0  0  0  0  0  0  0
   10.2255   41.2975  131.6229 C   0  0  0  0  0  0  0  0  0  0  0  0
   10.3484   42.6657  131.4122 C   0  0  0  0  0  0  0  0  0  0  0  0
   11.3388   40.5199  132.0181 N   0  0  0  0  0  0  0  0  0  0  0  0
   12.1272   40.9774  132.8508 O   0  0  0  0  0  0  0  0  0  0  0  0
   11.5445   39.2830  131.4920 O   0  0  0  0  0  0  0  0  0  0  0  0
   11.1685   47.6107  131.6633 C   0  0  0  0  0  0  0  0  0  0  0  0
   10.1270   48.7096  131.8164 C   0  0  0  0  0  0  0  0  0  0  0  0
    8.7300   48.1521  131.7365 C   0  0  0  0  0  0  0  0  0  0  0  0
    7.7854   49.3082  132.0829 C   0  0  0  0  0  0  0  0  0  0  0  0
    7.9354   50.3681  131.1545 N   0  0  0  0  0  0  0  0  0  0  0  0
    8.9651   50.2191  130.1851 C   0  0  0  0  0  0  0  0  0  0  0  0
   10.2862   49.7703  130.7532 C   0  0  0  0  0  0  0  0  0  0  0  0
    6.6892   50.6473  130.4941 C   0  0  0  0  0  0  0  0  0  0  0  0
    6.2600   49.6356  129.5276 C   0  0  0  0  0  0  0  0  0  0  0  0
    7.2508   49.0652  128.7401 C   0  0  0  0  0  0  0  0  0  0  0  0
    6.9799   48.0941  127.7993 C   0  0  0  0  0  0  0  0  0  0  0  0
    5.6721   47.7006  127.6622 C   0  0  0  0  0  0  0  0  0  0  0  0
    4.6868   48.2595  128.4364 C   0  0  0  0  0  0  0  0  0  0  0  0
    4.9660   49.2225  129.3674 C   0  0  0  0  0  0  0  0  0  0  0  0
  2  3  2  0  0  0
  3  4  1  0  0  0
  4  1  1  0  0  0
  1 15  1  0  0  0
 15 16  1  0  0  0
 16 17  1  0  0  0
 17 18  1  0  0  0
 18 19  1  0  0  0
 19 22  1  0  0  0
 22 23  1  0  0  0
 23 24  2  0  0  0
 24 25  1  0  0  0
 25 26  2  0  0  0
 26 27  1  0  0  0
 27 28  2  0  0  0
 19 20  1  0  0  0
 20 21  1  0  0  0
  3  6  1  0  0  0
  6  7  2  0  0  0
  7  8  1  0  0  0
  8  9  2  0  0  0
  9 10  1  0  0  0
 10 12  1  0  0  0
 12 13  2  0  0  0
 12 14  1  0  0  0
 10 11  2  0  0  0
 21 16  1  0  0  0
 11  6  1  0  0  0
 28 23  1  0  0  0
  4  5  1  0  0  0
M  CHG 1  12   1
M  CHG 1  14  -1
M  END
> <minimizedAffinity>
13.41502

> <CNNscore>
0.4721801877

> <CNNaffinity>
7.0558090210

> <CNN_VS>
3.3316133022

> <CNNaffinity_variance>
1.8708484173

$$$$
[H]c1c([H])c([H])c(C([H])([H])N2C([H])([H])C([H])([H])C([H])(C([H])([H])C([H])([H])N([H])C(=O)c3c([H])c([H])c([H])c([N+](=O)[O-])c3[H])C([H])([H])C2([H])[H])c([H])c1[H]


 28 30  0  0  0  0  0  0  0  0999 V2000
   10.3391   43.6636  129.1818 C   0  0  0  0  0  0  0  0  0  0  0  0
    9.1960   41.1220  128.9125 O   0  0  0  0  0  0  0  0  0  0  0  0
    9.9650   41.5116  127.9986 C   0  0  0  0  0  0  0  0  0  0  0  0
   10.5682   42.7749  128.0828 N   0  0  0  0  0  0  0  0  0  0  0  0
   11.2121   43.1119  127.3354 H   0  0  0  0  0  0  0  0  0  0  0  0
   10.1676   40.5823  126.8945 C   0  0  0  0  0  0  0  0  0  0  0  0
    9.1953   40.4046  125.9389 C   0  0  0  0  0  0  0  0  0  0  0  0
    9.3909   39.5107  124.8776 C   0  0  0  0  0  0  0  0  0  0  0  0
   10.5642   38.8008  124.7845 C   0  0  0  0  0  0  0  0  0  0  0  0
   11.5678   38.9534  125.7290 C   0  0  0  0  0  0  0  0  0  0  0  0
   11.3237   39.8519  126.7608 C   0  0  0  0  0  0  0  0  0  0  0  0
   12.7857   38.2374  125.6614 N   0  0  0  0  0  0  0  0  0  0  0  0
   13.1706   37.6098  126.6525 O   0  0  0  0  0  0  0  0  0  0  0  0
   13.5285   38.2354  124.5224 O   0  0  0  0  0  0  0  0  0  0  0  0
   10.4485   42.9167  130.4784 C   0  0  0  0  0  0  0  0  0  0  0  0
   10.5437   43.9646  131.5777 C   0  0  0  0  0  0  0  0  0  0  0  0
    9.1774   44.4337  132.0041 C   0  0  0  0  0  0  0  0  0  0  0  0
    9.3940   45.3368  133.2231 C   0  0  0  0  0  0  0  0  0  0  0  0
   10.2007   46.4501  132.8801 N   0  0  0  0  0  0  0  0  0  0  0  0
   10.7296   46.4656  131.5601 C   0  0  0  0  0  0  0  0  0  0  0  0
   11.3479   45.1614  131.1286 C   0  0  0  0  0  0  0  0  0  0  0  0
    9.5040   47.6819  133.1341 C   0  0  0  0  0  0  0  0  0  0  0  0
    8.9758   48.3515  131.9448 C   0  0  0  0  0  0  0  0  0  0  0  0
    9.8592   49.1553  131.2372 C   0  0  0  0  0  0  0  0  0  0  0  0
    9.4895   49.8325  130.0944 C   0  0  0  0  0  0  0  0  0  0  0  0
    8.1930   49.6845  129.6689 C   0  0  0  0  0  0  0  0  0  0  0  0
    7.3135   48.8920  130.3625 C   0  0  0  0  0  0  0  0  0  0  0  0
    7.6902   48.2240  131.4955 C   0  0  0  0  0  0  0  0  0  0  0  0
  2  3  2  0  0  0
  3  4  1  0  0  0
  4  1  1  0  0  0
  1 15  1  0  0  0
 15 16  1  0  0  0
 16 17  1  0  0  0
 17 18  1  0  0  0
 18 19  1  0  0  0
 19 22  1  0  0  0
 22 23  1  0  0  0
 23 24  2  0  0  0
 24 25  1  0  0  0
 25 26  2  0  0  0
 26 27  1  0  0  0
 27 28  2  0  0  0
 19 20  1  0  0  0
 20 21  1  0  0  0
  3  6  1  0  0  0
  6  7  2  0  0  0
  7  8  1  0  0  0
  8  9  2  0  0  0
  9 10  1  0  0  0
 10 12  1  0  0  0
 12 13  2  0  0  0
 12 14  1  0  0  0
 10 11  2  0  0  0
 21 16  1  0  0  0
 11  6  1  0  0  0
 28 23  1  0  0  0
  4  5  1  0  0  0
M  CHG 1  12   1
M  CHG 1  14  -1
M  END
> <minimizedAffinity>
18.08769

> <CNNscore>
0.4066866934

> <CNNaffinity>
6.6153845787

> <CNN_VS>
2.6903889179

> <CNNaffinity_variance>
0.8722300529

$$$$
[H]c1c([H])c([H])c(C([H])([H])N2C([H])([H])C([H])([H])C([H])(C([H])([H])C([H])([H])N([H])C(=O)c3c([H])c([H])c([H])c([N+](=O)[O-])c3[H])C([H])([H])C2([H])[H])c([H])c1[H]


 28 30  0  0  0  0  0  0  0  0999 V2000
    8.8160   43.9657  128.7355 C   0  0  0  0  0  0  0  0  0  0  0  0
    7.5608   45.4198  130.7724 O   0  0  0  0  0  0  0  0  0  0  0  0
    8.3596   46.0387  130.0260 C   0  0  0  0  0  0  0  0  0  0  0  0
    9.0143   45.3612  128.9871 N   0  0  0  0  0  0  0  0  0  0  0  0
    9.6770   45.8605  128.3559 H   0  0  0  0  0  0  0  0  0  0  0  0
    8.5399   47.4550  130.3178 C   0  0  0  0  0  0  0  0  0  0  0  0
    9.7028   47.9112  130.8922 C   0  0  0  0  0  0  0  0  0  0  0  0
    9.8752   49.2733  131.1726 C   0  0  0  0  0  0  0  0  0  0  0  0
    8.8760   50.1683  130.8731 C   0  0  0  0  0  0  0  0  0  0  0  0
    7.6894   49.7460  130.2933 C   0  0  0  0  0  0  0  0  0  0  0  0
    7.5690   48.3856  130.0358 C   0  0  0  0  0  0  0  0  0  0  0  0
    6.6426   50.6418  129.9737 N   0  0  0  0  0  0  0  0  0  0  0  0
    5.5909   50.5930  130.6188 O   0  0  0  0  0  0  0  0  0  0  0  0
    6.7855   51.5483  128.9703 O   0  0  0  0  0  0  0  0  0  0  0  0
   10.1060   43.3328  128.3035 C   0  0  0  0  0  0  0  0  0  0  0  0
   10.9387   43.1391  129.5624 C   0  0  0  0  0  0  0  0  0  0  0  0
   10.0666   42.8329  130.7517 C   0  0  0  0  0  0  0  0  0  0  0  0
   11.0162   42.4822  131.9022 C   0  0  0  0  0  0  0  0  0  0  0  0
   11.8662   43.5771  132.1967 N   0  0  0  0  0  0  0  0  0  0  0  0
   11.7644   44.7060  131.3380 C   0  0  0  0  0  0  0  0  0  0  0  0
   11.7637   44.3660  129.8704 C   0  0  0  0  0  0  0  0  0  0  0  0
   11.7040   43.9951  133.5628 C   0  0  0  0  0  0  0  0  0  0  0  0
   10.6359   44.9695  133.7899 C   0  0  0  0  0  0  0  0  0  0  0  0
   11.0261   46.2847  134.0022 C   0  0  0  0  0  0  0  0  0  0  0  0
   10.1179   47.2997  134.2179 C   0  0  0  0  0  0  0  0  0  0  0  0
    8.7875   46.9622  134.2166 C   0  0  0  0  0  0  0  0  0  0  0  0
    8.3935   45.6646  134.0077 C   0  0  0  0  0  0  0  0  0  0  0  0
    9.3026   44.6646  133.7945 C   0  0  0  0  0  0  0  0  0  0  0  0
  2  3  2  0  0  0
  3  4  1  0  0  0
  4  1  1  0  0  0
  1 15  1  0  0  0
 15 16  1  0  0  0
 16 17  1  0  0  0
 17 18  1  0  0  0
 18 19  1  0  0  0
 19 22  1  0  0  0
 22 23  1  0  0  0
 23 24  2  0  0  0
 24 25  1  0  0  0
 25 26  2  0  0  0
 26 27  1  0  0  0
 27 28  2  0  0  0
 19 20  1  0  0  0
 20 21  1  0  0  0
  3  6  1  0  0  0
  6  7  2  0  0  0
  7  8  1  0  0  0
  8  9  2  0  0  0
  9 10  1  0  0  0
 10 12  1  0  0  0
 12 13  2  0  0  0
 12 14  1  0  0  0
 10 11  2  0  0  0
 21 16  1  0  0  0
 11  6  1  0  0  0
 28 23  1  0  0  0
  4  5  1  0  0  0
M  CHG 1  12   1
M  CHG 1  14  -1
M  END
> <minimizedAffinity>
-9.21856

> <CNNscore>
0.3956959844

> <CNNaffinity>
7.1743993759

> <CNN_VS>
2.8388810158

> <CNNaffinity_variance>
0.2836717069

$$$$
[H]c1c([H])c([H])c(C([H])([H])N2C([H])([H])C([H])([H])C([H])(C([H])([H])C([H])([H])N([H])C(=O)c3c([H])c([H])c([H])c([N+](=O)[O-])c3[H])C([H])([H])C2([H])[H])c([H])c1[H]


 28 30  0  0  0  0  0  0  0  0999 V2000
   10.6716   43.8324  129.1047 C   0  0  0  0  0  0  0  0  0  0  0  0
    9.8062   41.2762  128.3592 O   0  0  0  0  0  0  0  0  0  0  0  0
   10.7100   41.8072  127.6667 C   0  0  0  0  0  0  0  0  0  0  0  0
   11.1843   43.0852  127.9962 N   0  0  0  0  0  0  0  0  0  0  0  0
   11.9367   43.5385  127.4347 H   0  0  0  0  0  0  0  0  0  0  0  0
   11.2010   41.0187  126.5438 C   0  0  0  0  0  0  0  0  0  0  0  0
   12.5406   40.9944  126.2353 C   0  0  0  0  0  0  0  0  0  0  0  0
   13.0119   40.2361  125.1552 C   0  0  0  0  0  0  0  0  0  0  0  0
   12.1318   39.5066  124.3920 C   0  0  0  0  0  0  0  0  0  0  0  0
   10.7739   39.5061  124.6724 C   0  0  0  0  0  0  0  0  0  0  0  0
   10.3587   40.2742  125.7536 C   0  0  0  0  0  0  0  0  0  0  0  0
    9.8433   38.7666  123.9059 N   0  0  0  0  0  0  0  0  0  0  0  0
    8.6819   39.1750  123.8117 O   0  0  0  0  0  0  0  0  0  0  0  0
   10.2158   37.6196  123.2776 O   0  0  0  0  0  0  0  0  0  0  0  0
   10.7108   42.9967  130.3502 C   0  0  0  0  0  0  0  0  0  0  0  0
   10.6550   43.9628  131.5246 C   0  0  0  0  0  0  0  0  0  0  0  0
    9.2346   44.3422  131.8519 C   0  0  0  0  0  0  0  0  0  0  0  0
    9.2956   45.1601  133.1465 C   0  0  0  0  0  0  0  0  0  0  0  0
   10.0760   46.3281  132.9604 N   0  0  0  0  0  0  0  0  0  0  0  0
   10.7216   46.4636  131.7006 C   0  0  0  0  0  0  0  0  0  0  0  0
   11.4385   45.2218  131.2387 C   0  0  0  0  0  0  0  0  0  0  0  0
    9.3008   47.5078  133.2335 C   0  0  0  0  0  0  0  0  0  0  0  0
    8.9360   48.2959  132.0555 C   0  0  0  0  0  0  0  0  0  0  0  0
    9.9244   49.1098  131.5189 C   0  0  0  0  0  0  0  0  0  0  0  0
    9.7122   49.8940  130.4048 C   0  0  0  0  0  0  0  0  0  0  0  0
    8.4666   49.8444  129.8303 C   0  0  0  0  0  0  0  0  0  0  0  0
    7.4841   49.0427  130.3545 C   0  0  0  0  0  0  0  0  0  0  0  0
    7.7048   48.2681  131.4605 C   0  0  0  0  0  0  0  0  0  0  0  0
  2  3  2  0  0  0
  3  4  1  0  0  0
  4  1  1  0  0  0
  1 15  1  0  0  0
 15 16  1  0  0  0
 16 17  1  0  0  0
 17 18  1  0  0  0
 18 19  1  0  0  0
 19 22  1  0  0  0
 22 23  1  0  0  0
 23 24  2  0  0  0
 24 25  1  0  0  0
 25 26  2  0  0  0
 26 27  1  0  0  0
 27 28  2  0  0  0
 19 20  1  0  0  0
 20 21  1  0  0  0
  3  6  1  0  0  0
  6  7  2  0  0  0
  7  8  1  0  0  0
  8  9  2  0  0  0
  9 10  1  0  0  0
 10 12  1  0  0  0
 12 13  2  0  0  0
 12 14  1  0  0  0
 10 11  2  0  0  0
 21 16  1  0  0  0
 11  6  1  0  0  0
 28 23  1  0  0  0
  4  5  1  0  0  0
M  CHG 1  12   1
M  CHG 1  14  -1
M  END
> <minimizedAffinity>
20.49312

> <CNNscore>
0.3895222843

> <CNNaffinity>
6.6463484764

> <CNN_VS>
2.5889008045

> <CNNaffinity_variance>
1.0175135136

$$$$
[H]c1c([H])c([H])c(C([H])([H])N2C([H])([H])C([H])([H])C([H])(C([H])([H])C([H])([H])N([H])C(=O)c3c([H])c([H])c([H])c([N+](=O)[O-])c3[H])C([H])([H])C2([H])[H])c([H])c1[H]


 28 30  0  0  0  0  0  0  0  0999 V2000
   12.9433   45.3034  134.6865 C   0  0  0  0  0  0  0  0  0  0  0  0
   11.4779   47.4450  133.6353 O   0  0  0  0  0  0  0  0  0  0  0  0
   10.8776   46.3524  133.7906 C   0  0  0  0  0  0  0  0  0  0  0  0
   11.5615   45.2467  134.3163 N   0  0  0  0  0  0  0  0  0  0  0  0
   11.0772   44.3340  134.4556 H   0  0  0  0  0  0  0  0  0  0  0  0
    9.4748   46.3325  133.3962 C   0  0  0  0  0  0  0  0  0  0  0  0
    9.0561   46.9804  132.2581 C   0  0  0  0  0  0  0  0  0  0  0  0
    7.7070   46.9609  131.8796 C   0  0  0  0  0  0  0  0  0  0  0  0
    6.7872   46.2893  132.6491 C   0  0  0  0  0  0  0  0  0  0  0  0
    7.1716   45.6241  133.8034 C   0  0  0  0  0  0  0  0  0  0  0  0
    8.5205   45.6743  134.1339 C   0  0  0  0  0  0  0  0  0  0  0  0
    6.2494   44.9247  134.6163 N   0  0  0  0  0  0  0  0  0  0  0  0
    5.2658   45.5230  135.0622 O   0  0  0  0  0  0  0  0  0  0  0  0
    6.4371   43.6097  134.9071 O   0  0  0  0  0  0  0  0  0  0  0  0
   13.8074   45.2166  133.4630 C   0  0  0  0  0  0  0  0  0  0  0  0
   13.2063   44.1312  132.5818 C   0  0  0  0  0  0  0  0  0  0  0  0
   12.7169   44.6983  131.2750 C   0  0  0  0  0  0  0  0  0  0  0  0
   12.3077   43.4994  130.4125 C   0  0  0  0  0  0  0  0  0  0  0  0
   11.2691   42.7673  131.0395 N   0  0  0  0  0  0  0  0  0  0  0  0
   10.8928   43.1929  132.3432 C   0  0  0  0  0  0  0  0  0  0  0  0
   12.0543   43.4389  133.2704 C   0  0  0  0  0  0  0  0  0  0  0  0
   10.1054   42.7103  130.1970 C   0  0  0  0  0  0  0  0  0  0  0  0
    9.7849   43.9557  129.4983 C   0  0  0  0  0  0  0  0  0  0  0  0
    8.5250   44.4923  129.7260 C   0  0  0  0  0  0  0  0  0  0  0  0
    8.1037   45.6658  129.1369 C   0  0  0  0  0  0  0  0  0  0  0  0
    8.9875   46.3005  128.3001 C   0  0  0  0  0  0  0  0  0  0  0  0
   10.2345   45.7767  128.0696 C   0  0  0  0  0  0  0  0  0  0  0  0
   10.6431   44.6115  128.6591 C   0  0  0  0  0  0  0  0  0  0  0  0
  2  3  2  0  0  0
  3  4  1  0  0  0
  4  1  1  0  0  0
  1 15  1  0  0  0
 15 16  1  0  0  0
 16 17  1  0  0  0
 17 18  1  0  0  0
 18 19  1  0  0  0
 19 22  1  0  0  0
 22 23  1  0  0  0
 23 24  2  0  0  0
 24 25  1  0  0  0
 25 26  2  0  0  0
 26 27  1  0  0  0
 27 28  2  0  0  0
 19 20  1  0  0  0
 20 21  1  0  0  0
  3  6  1  0  0  0
  6  7  2  0  0  0
  7  8  1  0  0  0
  8  9  2  0  0  0
  9 10  1  0  0  0
 10 12  1  0  0  0
 12 13  2  0  0  0
 12 14  1  0  0  0
 10 11  2  0  0  0
 21 16  1  0  0  0
 11  6  1  0  0  0
 28 23  1  0  0  0
  4  5  1  0  0  0
M  CHG 1  12   1
M  CHG 1  14  -1
M  END
> <minimizedAffinity>
13.34907

> <CNNscore>
0.3812640309

> <CNNaffinity>
6.7375588417

> <CNN_VS>
2.5687887669

> <CNNaffinity_variance>
0.9784830809

$$$$
[H]c1c([H])c([H])c(C([H])([H])N2C([H])([H])C([H])([H])C([H])(C([H])([H])C([H])([H])N([H])C(=O)c3c([H])c([H])c([H])c([N+](=O)[O-])c3[H])C([H])([H])C2([H])[H])c([H])c1[H]


 28 30  0  0  0  0  0  0  0  0999 V2000
    9.6762   43.5718  128.8707 C   0  0  0  0  0  0  0  0  0  0  0  0
    9.9738   46.2420  129.6582 O   0  0  0  0  0  0  0  0  0  0  0  0
    8.8259   45.8628  129.3167 C   0  0  0  0  0  0  0  0  0  0  0  0
    8.6179   44.5349  128.9160 N   0  0  0  0  0  0  0  0  0  0  0  0
    7.6709   44.2028  128.6336 H   0  0  0  0  0  0  0  0  0  0  0  0
    7.7771   46.8732  129.3697 C   0  0  0  0  0  0  0  0  0  0  0  0
    6.4700   46.5434  129.0995 C   0  0  0  0  0  0  0  0  0  0  0  0
    5.4621   47.5156  129.1505 C   0  0  0  0  0  0  0  0  0  0  0  0
    5.7760   48.8143  129.4733 C   0  0  0  0  0  0  0  0  0  0  0  0
    7.0827   49.1849  129.7522 C   0  0  0  0  0  0  0  0  0  0  0  0
    8.0437   48.1831  129.6878 C   0  0  0  0  0  0  0  0  0  0  0  0
    7.4376   50.5125  130.0869 N   0  0  0  0  0  0  0  0  0  0  0  0
    8.3406   50.7054  130.9066 O   0  0  0  0  0  0  0  0  0  0  0  0
    6.7971   51.5679  129.5170 O   0  0  0  0  0  0  0  0  0  0  0  0
    9.3315   42.3884  129.7263 C   0  0  0  0  0  0  0  0  0  0  0  0
   10.1418   42.5264  131.0070 C   0  0  0  0  0  0  0  0  0  0  0  0
    9.3481   43.2202  132.0827 C   0  0  0  0  0  0  0  0  0  0  0  0
   10.1907   43.1368  133.3601 C   0  0  0  0  0  0  0  0  0  0  0  0
   11.4339   43.7925  133.1794 N   0  0  0  0  0  0  0  0  0  0  0  0
   11.7052   44.2856  131.8734 C   0  0  0  0  0  0  0  0  0  0  0  0
   11.4166   43.3009  130.7705 C   0  0  0  0  0  0  0  0  0  0  0  0
   11.5951   44.8524  134.1374 C   0  0  0  0  0  0  0  0  0  0  0  0
   10.6391   45.9532  134.0100 C   0  0  0  0  0  0  0  0  0  0  0  0
   10.9030   46.8981  133.0278 C   0  0  0  0  0  0  0  0  0  0  0  0
   10.0758   47.9774  132.7990 C   0  0  0  0  0  0  0  0  0  0  0  0
    8.9595   48.0914  133.5895 C   0  0  0  0  0  0  0  0  0  0  0  0
    8.6916   47.1619  134.5626 C   0  0  0  0  0  0  0  0  0  0  0  0
    9.5187   46.0943  134.7817 C   0  0  0  0  0  0  0  0  0  0  0  0
  2  3  2  0  0  0
  3  4  1  0  0  0
  4  1  1  0  0  0
  1 15  1  0  0  0
 15 16  1  0  0  0
 16 17  1  0  0  0
 17 18  1  0  0  0
 18 19  1  0  0  0
 19 22  1  0  0  0
 22 23  1  0  0  0
 23 24  2  0  0  0
 24 25  1  0  0  0
 25 26  2  0  0  0
 26 27  1  0  0  0
 27 28  2  0  0  0
 19 20  1  0  0  0
 20 21  1  0  0  0
  3  6  1  0  0  0
  6  7  2  0  0  0
  7  8  1  0  0  0
  8  9  2  0  0  0
  9 10  1  0  0  0
 10 12  1  0  0  0
 12 13  2  0  0  0
 12 14  1  0  0  0
 10 11  2  0  0  0
 21 16  1  0  0  0
 11  6  1  0  0  0
 28 23  1  0  0  0
  4  5  1  0  0  0
M  CHG 1  12   1
M  CHG 1  14  -1
M  END
> <minimizedAffinity>
-8.06354

> <CNNscore>
0.3120518625

> <CNNaffinity>
7.2104578018

> <CNN_VS>
2.2500367165

> <CNNaffinity_variance>
0.1639756560

$$$$
[H]c1c([H])c([H])c(C([H])([H])N2C([H])([H])C([H])([H])C([H])(C([H])([H])C([H])([H])N([H])C(=O)c3c([H])c([H])c([H])c([N+](=O)[O-])c3[H])C([H])([H])C2([H])[H])c([H])c1[H]


 28 30  0  0  0  0  0  0  0  0999 V2000
    9.9459   45.2567  130.7194 C   0  0  0  0  0  0  0  0  0  0  0  0
    8.4321   43.9958  128.7300 O   0  0  0  0  0  0  0  0  0  0  0  0
    9.4054   43.3611  129.2076 C   0  0  0  0  0  0  0  0  0  0  0  0
   10.1965   43.9427  130.2090 N   0  0  0  0  0  0  0  0  0  0  0  0
   11.0053   43.4282  130.6191 H   0  0  0  0  0  0  0  0  0  0  0  0
    9.6322   42.0306  128.6580 C   0  0  0  0  0  0  0  0  0  0  0  0
   10.2935   41.8676  127.4637 C   0  0  0  0  0  0  0  0  0  0  0  0
   10.5111   40.5878  126.9359 C   0  0  0  0  0  0  0  0  0  0  0  0
   10.0616   39.4796  127.6134 C   0  0  0  0  0  0  0  0  0  0  0  0
    9.3909   39.6041  128.8206 C   0  0  0  0  0  0  0  0  0  0  0  0
    9.2012   40.8948  129.3000 C   0  0  0  0  0  0  0  0  0  0  0  0
    8.9158   38.4837  129.5414 N   0  0  0  0  0  0  0  0  0  0  0  0
    7.7971   38.0309  129.2809 O   0  0  0  0  0  0  0  0  0  0  0  0
    9.6762   37.9072  130.5101 O   0  0  0  0  0  0  0  0  0  0  0  0
   10.8230   45.5228  131.9073 C   0  0  0  0  0  0  0  0  0  0  0  0
   10.6112   46.9811  132.2868 C   0  0  0  0  0  0  0  0  0  0  0  0
    9.1450   47.3123  132.3835 C   0  0  0  0  0  0  0  0  0  0  0  0
    9.0621   48.7367  132.9428 C   0  0  0  0  0  0  0  0  0  0  0  0
    9.7065   49.6508  132.0726 N   0  0  0  0  0  0  0  0  0  0  0  0
   10.3777   49.0908  130.9510 C   0  0  0  0  0  0  0  0  0  0  0  0
   11.2517   47.9094  131.2824 C   0  0  0  0  0  0  0  0  0  0  0  0
    8.7888   50.6643  131.6279 C   0  0  0  0  0  0  0  0  0  0  0  0
    7.7507   50.1992  130.7071 C   0  0  0  0  0  0  0  0  0  0  0  0
    8.1417   49.2890  129.7345 C   0  0  0  0  0  0  0  0  0  0  0  0
    7.2587   48.7665  128.8132 C   0  0  0  0  0  0  0  0  0  0  0  0
    5.9531   49.1832  128.8889 C   0  0  0  0  0  0  0  0  0  0  0  0
    5.5585   50.0826  129.8470 C   0  0  0  0  0  0  0  0  0  0  0  0
    6.4425   50.5953  130.7568 C   0  0  0  0  0  0  0  0  0  0  0  0
  2  3  2  0  0  0
  3  4  1  0  0  0
  4  1  1  0  0  0
  1 15  1  0  0  0
 15 16  1  0  0  0
 16 17  1  0  0  0
 17 18  1  0  0  0
 18 19  1  0  0  0
 19 22  1  0  0  0
 22 23  1  0  0  0
 23 24  2  0  0  0
 24 25  1  0  0  0
 25 26  2  0  0  0
 26 27  1  0  0  0
 27 28  2  0  0  0
 19 20  1  0  0  0
 20 21  1  0  0  0
  3  6  1  0  0  0
  6  7  2  0  0  0
  7  8  1  0  0  0
  8  9  2  0  0  0
  9 10  1  0  0  0
 10 12  1  0  0  0
 12 13  2  0  0  0
 12 14  1  0  0  0
 10 11  2  0  0  0
 21 16  1  0  0  0
 11  6  1  0  0  0
 28 23  1  0  0  0
  4  5  1  0  0  0
M  CHG 1  12   1
M  CHG 1  14  -1
M  END
> <minimizedAffinity>
19.88008

> <CNNscore>
0.2545292079

> <CNNaffinity>
6.3757009506

> <CNN_VS>
1.6228021383

> <CNNaffinity_variance>
1.1111164093

$$$$
[H]c1c([H])c([H])c(C([H])([H])N2C([H])([H])C([H])([H])C([H])(C([H])([H])C([H])([H])N([H])C(=O)c3c([H])c([H])c([H])c([N+](=O)[O-])c3[H])C([H])([H])C2([H])[H])c([H])c1[H]


 28 30  0  0  0  0  0  0  0  0999 V2000
    9.7579   42.5950  128.1305 C   0  0  0  0  0  0  0  0  0  0  0  0
   10.8305   45.1643  128.4259 O   0  0  0  0  0  0  0  0  0  0  0  0
    9.5961   45.0263  128.6136 C   0  0  0  0  0  0  0  0  0  0  0  0
    9.0054   43.7611  128.4823 N   0  0  0  0  0  0  0  0  0  0  0  0
    7.9832   43.6283  128.6387 H   0  0  0  0  0  0  0  0  0  0  0  0
    8.8637   46.2367  128.9632 C   0  0  0  0  0  0  0  0  0  0  0  0
    9.5323   47.3811  129.3288 C   0  0  0  0  0  0  0  0  0  0  0  0
    8.8273   48.5446  129.6649 C   0  0  0  0  0  0  0  0  0  0  0  0
    7.4533   48.5493  129.6310 C   0  0  0  0  0  0  0  0  0  0  0  0
    6.7441   47.4147  129.2671 C   0  0  0  0  0  0  0  0  0  0  0  0
    7.4907   46.2881  128.9433 C   0  0  0  0  0  0  0  0  0  0  0  0
    5.3307   47.3876  129.2230 N   0  0  0  0  0  0  0  0  0  0  0  0
    4.7288   48.3029  128.6535 O   0  0  0  0  0  0  0  0  0  0  0  0
    4.6368   46.3693  129.7980 O   0  0  0  0  0  0  0  0  0  0  0  0
    9.4307   41.4699  129.0677 C   0  0  0  0  0  0  0  0  0  0  0  0
    9.8180   41.9388  130.4627 C   0  0  0  0  0  0  0  0  0  0  0  0
    9.1555   43.2484  130.8015 C   0  0  0  0  0  0  0  0  0  0  0  0
    9.4711   43.5209  132.2762 C   0  0  0  0  0  0  0  0  0  0  0  0
   10.8705   43.6228  132.4746 N   0  0  0  0  0  0  0  0  0  0  0  0
   11.6910   43.3542  131.3446 C   0  0  0  0  0  0  0  0  0  0  0  0
   11.3134   42.1053  130.5916 C   0  0  0  0  0  0  0  0  0  0  0  0
   11.2150   44.9052  133.0259 C   0  0  0  0  0  0  0  0  0  0  0  0
   10.0767   45.7324  133.4285 C   0  0  0  0  0  0  0  0  0  0  0  0
    9.2918   46.2526  132.4084 C   0  0  0  0  0  0  0  0  0  0  0  0
    8.1857   47.0384  132.6542 C   0  0  0  0  0  0  0  0  0  0  0  0
    7.8782   47.2964  133.9668 C   0  0  0  0  0  0  0  0  0  0  0  0
    8.6489   46.7862  134.9809 C   0  0  0  0  0  0  0  0  0  0  0  0
    9.7446   46.0073  134.7265 C   0  0  0  0  0  0  0  0  0  0  0  0
  2  3  2  0  0  0
  3  4  1  0  0  0
  4  1  1  0  0  0
  1 15  1  0  0  0
 15 16  1  0  0  0
 16 17  1  0  0  0
 17 18  1  0  0  0
 18 19  1  0  0  0
 19 22  1  0  0  0
 22 23  1  0  0  0
 23 24  2  0  0  0
 24 25  1  0  0  0
 25 26  2  0  0  0
 26 27  1  0  0  0
 27 28  2  0  0  0
 19 20  1  0  0  0
 20 21  1  0  0  0
  3  6  1  0  0  0
  6  7  2  0  0  0
  7  8  1  0  0  0
  8  9  2  0  0  0
  9 10  1  0  0  0
 10 12  1  0  0  0
 12 13  2  0  0  0
 12 14  1  0  0  0
 10 11  2  0  0  0
 21 16  1  0  0  0
 11  6  1  0  0  0
 28 23  1  0  0  0
  4  5  1  0  0  0
M  CHG 1  12   1
M  CHG 1  14  -1
M  END
> <minimizedAffinity>
0.33020

> <CNNscore>
0.2388413250

> <CNNaffinity>
6.8555803299

> <CNN_VS>
1.6373958588

> <CNNaffinity_variance>
0.1163096800

$$$$
[H]c1c([H])c([H])c(C([H])([H])N2C([H])([H])C([H])([H])C([H])(C([H])([H])C([H])([H])N([H])C(=O)c3c([H])c([H])c([H])c([N+](=O)[O-])c3[H])C([H])([H])C2([H])[H])c([H])c1[H]


 28 30  0  0  0  0  0  0  0  0999 V2000
   10.2539   47.4252  134.1672 C   0  0  0  0  0  0  0  0  0  0  0  0
   10.6982   46.8923  131.4547 O   0  0  0  0  0  0  0  0  0  0  0  0
    9.6508   47.5155  131.7591 C   0  0  0  0  0  0  0  0  0  0  0  0
    9.3786   47.8126  133.1024 N   0  0  0  0  0  0  0  0  0  0  0  0
    8.5162   48.3327  133.3719 H   0  0  0  0  0  0  0  0  0  0  0  0
    8.7825   47.8863  130.6490 C   0  0  0  0  0  0  0  0  0  0  0  0
    8.5701   47.0190  129.6035 C   0  0  0  0  0  0  0  0  0  0  0  0
    7.7352   47.3765  128.5364 C   0  0  0  0  0  0  0  0  0  0  0  0
    7.1189   48.6050  128.5279 C   0  0  0  0  0  0  0  0  0  0  0  0
    7.3087   49.5062  129.5645 C   0  0  0  0  0  0  0  0  0  0  0  0
    8.1457   49.1029  130.5979 C   0  0  0  0  0  0  0  0  0  0  0  0
    6.6893   50.7776  129.5847 N   0  0  0  0  0  0  0  0  0  0  0  0
    5.9454   51.0696  130.5258 O   0  0  0  0  0  0  0  0  0  0  0  0
    6.9059   51.6722  128.5838 O   0  0  0  0  0  0  0  0  0  0  0  0
    9.5254   46.5403  135.1354 C   0  0  0  0  0  0  0  0  0  0  0  0
    9.7856   45.1069  134.6957 C   0  0  0  0  0  0  0  0  0  0  0  0
   11.1661   44.9575  134.1120 C   0  0  0  0  0  0  0  0  0  0  0  0
   11.3742   43.4571  133.8794 C   0  0  0  0  0  0  0  0  0  0  0  0
   10.4095   42.9563  132.9702 N   0  0  0  0  0  0  0  0  0  0  0  0
    9.4041   43.8691  132.5482 C   0  0  0  0  0  0  0  0  0  0  0  0
    8.7746   44.6543  133.6692 C   0  0  0  0  0  0  0  0  0  0  0  0
   11.0467   42.3760  131.8194 C   0  0  0  0  0  0  0  0  0  0  0  0
   10.8489   43.1072  130.5672 C   0  0  0  0  0  0  0  0  0  0  0  0
   11.8399   44.0111  130.2093 C   0  0  0  0  0  0  0  0  0  0  0  0
   11.7784   44.7549  129.0498 C   0  0  0  0  0  0  0  0  0  0  0  0
   10.6833   44.5702  128.2430 C   0  0  0  0  0  0  0  0  0  0  0  0
    9.6994   43.6789  128.5896 C   0  0  0  0  0  0  0  0  0  0  0  0
    9.7698   42.9455  129.7424 C   0  0  0  0  0  0  0  0  0  0  0  0
  2  3  2  0  0  0
  3  4  1  0  0  0
  4  1  1  0  0  0
  1 15  1  0  0  0
 15 16  1  0  0  0
 16 17  1  0  0  0
 17 18  1  0  0  0
 18 19  1  0  0  0
 19 22  1  0  0  0
 22 23  1  0  0  0
 23 24  2  0  0  0
 24 25  1  0  0  0
 25 26  2  0  0  0
 26 27  1  0  0  0
 27 28  2  0  0  0
 19 20  1  0  0  0
 20 21  1  0  0  0
  3  6  1  0  0  0
  6  7  2  0  0  0
  7  8  1  0  0  0
  8  9  2  0  0  0
  9 10  1  0  0  0
 10 12  1  0  0  0
 12 13  2  0  0  0
 12 14  1  0  0  0
 10 11  2  0  0  0
 21 16  1  0  0  0
 11  6  1  0  0  0
 28 23  1  0  0  0
  4  5  1  0  0  0
M  CHG 1  12   1
M  CHG 1  14  -1
M  END
> <minimizedAffinity>
-8.90351

> <CNNscore>
0.2383536100

> <CNNaffinity>
7.1412763596

> <CNN_VS>
1.7021490335

> <CNNaffinity_variance>
0.1107365862

$$$$
[H]OC(=O)c1c([H])c([H])c(OC2([H])C([H])([H])SC2([H])[H])c([H])c1[H]


 15 16  0  0  0  0  0  0  0  0999 V2000
    7.8585   49.4966  130.1377 C   0  0  0  0  0  0  0  0  0  0  0  0
    7.6785   48.1855  129.7206 C   0  0  0  0  0  0  0  0  0  0  0  0
    8.6156   47.2214  130.0751 C   0  0  0  0  0  0  0  0  0  0  0  0
    9.7270   47.5148  130.8305 C   0  0  0  0  0  0  0  0  0  0  0  0
    9.8960   48.8301  131.2418 C   0  0  0  0  0  0  0  0  0  0  0  0
    8.9686   49.8132  130.8978 C   0  0  0  0  0  0  0  0  0  0  0  0
    5.8279   50.6535  130.4510 O   0  0  0  0  0  0  0  0  0  0  0  0
    6.8702   50.5114  129.7634 C   0  0  0  0  0  0  0  0  0  0  0  0
    7.0856   51.3112  128.6545 O   0  0  0  0  0  0  0  0  0  0  0  0
    6.6218   51.0561  127.7816 H   0  0  0  0  0  0  0  0  0  0  0  0
   10.6249   46.6051  131.1735 O   0  0  0  0  0  0  0  0  0  0  0  0
   11.1394   45.9901  132.2309 C   0  0  0  0  0  0  0  0  0  0  0  0
   10.3806   44.8020  132.8395 C   0  0  0  0  0  0  0  0  0  0  0  0
   11.8742   44.5623  133.8542 S   0  0  0  0  0  0  0  0  0  0  0  0
   12.3275   45.0932  132.1592 C   0  0  0  0  0  0  0  0  0  0  0  0
  7  8  2  0  0  0
  8  9  1  0  0  0
  8  1  1  0  0  0
  1  2  2  0  0  0
  2  3  1  0  0  0
  3  4  2  0  0  0
  4 11  1  0  0  0
 11 12  1  0  0  0
 12 13  1  0  0  0
 13 14  1  0  0  0
 14 15  1  0  0  0
  4  5  1  0  0  0
  5  6  2  0  0  0
  6  1  1  0  0  0
 15 12  1  0  0  0
  9 10  1  0  0  0
M  END
> <minimizedAffinity>
-6.81607

> <CNNscore>
0.6632187366

> <CNNaffinity>
5.2294111252

> <CNN_VS>
3.4682433605

> <CNNaffinity_variance>
0.1364837289

$$$$
[H]OC(=O)c1c([H])c([H])c(OC2([H])C([H])([H])SC2([H])[H])c([H])c1[H]


 15 16  0  0  0  0  0  0  0  0999 V2000
    7.7784   49.3617  129.8004 C   0  0  0  0  0  0  0  0  0  0  0  0
    8.9012   49.4787  130.6072 C   0  0  0  0  0  0  0  0  0  0  0  0
    9.7555   48.3910  130.7504 C   0  0  0  0  0  0  0  0  0  0  0  0
    9.5329   47.1893  130.1193 C   0  0  0  0  0  0  0  0  0  0  0  0
    8.4062   47.0846  129.3147 C   0  0  0  0  0  0  0  0  0  0  0  0
    7.5358   48.1628  129.1568 C   0  0  0  0  0  0  0  0  0  0  0  0
    5.9257   50.6656  130.4539 O   0  0  0  0  0  0  0  0  0  0  0  0
    6.8791   50.5086  129.6504 C   0  0  0  0  0  0  0  0  0  0  0  0
    7.0806   51.4164  128.6251 O   0  0  0  0  0  0  0  0  0  0  0  0
    6.5141   51.3206  127.7813 H   0  0  0  0  0  0  0  0  0  0  0  0
   10.3393   46.1480  130.2487 O   0  0  0  0  0  0  0  0  0  0  0  0
   10.7560   45.2516  131.1341 C   0  0  0  0  0  0  0  0  0  0  0  0
   11.1001   43.8356  130.6499 C   0  0  0  0  0  0  0  0  0  0  0  0
   11.7483   43.5808  132.3330 S   0  0  0  0  0  0  0  0  0  0  0  0
   12.1099   45.2828  131.7562 C   0  0  0  0  0  0  0  0  0  0  0  0
  7  8  2  0  0  0
  8  9  1  0  0  0
  8  1  1  0  0  0
  1  2  2  0  0  0
  2  3  1  0  0  0
  3  4  2  0  0  0
  4 11  1  0  0  0
 11 12  1  0  0  0
 12 13  1  0  0  0
 13 14  1  0  0  0
 14 15  1  0  0  0
  4  5  1  0  0  0
  5  6  2  0  0  0
  6  1  1  0  0  0
 15 12  1  0  0  0
  9 10  1  0  0  0
M  END
> <minimizedAffinity>
-6.87643

> <CNNscore>
0.6123040915

> <CNNaffinity>
5.2263755798

> <CNN_VS>
3.2001311779

> <CNNaffinity_variance>
0.1943697035

$$$$
[H]OC(=O)c1c([H])c([H])c(OC2([H])C([H])([H])SC2([H])[H])c([H])c1[H]


 15 16  0  0  0  0  0  0  0  0999 V2000
   10.8910   43.9922  131.3790 C   0  0  0  0  0  0  0  0  0  0  0  0
    9.8532   44.6188  132.0541 C   0  0  0  0  0  0  0  0  0  0  0  0
    9.1688   45.6608  131.4383 C   0  0  0  0  0  0  0  0  0  0  0  0
    9.4800   46.1028  130.1735 C   0  0  0  0  0  0  0  0  0  0  0  0
   10.5203   45.4679  129.5083 C   0  0  0  0  0  0  0  0  0  0  0  0
   11.2202   44.4206  130.1069 C   0  0  0  0  0  0  0  0  0  0  0  0
   11.1815   41.7176  131.9284 O   0  0  0  0  0  0  0  0  0  0  0  0
   11.6112   42.8943  132.0291 C   0  0  0  0  0  0  0  0  0  0  0  0
   12.7623   43.1543  132.7524 O   0  0  0  0  0  0  0  0  0  0  0  0
   12.6851   43.2256  133.7677 H   0  0  0  0  0  0  0  0  0  0  0  0
    8.8353   47.0935  129.5783 O   0  0  0  0  0  0  0  0  0  0  0  0
    8.0703   48.1470  129.8351 C   0  0  0  0  0  0  0  0  0  0  0  0
    8.7190   49.4092  130.4214 C   0  0  0  0  0  0  0  0  0  0  0  0
    7.1014   50.1937  130.1284 S   0  0  0  0  0  0  0  0  0  0  0  0
    7.5042   49.0265  128.7735 C   0  0  0  0  0  0  0  0  0  0  0  0
  7  8  2  0  0  0
  8  9  1  0  0  0
  8  1  1  0  0  0
  1  2  2  0  0  0
  2  3  1  0  0  0
  3  4  2  0  0  0
  4 11  1  0  0  0
 11 12  1  0  0  0
 12 13  1  0  0  0
 13 14  1  0  0  0
 14 15  1  0  0  0
  4  5  1  0  0  0
  5  6  2  0  0  0
  6  1  1  0  0  0
 15 12  1  0  0  0
  9 10  1  0  0  0
M  END
> <minimizedAffinity>
-5.96150

> <CNNscore>
0.5260537267

> <CNNaffinity>
5.4450950623

> <CNN_VS>
2.8644125462

> <CNNaffinity_variance>
0.5763841867

$$$$
[H]OC(=O)c1c([H])c([H])c(OC2([H])C([H])([H])SC2([H])[H])c([H])c1[H]


 15 16  0  0  0  0  0  0  0  0999 V2000
    7.7501   48.4555  130.5158 C   0  0  0  0  0  0  0  0  0  0  0  0
    7.0796   47.5705  129.6836 C   0  0  0  0  0  0  0  0  0  0  0  0
    7.2614   46.2025  129.8534 C   0  0  0  0  0  0  0  0  0  0  0  0
    8.0874   45.6822  130.8224 C   0  0  0  0  0  0  0  0  0  0  0  0
    8.7527   46.5778  131.6488 C   0  0  0  0  0  0  0  0  0  0  0  0
    8.5851   47.9539  131.4964 C   0  0  0  0  0  0  0  0  0  0  0  0
    6.4908   50.3272  129.8297 O   0  0  0  0  0  0  0  0  0  0  0  0
    7.5575   49.8967  130.3358 C   0  0  0  0  0  0  0  0  0  0  0  0
    8.5495   50.7810  130.7230 O   0  0  0  0  0  0  0  0  0  0  0  0
    9.1790   51.1404  130.0042 H   0  0  0  0  0  0  0  0  0  0  0  0
    8.2676   44.3822  130.9925 O   0  0  0  0  0  0  0  0  0  0  0  0
    9.1959   43.4873  131.3065 C   0  0  0  0  0  0  0  0  0  0  0  0
   10.6247   43.6852  130.7801 C   0  0  0  0  0  0  0  0  0  0  0  0
   11.0604   42.3010  131.8811 S   0  0  0  0  0  0  0  0  0  0  0  0
    9.7967   43.3727  132.6655 C   0  0  0  0  0  0  0  0  0  0  0  0
  7  8  2  0  0  0
  8  9  1  0  0  0
  8  1  1  0  0  0
  1  2  2  0  0  0
  2  3  1  0  0  0
  3  4  2  0  0  0
  4 11  1  0  0  0
 11 12  1  0  0  0
 12 13  1  0  0  0
 13 14  1  0  0  0
 14 15  1  0  0  0
  4  5  1  0  0  0
  5  6  2  0  0  0
  6  1  1  0  0  0
 15 12  1  0  0  0
  9 10  1  0  0  0
M  END
> <minimizedAffinity>
-5.71352

> <CNNscore>
0.5117639899

> <CNNaffinity>
5.3485121727

> <CNN_VS>
2.7371759415

> <CNNaffinity_variance>
0.2813354135

$$$$
[H]OC(=O)c1c([H])c([H])c(OC2([H])C([H])([H])SC2([H])[H])c([H])c1[H]


 15 16  0  0  0  0  0  0  0  0999 V2000
    7.8030   48.8621  130.2545 C   0  0  0  0  0  0  0  0  0  0  0  0
    8.7997   49.2778  131.1259 C   0  0  0  0  0  0  0  0  0  0  0  0
    9.8713   48.4324  131.3908 C   0  0  0  0  0  0  0  0  0  0  0  0
    9.9875   47.1865  130.8197 C   0  0  0  0  0  0  0  0  0  0  0  0
    8.9840   46.7820  129.9496 C   0  0  0  0  0  0  0  0  0  0  0  0
    7.9001   47.6137  129.6695 C   0  0  0  0  0  0  0  0  0  0  0  0
    6.7765   50.9844  130.2108 O   0  0  0  0  0  0  0  0  0  0  0  0
    6.6744   49.7540  129.9763 C   0  0  0  0  0  0  0  0  0  0  0  0
    5.4988   49.2408  129.4561 O   0  0  0  0  0  0  0  0  0  0  0  0
    4.7288   49.0575  130.1007 H   0  0  0  0  0  0  0  0  0  0  0  0
   11.0030   46.3741  131.0649 O   0  0  0  0  0  0  0  0  0  0  0  0
   11.2841   45.1578  131.5151 C   0  0  0  0  0  0  0  0  0  0  0  0
   10.1728   44.0983  131.5323 C   0  0  0  0  0  0  0  0  0  0  0  0
   11.5022   42.9289  131.9602 S   0  0  0  0  0  0  0  0  0  0  0  0
   12.1035   44.1721  130.7547 C   0  0  0  0  0  0  0  0  0  0  0  0
  7  8  2  0  0  0
  8  9  1  0  0  0
  8  1  1  0  0  0
  1  2  2  0  0  0
  2  3  1  0  0  0
  3  4  2  0  0  0
  4 11  1  0  0  0
 11 12  1  0  0  0
 12 13  1  0  0  0
 13 14  1  0  0  0
 14 15  1  0  0  0
  4  5  1  0  0  0
  5  6  2  0  0  0
  6  1  1  0  0  0
 15 12  1  0  0  0
  9 10  1  0  0  0
M  END
> <minimizedAffinity>
-5.58413

> <CNNscore>
0.4963852465

> <CNNaffinity>
5.2563672066

> <CNN_VS>
2.6091830730

> <CNNaffinity_variance>
0.2986852229

$$$$
[H]OC(=O)c1c([H])c([H])c(OC2([H])C([H])([H])SC2([H])[H])c([H])c1[H]


 15 16  0  0  0  0  0  0  0  0999 V2000
   11.0942   44.1128  131.4733 C   0  0  0  0  0  0  0  0  0  0  0  0
   10.8206   44.1743  130.1143 C   0  0  0  0  0  0  0  0  0  0  0  0
   10.2569   45.3290  129.5828 C   0  0  0  0  0  0  0  0  0  0  0  0
    9.9549   46.4262  130.3554 C   0  0  0  0  0  0  0  0  0  0  0  0
   10.2333   46.3524  131.7137 C   0  0  0  0  0  0  0  0  0  0  0  0
   10.7986   45.2043  132.2680 C   0  0  0  0  0  0  0  0  0  0  0  0
   11.1271   41.7856  131.8513 O   0  0  0  0  0  0  0  0  0  0  0  0
   11.6882   42.8955  132.0319 C   0  0  0  0  0  0  0  0  0  0  0  0
   12.8649   42.9696  132.7568 O   0  0  0  0  0  0  0  0  0  0  0  0
   12.8013   42.9739  133.7757 H   0  0  0  0  0  0  0  0  0  0  0  0
    9.4184   47.5298  129.8599 O   0  0  0  0  0  0  0  0  0  0  0  0
    8.4126   48.3763  130.0413 C   0  0  0  0  0  0  0  0  0  0  0  0
    8.7181   49.7929  130.5491 C   0  0  0  0  0  0  0  0  0  0  0  0
    6.9651   50.1358  130.1925 S   0  0  0  0  0  0  0  0  0  0  0  0
    7.6738   49.0227  128.9199 C   0  0  0  0  0  0  0  0  0  0  0  0
  7  8  2  0  0  0
  8  9  1  0  0  0
  8  1  1  0  0  0
  1  2  2  0  0  0
  2  3  1  0  0  0
  3  4  2  0  0  0
  4 11  1  0  0  0
 11 12  1  0  0  0
 12 13  1  0  0  0
 13 14  1  0  0  0
 14 15  1  0  0  0
  4  5  1  0  0  0
  5  6  2  0  0  0
  6  1  1  0  0  0
 15 12  1  0  0  0
  9 10  1  0  0  0
M  END
> <minimizedAffinity>
-6.12758

> <CNNscore>
0.4917618930

> <CNNaffinity>
5.3875942230

> <CNN_VS>
2.6494135857

> <CNNaffinity_variance>
0.6073049307

$$$$
[H]OC(=O)c1c([H])c([H])c(OC2([H])C([H])([H])SC2([H])[H])c([H])c1[H]


 15 16  0  0  0  0  0  0  0  0999 V2000
    7.6149   47.8754  129.7566 C   0  0  0  0  0  0  0  0  0  0  0  0
    6.9472   46.7277  130.1595 C   0  0  0  0  0  0  0  0  0  0  0  0
    7.6795   45.6289  130.5951 C   0  0  0  0  0  0  0  0  0  0  0  0
    9.0541   45.6305  130.6445 C   0  0  0  0  0  0  0  0  0  0  0  0
    9.7108   46.7846  130.2389 C   0  0  0  0  0  0  0  0  0  0  0  0
    8.9962   47.8984  129.7984 C   0  0  0  0  0  0  0  0  0  0  0  0
    7.4027   50.1502  129.1734 O   0  0  0  0  0  0  0  0  0  0  0  0
    6.8420   49.0324  129.2979 C   0  0  0  0  0  0  0  0  0  0  0  0
    5.4969   48.8930  129.0026 O   0  0  0  0  0  0  0  0  0  0  0  0
    4.8184   49.1753  129.7111 H   0  0  0  0  0  0  0  0  0  0  0  0
    9.7607   44.5905  131.0573 O   0  0  0  0  0  0  0  0  0  0  0  0
   10.6164   44.2151  131.9997 C   0  0  0  0  0  0  0  0  0  0  0  0
   11.9784   44.9187  132.0875 C   0  0  0  0  0  0  0  0  0  0  0  0
   12.1811   44.0032  133.6491 S   0  0  0  0  0  0  0  0  0  0  0  0
   10.4418   44.5443  133.4427 C   0  0  0  0  0  0  0  0  0  0  0  0
  7  8  2  0  0  0
  8  9  1  0  0  0
  8  1  1  0  0  0
  1  2  2  0  0  0
  2  3  1  0  0  0
  3  4  2  0  0  0
  4 11  1  0  0  0
 11 12  1  0  0  0
 12 13  1  0  0  0
 13 14  1  0  0  0
 14 15  1  0  0  0
  4  5  1  0  0  0
  5  6  2  0  0  0
  6  1  1  0  0  0
 15 12  1  0  0  0
  9 10  1  0  0  0
M  END
> <minimizedAffinity>
-6.06254

> <CNNscore>
0.4913198948

> <CNNaffinity>
5.1975502968

> <CNN_VS>
2.5536599159

> <CNNaffinity_variance>
0.1883236468

$$$$
[H]OC(=O)c1c([H])c([H])c(OC2([H])C([H])([H])SC2([H])[H])c([H])c1[H]


 15 16  0  0  0  0  0  0  0  0999 V2000
   10.7255   44.5556  132.5851 C   0  0  0  0  0  0  0  0  0  0  0  0
   11.2315   45.2305  131.4833 C   0  0  0  0  0  0  0  0  0  0  0  0
   10.3742   45.9895  130.6945 C   0  0  0  0  0  0  0  0  0  0  0  0
    9.0297   46.1015  130.9622 C   0  0  0  0  0  0  0  0  0  0  0  0
    8.5353   45.4217  132.0673 C   0  0  0  0  0  0  0  0  0  0  0  0
    9.3771   44.6547  132.8723 C   0  0  0  0  0  0  0  0  0  0  0  0
   11.5068   43.7689  134.6660 O   0  0  0  0  0  0  0  0  0  0  0  0
   11.6300   43.7563  133.4154 C   0  0  0  0  0  0  0  0  0  0  0  0
   12.6178   42.9894  132.8221 O   0  0  0  0  0  0  0  0  0  0  0  0
   13.5649   43.3689  132.7893 H   0  0  0  0  0  0  0  0  0  0  0  0
    8.2050   46.8210  130.2182 O   0  0  0  0  0  0  0  0  0  0  0  0
    7.6326   48.0162  130.1483 C   0  0  0  0  0  0  0  0  0  0  0  0
    8.4217   49.2452  130.6222 C   0  0  0  0  0  0  0  0  0  0  0  0
    7.0527   50.2117  129.9085 S   0  0  0  0  0  0  0  0  0  0  0  0
    7.4162   48.7471  128.8676 C   0  0  0  0  0  0  0  0  0  0  0  0
  7  8  2  0  0  0
  8  9  1  0  0  0
  8  1  1  0  0  0
  1  2  2  0  0  0
  2  3  1  0  0  0
  3  4  2  0  0  0
  4 11  1  0  0  0
 11 12  1  0  0  0
 12 13  1  0  0  0
 13 14  1  0  0  0
 14 15  1  0  0  0
  4  5  1  0  0  0
  5  6  2  0  0  0
  6  1  1  0  0  0
 15 12  1  0  0  0
  9 10  1  0  0  0
M  END
> <minimizedAffinity>
-5.80304

> <CNNscore>
0.4512202144

> <CNNaffinity>
5.4275217056

> <CNN_VS>
2.4490075111

> <CNNaffinity_variance>
0.5632923841

$$$$
[H]OC(=O)c1c([H])c([H])c(OC2([H])C([H])([H])SC2([H])[H])c([H])c1[H]


 15 16  0  0  0  0  0  0  0  0999 V2000
    7.3791   47.4810  130.0389 C   0  0  0  0  0  0  0  0  0  0  0  0
    8.3151   48.2341  130.7333 C   0  0  0  0  0  0  0  0  0  0  0  0
    8.9530   47.6810  131.8380 C   0  0  0  0  0  0  0  0  0  0  0  0
    8.6930   46.4039  132.2778 C   0  0  0  0  0  0  0  0  0  0  0  0
    7.7546   45.6603  131.5748 C   0  0  0  0  0  0  0  0  0  0  0  0
    7.1028   46.1952  130.4639 C   0  0  0  0  0  0  0  0  0  0  0  0
    5.7062   47.4921  128.3773 O   0  0  0  0  0  0  0  0  0  0  0  0
    6.7078   48.0651  128.8750 C   0  0  0  0  0  0  0  0  0  0  0  0
    7.1770   49.2458  128.3259 O   0  0  0  0  0  0  0  0  0  0  0  0
    7.7740   49.1868  127.4999 H   0  0  0  0  0  0  0  0  0  0  0  0
    9.2943   45.8678  133.3278 O   0  0  0  0  0  0  0  0  0  0  0  0
   10.4063   45.2398  133.6885 C   0  0  0  0  0  0  0  0  0  0  0  0
   10.5637   43.7524  133.3413 C   0  0  0  0  0  0  0  0  0  0  0  0
   12.2802   43.9552  133.9162 S   0  0  0  0  0  0  0  0  0  0  0  0
   11.7213   45.4539  133.0207 C   0  0  0  0  0  0  0  0  0  0  0  0
  7  8  2  0  0  0
  8  9  1  0  0  0
  8  1  1  0  0  0
  1  2  2  0  0  0
  2  3  1  0  0  0
  3  4  2  0  0  0
  4 11  1  0  0  0
 11 12  1  0  0  0
 12 13  1  0  0  0
 13 14  1  0  0  0
 14 15  1  0  0  0
  4  5  1  0  0  0
  5  6  2  0  0  0
  6  1  1  0  0  0
 15 12  1  0  0  0
  9 10  1  0  0  0
M  END
> <minimizedAffinity>
-6.24136

> <CNNscore>
0.4423416853

> <CNNaffinity>
5.1690621376

> <CNN_VS>
2.2864916325

> <CNNaffinity_variance>
0.1894272864

$$$$
[H]C([H])=C([H])C(=O)N([H])C([H])([H])C([H])([H])C([H])([H])C([H])([H])[C@@]([H])(C(=O)N1C([H])([H])C([H])([H])N(c2c([H])c([H])c([H])c(C([H])([H])[H])c2[H])C([H])([H])C1([H])[H])N([H])C(=O)C([H])([H])c1c([H])c([H])c([H])c([H])c1[H]


 37 39  0  0  0  0  0  0  0  0999 V2000
    9.4941   49.7106  130.6709 C   0  0  0  0  0  0  0  0  0  0  0  0
    8.3329   48.8744  130.3286 C   0  0  0  0  0  0  0  0  0  0  0  0
    7.4192   49.3953  129.5959 O   0  0  0  0  0  0  0  0  0  0  0  0
    8.1730   47.5416  130.7563 N   0  0  0  0  0  0  0  0  0  0  0  0
    9.1545   46.8689  131.5562 C   0  0  0  0  0  0  0  0  0  0  0  0
    9.1860   45.3993  131.1499 C   0  0  0  0  0  0  0  0  0  0  0  0
    7.8739   44.8520  131.4384 N   0  0  0  0  0  0  0  0  0  0  0  0
    6.7464   45.7338  131.4769 C   0  0  0  0  0  0  0  0  0  0  0  0
    6.9826   46.7811  130.3887 C   0  0  0  0  0  0  0  0  0  0  0  0
    7.7091   43.4620  131.6700 C   0  0  0  0  0  0  0  0  0  0  0  0
    7.9210   42.5927  130.6036 C   0  0  0  0  0  0  0  0  0  0  0  0
    7.7735   41.2436  130.8024 C   0  0  0  0  0  0  0  0  0  0  0  0
    7.4236   40.7256  132.0202 C   0  0  0  0  0  0  0  0  0  0  0  0
    7.2086   41.5619  133.0895 C   0  0  0  0  0  0  0  0  0  0  0  0
    6.8293   41.0425  134.4134 C   0  0  0  0  0  0  0  0  0  0  0  0
    7.3589   42.9229  132.8843 C   0  0  0  0  0  0  0  0  0  0  0  0
   10.2207   49.1092  131.8161 N   0  0  0  0  0  0  0  0  0  0  0  0
   10.1496   49.6907  133.0948 C   0  0  0  0  0  0  0  0  0  0  0  0
    9.4617   50.7287  133.2568 O   0  0  0  0  0  0  0  0  0  0  0  0
   10.7650   48.2681  131.6353 H   0  0  0  0  0  0  0  0  0  0  0  0
   10.8756   49.0781  134.2121 C   0  0  0  0  0  0  0  0  0  0  0  0
   10.7168   47.6252  134.2951 C   0  0  0  0  0  0  0  0  0  0  0  0
   11.7079   46.8382  133.7288 C   0  0  0  0  0  0  0  0  0  0  0  0
   11.6409   45.4581  133.7575 C   0  0  0  0  0  0  0  0  0  0  0  0
   10.5856   44.8154  134.3508 C   0  0  0  0  0  0  0  0  0  0  0  0
    9.5939   45.5801  134.9175 C   0  0  0  0  0  0  0  0  0  0  0  0
    9.6642   46.9696  134.8870 C   0  0  0  0  0  0  0  0  0  0  0  0
   10.5448   49.7306  129.5680 C   0  0  0  0  0  0  0  0  0  0  0  0
   11.1661   48.4011  129.2964 C   0  0  0  0  0  0  0  0  0  0  0  0
   10.2489   47.4354  128.5615 C   0  0  0  0  0  0  0  0  0  0  0  0
   10.9742   46.2103  128.1243 C   0  0  0  0  0  0  0  0  0  0  0  0
   11.4234   44.1873  129.4966 C   0  0  0  0  0  0  0  0  0  0  0  0
   10.6613   43.4812  128.7410 O   0  0  0  0  0  0  0  0  0  0  0  0
   11.6250   45.5573  129.2381 N   0  0  0  0  0  0  0  0  0  0  0  0
   12.2589   46.1418  129.8550 H   0  0  0  0  0  0  0  0  0  0  0  0
   11.4148   42.7286  131.4259 C   0  0  0  0  0  0  0  0  0  0  0  0
   12.0565   43.5303  130.6060 C   0  0  0  0  0  0  0  0  0  0  0  0
 36 37  2  0  0  0
 37 32  1  0  0  0
 32 33  2  0  0  0
 32 34  1  0  0  0
 34 31  1  0  0  0
 31 30  1  0  0  0
 30 29  1  0  0  0
 29 28  1  0  0  0
 28  1  1  0  0  0
  1 17  1  0  0  0
 17 18  1  0  0  0
 18 19  2  0  0  0
 18 21  1  0  0  0
 21 22  1  0  0  0
 22 23  2  0  0  0
 23 24  1  0  0  0
 24 25  2  0  0  0
 25 26  1  0  0  0
 26 27  2  0  0  0
  1  2  1  0  0  0
  2  3  2  0  0  0
  2  4  1  0  0  0
  4  5  1  0  0  0
  5  6  1  0  0  0
  6  7  1  0  0  0
  7 10  1  0  0  0
 10 11  2  0  0  0
 11 12  1  0  0  0
 12 13  2  0  0  0
 13 14  1  0  0  0
 14 15  1  0  0  0
 14 16  2  0  0  0
  7  8  1  0  0  0
  8  9  1  0  0  0
 27 22  1  0  0  0
  9  4  1  0  0  0
 16 10  1  0  0  0
 34 35  1  0  0  0
 17 20  1  0  0  0
M  END
> <minimizedAffinity>
11.61133

> <CNNscore>
0.5010556579

> <CNNaffinity>
7.4955840111

> <CNN_VS>
3.7557048798

> <CNNaffinity_variance>
0.3751755357

$$$$
[H]C([H])=C([H])C(=O)N([H])C([H])([H])C([H])([H])C([H])([H])C([H])([H])[C@@]([H])(C(=O)N1C([H])([H])C([H])([H])N(c2c([H])c([H])c([H])c(C([H])([H])[H])c2[H])C([H])([H])C1([H])[H])N([H])C(=O)C([H])([H])c1c([H])c([H])c([H])c([H])c1[H]


 37 39  0  0  0  0  0  0  0  0999 V2000
    6.3109   48.7956  129.5075 C   0  0  0  0  0  0  0  0  0  0  0  0
    6.3795   47.3513  129.2351 C   0  0  0  0  0  0  0  0  0  0  0  0
    5.5933   46.8760  128.3413 O   0  0  0  0  0  0  0  0  0  0  0  0
    7.2575   46.4696  129.8957 N   0  0  0  0  0  0  0  0  0  0  0  0
    8.1891   46.9155  130.8901 C   0  0  0  0  0  0  0  0  0  0  0  0
    9.4567   46.0749  130.7778 C   0  0  0  0  0  0  0  0  0  0  0  0
    9.0799   44.7016  131.0539 N   0  0  0  0  0  0  0  0  0  0  0  0
    7.7265   44.2934  130.8267 C   0  0  0  0  0  0  0  0  0  0  0  0
    7.2544   45.0442  129.5816 C   0  0  0  0  0  0  0  0  0  0  0  0
   10.0408   43.7744  131.5334 C   0  0  0  0  0  0  0  0  0  0  0  0
   10.0983   42.5219  130.9286 C   0  0  0  0  0  0  0  0  0  0  0  0
   11.0220   41.6091  131.3699 C   0  0  0  0  0  0  0  0  0  0  0  0
   11.8906   41.8933  132.3889 C   0  0  0  0  0  0  0  0  0  0  0  0
   11.8549   43.1223  133.0031 C   0  0  0  0  0  0  0  0  0  0  0  0
   12.7710   43.4640  134.1031 C   0  0  0  0  0  0  0  0  0  0  0  0
   10.9211   44.0408  132.5542 C   0  0  0  0  0  0  0  0  0  0  0  0
    7.5460   49.2301  130.2054 N   0  0  0  0  0  0  0  0  0  0  0  0
    7.4939   50.2171  131.2061 C   0  0  0  0  0  0  0  0  0  0  0  0
    6.3862   50.7285  131.5031 O   0  0  0  0  0  0  0  0  0  0  0  0
    8.4199   48.7864  129.9299 H   0  0  0  0  0  0  0  0  0  0  0  0
    8.7276   50.6300  131.8831 C   0  0  0  0  0  0  0  0  0  0  0  0
    9.4762   49.5210  132.4769 C   0  0  0  0  0  0  0  0  0  0  0  0
    8.8855   48.8392  133.5298 C   0  0  0  0  0  0  0  0  0  0  0  0
    9.5190   47.7808  134.1529 C   0  0  0  0  0  0  0  0  0  0  0  0
   10.7613   47.3655  133.7489 C   0  0  0  0  0  0  0  0  0  0  0  0
   11.3617   48.0300  132.7062 C   0  0  0  0  0  0  0  0  0  0  0  0
   10.7213   49.0955  132.0807 C   0  0  0  0  0  0  0  0  0  0  0  0
    6.3225   49.6314  128.2338 C   0  0  0  0  0  0  0  0  0  0  0  0
    7.4198   50.6417  128.1798 C   0  0  0  0  0  0  0  0  0  0  0  0
    7.0809   51.9513  128.8753 C   0  0  0  0  0  0  0  0  0  0  0  0
    6.6531   52.9968  127.9047 C   0  0  0  0  0  0  0  0  0  0  0  0
    7.5389   54.1939  125.9148 C   0  0  0  0  0  0  0  0  0  0  0  0
    6.3493   54.5218  125.5578 O   0  0  0  0  0  0  0  0  0  0  0  0
    7.7579   53.4359  127.0818 N   0  0  0  0  0  0  0  0  0  0  0  0
    8.7385   53.1693  127.3838 H   0  0  0  0  0  0  0  0  0  0  0  0
    8.9113   54.0726  123.9269 C   0  0  0  0  0  0  0  0  0  0  0  0
    8.6279   54.6268  125.0841 C   0  0  0  0  0  0  0  0  0  0  0  0
 36 37  2  0  0  0
 37 32  1  0  0  0
 32 33  2  0  0  0
 32 34  1  0  0  0
 34 31  1  0  0  0
 31 30  1  0  0  0
 30 29  1  0  0  0
 29 28  1  0  0  0
 28  1  1  0  0  0
  1 17  1  0  0  0
 17 18  1  0  0  0
 18 19  2  0  0  0
 18 21  1  0  0  0
 21 22  1  0  0  0
 22 23  2  0  0  0
 23 24  1  0  0  0
 24 25  2  0  0  0
 25 26  1  0  0  0
 26 27  2  0  0  0
  1  2  1  0  0  0
  2  3  2  0  0  0
  2  4  1  0  0  0
  4  5  1  0  0  0
  5  6  1  0  0  0
  6  7  1  0  0  0
  7 10  1  0  0  0
 10 11  2  0  0  0
 11 12  1  0  0  0
 12 13  2  0  0  0
 13 14  1  0  0  0
 14 15  1  0  0  0
 14 16  2  0  0  0
  7  8  1  0  0  0
  8  9  1  0  0  0
 27 22  1  0  0  0
  9  4  1  0  0  0
 16 10  1  0  0  0
 34 35  1  0  0  0
 17 20  1  0  0  0
M  END
> <minimizedAffinity>
4.26829

> <CNNscore>
0.4879041612

> <CNNaffinity>
7.4277739525

> <CNN_VS>
3.6240417957

> <CNNaffinity_variance>
0.6535684466

$$$$
[H]C([H])=C([H])C(=O)N([H])C([H])([H])C([H])([H])C([H])([H])C([H])([H])[C@@]([H])(C(=O)N1C([H])([H])C([H])([H])N(c2c([H])c([H])c([H])c(C([H])([H])[H])c2[H])C([H])([H])C1([H])[H])N([H])C(=O)C([H])([H])c1c([H])c([H])c([H])c([H])c1[H]


 37 39  0  0  0  0  0  0  0  0999 V2000
    8.7878   49.4056  131.3927 C   0  0  0  0  0  0  0  0  0  0  0  0
    9.0464   48.5515  130.2229 C   0  0  0  0  0  0  0  0  0  0  0  0
    9.1877   49.1260  129.0858 O   0  0  0  0  0  0  0  0  0  0  0  0
    9.1493   47.1478  130.2842 N   0  0  0  0  0  0  0  0  0  0  0  0
    9.0307   46.4223  131.5152 C   0  0  0  0  0  0  0  0  0  0  0  0
    9.9684   45.2207  131.4615 C   0  0  0  0  0  0  0  0  0  0  0  0
    9.5209   44.3830  130.3649 N   0  0  0  0  0  0  0  0  0  0  0  0
    8.7869   44.9793  129.2899 C   0  0  0  0  0  0  0  0  0  0  0  0
    9.3908   46.3670  129.0749 C   0  0  0  0  0  0  0  0  0  0  0  0
    9.8142   42.9950  130.3538 C   0  0  0  0  0  0  0  0  0  0  0  0
    9.3711   42.2425  129.2698 C   0  0  0  0  0  0  0  0  0  0  0  0
    9.6462   40.8993  129.2321 C   0  0  0  0  0  0  0  0  0  0  0  0
   10.3449   40.2755  130.2304 C   0  0  0  0  0  0  0  0  0  0  0  0
   10.7937   40.9952  131.3118 C   0  0  0  0  0  0  0  0  0  0  0  0
   11.5461   40.3595  132.4055 C   0  0  0  0  0  0  0  0  0  0  0  0
   10.5139   42.3508  131.3455 C   0  0  0  0  0  0  0  0  0  0  0  0
    9.7653   49.0924  132.4640 N   0  0  0  0  0  0  0  0  0  0  0  0
    9.4159   48.2381  133.5253 C   0  0  0  0  0  0  0  0  0  0  0  0
    8.2629   47.7417  133.5562 O   0  0  0  0  0  0  0  0  0  0  0  0
   10.6873   49.5186  132.3954 H   0  0  0  0  0  0  0  0  0  0  0  0
   10.3991   47.9421  134.5724 C   0  0  0  0  0  0  0  0  0  0  0  0
   10.9422   46.5842  134.5072 C   0  0  0  0  0  0  0  0  0  0  0  0
   12.1315   46.4014  133.8182 C   0  0  0  0  0  0  0  0  0  0  0  0
   12.7167   45.1549  133.7028 C   0  0  0  0  0  0  0  0  0  0  0  0
   12.1382   44.0488  134.2693 C   0  0  0  0  0  0  0  0  0  0  0  0
   10.9590   44.2117  134.9564 C   0  0  0  0  0  0  0  0  0  0  0  0
   10.3719   45.4683  135.0708 C   0  0  0  0  0  0  0  0  0  0  0  0
    9.0480   50.8796  131.1087 C   0  0  0  0  0  0  0  0  0  0  0  0
    7.8972   51.5890  130.4764 C   0  0  0  0  0  0  0  0  0  0  0  0
    7.2584   50.8193  129.3304 C   0  0  0  0  0  0  0  0  0  0  0  0
    5.7819   50.7119  129.4933 C   0  0  0  0  0  0  0  0  0  0  0  0
    5.8048   48.2924  128.9249 C   0  0  0  0  0  0  0  0  0  0  0  0
    6.5724   48.5156  127.9193 O   0  0  0  0  0  0  0  0  0  0  0  0
    5.3782   49.3482  129.7542 N   0  0  0  0  0  0  0  0  0  0  0  0
    4.7506   49.1674  130.5892 H   0  0  0  0  0  0  0  0  0  0  0  0
    5.7945   46.2478  130.2170 C   0  0  0  0  0  0  0  0  0  0  0  0
    5.4018   46.9353  129.1683 C   0  0  0  0  0  0  0  0  0  0  0  0
 36 37  2  0  0  0
 37 32  1  0  0  0
 32 33  2  0  0  0
 32 34  1  0  0  0
 34 31  1  0  0  0
 31 30  1  0  0  0
 30 29  1  0  0  0
 29 28  1  0  0  0
 28  1  1  0  0  0
  1 17  1  0  0  0
 17 18  1  0  0  0
 18 19  2  0  0  0
 18 21  1  0  0  0
 21 22  1  0  0  0
 22 23  2  0  0  0
 23 24  1  0  0  0
 24 25  2  0  0  0
 25 26  1  0  0  0
 26 27  2  0  0  0
  1  2  1  0  0  0
  2  3  2  0  0  0
  2  4  1  0  0  0
  4  5  1  0  0  0
  5  6  1  0  0  0
  6  7  1  0  0  0
  7 10  1  0  0  0
 10 11  2  0  0  0
 11 12  1  0  0  0
 12 13  2  0  0  0
 13 14  1  0  0  0
 14 15  1  0  0  0
 14 16  2  0  0  0
  7  8  1  0  0  0
  8  9  1  0  0  0
 27 22  1  0  0  0
  9  4  1  0  0  0
 16 10  1  0  0  0
 34 35  1  0  0  0
 17 20  1  0  0  0
M  END
> <minimizedAffinity>
8.16437

> <CNNscore>
0.4797791839

> <CNNaffinity>
7.6969819069

> <CNN_VS>
3.6928517818

> <CNNaffinity_variance>
0.6865442395

$$$$
[H]C([H])=C([H])C(=O)N([H])C([H])([H])C([H])([H])C([H])([H])C([H])([H])[C@@]([H])(C(=O)N1C([H])([H])C([H])([H])N(c2c([H])c([H])c([H])c(C([H])([H])[H])c2[H])C([H])([H])C1([H])[H])N([H])C(=O)C([H])([H])c1c([H])c([H])c([H])c([H])c1[H]


 37 39  0  0  0  0  0  0  0  0999 V2000
    6.5096   48.8171  130.2513 C   0  0  0  0  0  0  0  0  0  0  0  0
    6.4647   47.3553  130.0898 C   0  0  0  0  0  0  0  0  0  0  0  0
    5.5169   46.8634  129.3809 O   0  0  0  0  0  0  0  0  0  0  0  0
    7.4012   46.4738  130.6649 N   0  0  0  0  0  0  0  0  0  0  0  0
    8.5080   46.9352  131.4509 C   0  0  0  0  0  0  0  0  0  0  0  0
    9.6982   46.0157  131.1983 C   0  0  0  0  0  0  0  0  0  0  0  0
    9.3115   44.6905  131.6440 N   0  0  0  0  0  0  0  0  0  0  0  0
    7.9219   44.3471  131.6790 C   0  0  0  0  0  0  0  0  0  0  0  0
    7.2796   45.0320  130.4727 C   0  0  0  0  0  0  0  0  0  0  0  0
   10.2967   43.7457  132.0310 C   0  0  0  0  0  0  0  0  0  0  0  0
   11.3483   44.1883  132.8285 C   0  0  0  0  0  0  0  0  0  0  0  0
   12.3111   43.2937  133.2209 C   0  0  0  0  0  0  0  0  0  0  0  0
   12.2688   41.9764  132.8512 C   0  0  0  0  0  0  0  0  0  0  0  0
   11.2414   41.5136  132.0642 C   0  0  0  0  0  0  0  0  0  0  0  0
   11.1628   40.1050  131.6448 C   0  0  0  0  0  0  0  0  0  0  0  0
   10.2716   42.4200  131.6707 C   0  0  0  0  0  0  0  0  0  0  0  0
    7.2938   49.1606  131.4630 N   0  0  0  0  0  0  0  0  0  0  0  0
    8.4638   49.9349  131.3634 C   0  0  0  0  0  0  0  0  0  0  0  0
    8.8386   50.3335  130.2332 O   0  0  0  0  0  0  0  0  0  0  0  0
    6.9500   48.8145  132.3565 H   0  0  0  0  0  0  0  0  0  0  0  0
    9.2223   50.2628  132.5750 C   0  0  0  0  0  0  0  0  0  0  0  0
    9.4839   49.1105  133.4392 C   0  0  0  0  0  0  0  0  0  0  0  0
   10.7409   48.5293  133.3704 C   0  0  0  0  0  0  0  0  0  0  0  0
   11.0765   47.4368  134.1473 C   0  0  0  0  0  0  0  0  0  0  0  0
   10.1727   46.8865  135.0187 C   0  0  0  0  0  0  0  0  0  0  0  0
    8.9218   47.4502  135.1000 C   0  0  0  0  0  0  0  0  0  0  0  0
    8.5867   48.5503  134.3162 C   0  0  0  0  0  0  0  0  0  0  0  0
    7.2832   49.5048  129.1334 C   0  0  0  0  0  0  0  0  0  0  0  0
    7.2611   48.7670  127.8362 C   0  0  0  0  0  0  0  0  0  0  0  0
    8.4806   47.8859  127.6122 C   0  0  0  0  0  0  0  0  0  0  0  0
    9.4643   48.0125  128.7233 C   0  0  0  0  0  0  0  0  0  0  0  0
   10.1333   45.6543  128.3126 C   0  0  0  0  0  0  0  0  0  0  0  0
    8.9185   45.3359  128.0423 O   0  0  0  0  0  0  0  0  0  0  0  0
   10.4721   46.9779  128.6555 N   0  0  0  0  0  0  0  0  0  0  0  0
   11.4745   47.2463  128.8722 H   0  0  0  0  0  0  0  0  0  0  0  0
   12.2465   44.6555  128.9345 C   0  0  0  0  0  0  0  0  0  0  0  0
   11.1243   44.6162  128.2521 C   0  0  0  0  0  0  0  0  0  0  0  0
 36 37  2  0  0  0
 37 32  1  0  0  0
 32 33  2  0  0  0
 32 34  1  0  0  0
 34 31  1  0  0  0
 31 30  1  0  0  0
 30 29  1  0  0  0
 29 28  1  0  0  0
 28  1  1  0  0  0
  1 17  1  0  0  0
 17 18  1  0  0  0
 18 19  2  0  0  0
 18 21  1  0  0  0
 21 22  1  0  0  0
 22 23  2  0  0  0
 23 24  1  0  0  0
 24 25  2  0  0  0
 25 26  1  0  0  0
 26 27  2  0  0  0
  1  2  1  0  0  0
  2  3  2  0  0  0
  2  4  1  0  0  0
  4  5  1  0  0  0
  5  6  1  0  0  0
  6  7  1  0  0  0
  7 10  1  0  0  0
 10 11  2  0  0  0
 11 12  1  0  0  0
 12 13  2  0  0  0
 13 14  1  0  0  0
 14 15  1  0  0  0
 14 16  2  0  0  0
  7  8  1  0  0  0
  8  9  1  0  0  0
 27 22  1  0  0  0
  9  4  1  0  0  0
 16 10  1  0  0  0
 34 35  1  0  0  0
 17 20  1  0  0  0
M  END
> <minimizedAffinity>
5.19300

> <CNNscore>
0.4469043612

> <CNNaffinity>
7.7623505592

> <CNN_VS>
3.4690282345

> <CNNaffinity_variance>
0.5493372083

$$$$
[H]C([H])=C([H])C(=O)N([H])C([H])([H])C([H])([H])C([H])([H])C([H])([H])[C@@]([H])(C(=O)N1C([H])([H])C([H])([H])N(c2c([H])c([H])c([H])c(C([H])([H])[H])c2[H])C([H])([H])C1([H])[H])N([H])C(=O)C([H])([H])c1c([H])c([H])c([H])c([H])c1[H]


 37 39  0  0  0  0  0  0  0  0999 V2000
    8.3499   49.2264  131.2180 C   0  0  0  0  0  0  0  0  0  0  0  0
    9.3740   48.6240  130.3501 C   0  0  0  0  0  0  0  0  0  0  0  0
   10.3044   49.3873  129.9088 O   0  0  0  0  0  0  0  0  0  0  0  0
    9.3894   47.2640  129.9829 N   0  0  0  0  0  0  0  0  0  0  0  0
    8.4049   46.3316  130.4490 C   0  0  0  0  0  0  0  0  0  0  0  0
    9.0767   44.9769  130.6476 C   0  0  0  0  0  0  0  0  0  0  0  0
    9.5645   44.5517  129.3493 N   0  0  0  0  0  0  0  0  0  0  0  0
    9.8512   45.5426  128.3562 C   0  0  0  0  0  0  0  0  0  0  0  0
   10.4312   46.7439  129.1027 C   0  0  0  0  0  0  0  0  0  0  0  0
    9.7631   43.1748  129.0710 C   0  0  0  0  0  0  0  0  0  0  0  0
    9.7590   42.7705  127.7389 C   0  0  0  0  0  0  0  0  0  0  0  0
    9.9542   41.4457  127.4425 C   0  0  0  0  0  0  0  0  0  0  0  0
   10.1533   40.5073  128.4192 C   0  0  0  0  0  0  0  0  0  0  0  0
   10.1619   40.8799  129.7421 C   0  0  0  0  0  0  0  0  0  0  0  0
   10.3708   39.8998  130.8200 C   0  0  0  0  0  0  0  0  0  0  0  0
    9.9648   42.2183  130.0366 C   0  0  0  0  0  0  0  0  0  0  0  0
    8.3602   48.5547  132.5409 N   0  0  0  0  0  0  0  0  0  0  0  0
    9.5271   47.9318  133.0190 C   0  0  0  0  0  0  0  0  0  0  0  0
   10.5639   47.9505  132.3109 O   0  0  0  0  0  0  0  0  0  0  0  0
    7.4955   48.5660  133.0782 H   0  0  0  0  0  0  0  0  0  0  0  0
    9.5140   47.2749  134.3301 C   0  0  0  0  0  0  0  0  0  0  0  0
    9.8245   45.8453  134.2787 C   0  0  0  0  0  0  0  0  0  0  0  0
    8.8257   44.9871  133.8446 C   0  0  0  0  0  0  0  0  0  0  0  0
    9.0281   43.6223  133.7659 C   0  0  0  0  0  0  0  0  0  0  0  0
   10.2309   43.0661  134.1162 C   0  0  0  0  0  0  0  0  0  0  0  0
   11.2325   43.9022  134.5487 C   0  0  0  0  0  0  0  0  0  0  0  0
   11.0258   45.2762  134.6270 C   0  0  0  0  0  0  0  0  0  0  0  0
    8.6586   50.6772  131.5655 C   0  0  0  0  0  0  0  0  0  0  0  0
    7.9079   51.6718  130.7441 C   0  0  0  0  0  0  0  0  0  0  0  0
    7.4007   51.1160  129.4221 C   0  0  0  0  0  0  0  0  0  0  0  0
    6.6405   52.1374  128.6496 C   0  0  0  0  0  0  0  0  0  0  0  0
    7.3080   53.6279  126.7760 C   0  0  0  0  0  0  0  0  0  0  0  0
    6.8956   54.6584  127.4227 O   0  0  0  0  0  0  0  0  0  0  0  0
    7.2128   52.3394  127.3373 N   0  0  0  0  0  0  0  0  0  0  0  0
    7.5585   51.4872  126.8099 H   0  0  0  0  0  0  0  0  0  0  0  0
    8.8663   54.6592  125.2405 C   0  0  0  0  0  0  0  0  0  0  0  0
    7.8651   53.8394  125.4691 C   0  0  0  0  0  0  0  0  0  0  0  0
 36 37  2  0  0  0
 37 32  1  0  0  0
 32 33  2  0  0  0
 32 34  1  0  0  0
 34 31  1  0  0  0
 31 30  1  0  0  0
 30 29  1  0  0  0
 29 28  1  0  0  0
 28  1  1  0  0  0
  1 17  1  0  0  0
 17 18  1  0  0  0
 18 19  2  0  0  0
 18 21  1  0  0  0
 21 22  1  0  0  0
 22 23  2  0  0  0
 23 24  1  0  0  0
 24 25  2  0  0  0
 25 26  1  0  0  0
 26 27  2  0  0  0
  1  2  1  0  0  0
  2  3  2  0  0  0
  2  4  1  0  0  0
  4  5  1  0  0  0
  5  6  1  0  0  0
  6  7  1  0  0  0
  7 10  1  0  0  0
 10 11  2  0  0  0
 11 12  1  0  0  0
 12 13  2  0  0  0
 13 14  1  0  0  0
 14 15  1  0  0  0
 14 16  2  0  0  0
  7  8  1  0  0  0
  8  9  1  0  0  0
 27 22  1  0  0  0
  9  4  1  0  0  0
 16 10  1  0  0  0
 34 35  1  0  0  0
 17 20  1  0  0  0
M  END
> <minimizedAffinity>
9.65368

> <CNNscore>
0.4456889927

> <CNNaffinity>
7.4393792152

> <CNN_VS>
3.3156495094

> <CNNaffinity_variance>
0.4597668648

$$$$
[H]C([H])=C([H])C(=O)N([H])C([H])([H])C([H])([H])C([H])([H])C([H])([H])[C@@]([H])(C(=O)N1C([H])([H])C([H])([H])N(c2c([H])c([H])c([H])c(C([H])([H])[H])c2[H])C([H])([H])C1([H])[H])N([H])C(=O)C([H])([H])c1c([H])c([H])c([H])c([H])c1[H]


 37 39  0  0  0  0  0  0  0  0999 V2000
    6.2110   48.7571  129.3555 C   0  0  0  0  0  0  0  0  0  0  0  0
    6.0137   47.3422  129.7075 C   0  0  0  0  0  0  0  0  0  0  0  0
    5.0120   46.7336  129.1886 O   0  0  0  0  0  0  0  0  0  0  0  0
    6.8607   46.6244  130.5746 N   0  0  0  0  0  0  0  0  0  0  0  0
    8.0182   47.2151  131.1804 C   0  0  0  0  0  0  0  0  0  0  0  0
    9.1042   46.1500  131.2905 C   0  0  0  0  0  0  0  0  0  0  0  0
    8.5880   45.1070  132.1566 N   0  0  0  0  0  0  0  0  0  0  0  0
    7.1709   44.9389  132.2733 C   0  0  0  0  0  0  0  0  0  0  0  0
    6.5887   45.2253  130.8891 C   0  0  0  0  0  0  0  0  0  0  0  0
    9.4748   44.2602  132.8703 C   0  0  0  0  0  0  0  0  0  0  0  0
    9.0718   42.9505  133.1153 C   0  0  0  0  0  0  0  0  0  0  0  0
    9.9129   42.1098  133.7987 C   0  0  0  0  0  0  0  0  0  0  0  0
   11.1390   42.5208  134.2477 C   0  0  0  0  0  0  0  0  0  0  0  0
   11.5610   43.8086  134.0191 C   0  0  0  0  0  0  0  0  0  0  0  0
   12.8714   44.2877  134.4880 C   0  0  0  0  0  0  0  0  0  0  0  0
   10.7089   44.6537  133.3287 C   0  0  0  0  0  0  0  0  0  0  0  0
    7.2884   49.3341  130.1966 N   0  0  0  0  0  0  0  0  0  0  0  0
    7.4816   50.7259  130.2581 C   0  0  0  0  0  0  0  0  0  0  0  0
    6.7292   51.4775  129.5904 O   0  0  0  0  0  0  0  0  0  0  0  0
    7.8724   48.6845  130.7196 H   0  0  0  0  0  0  0  0  0  0  0  0
    8.5525   51.2736  131.0973 C   0  0  0  0  0  0  0  0  0  0  0  0
    9.4200   50.2540  131.6896 C   0  0  0  0  0  0  0  0  0  0  0  0
    9.3392   50.0606  133.0602 C   0  0  0  0  0  0  0  0  0  0  0  0
   10.1215   49.1219  133.7058 C   0  0  0  0  0  0  0  0  0  0  0  0
   11.0098   48.3445  133.0092 C   0  0  0  0  0  0  0  0  0  0  0  0
   11.1028   48.5228  131.6495 C   0  0  0  0  0  0  0  0  0  0  0  0
   10.3138   49.4689  131.0021 C   0  0  0  0  0  0  0  0  0  0  0  0
    6.7445   48.9379  127.9400 C   0  0  0  0  0  0  0  0  0  0  0  0
    7.5283   47.7735  127.4326 C   0  0  0  0  0  0  0  0  0  0  0  0
    8.8348   47.5440  128.1768 C   0  0  0  0  0  0  0  0  0  0  0  0
    9.3020   46.1356  128.0498 C   0  0  0  0  0  0  0  0  0  0  0  0
   11.1861   44.7005  128.8037 C   0  0  0  0  0  0  0  0  0  0  0  0
   10.4974   43.6409  128.5731 O   0  0  0  0  0  0  0  0  0  0  0  0
   10.6465   45.9783  128.5578 N   0  0  0  0  0  0  0  0  0  0  0  0
   11.2142   46.8550  128.7399 H   0  0  0  0  0  0  0  0  0  0  0  0
   12.7864   44.4688  130.6024 C   0  0  0  0  0  0  0  0  0  0  0  0
   12.5167   44.5325  129.3179 C   0  0  0  0  0  0  0  0  0  0  0  0
 36 37  2  0  0  0
 37 32  1  0  0  0
 32 33  2  0  0  0
 32 34  1  0  0  0
 34 31  1  0  0  0
 31 30  1  0  0  0
 30 29  1  0  0  0
 29 28  1  0  0  0
 28  1  1  0  0  0
  1 17  1  0  0  0
 17 18  1  0  0  0
 18 19  2  0  0  0
 18 21  1  0  0  0
 21 22  1  0  0  0
 22 23  2  0  0  0
 23 24  1  0  0  0
 24 25  2  0  0  0
 25 26  1  0  0  0
 26 27  2  0  0  0
  1  2  1  0  0  0
  2  3  2  0  0  0
  2  4  1  0  0  0
  4  5  1  0  0  0
  5  6  1  0  0  0
  6  7  1  0  0  0
  7 10  1  0  0  0
 10 11  2  0  0  0
 11 12  1  0  0  0
 12 13  2  0  0  0
 13 14  1  0  0  0
 14 15  1  0  0  0
 14 16  2  0  0  0
  7  8  1  0  0  0
  8  9  1  0  0  0
 27 22  1  0  0  0
  9  4  1  0  0  0
 16 10  1  0  0  0
 34 35  1  0  0  0
 17 20  1  0  0  0
M  END
> <minimizedAffinity>
4.86396

> <CNNscore>
0.4372301996

> <CNNaffinity>
7.6765427589

> <CNN_VS>
3.3564162254

> <CNNaffinity_variance>
0.5326422453

$$$$
[H]C([H])=C([H])C(=O)N([H])C([H])([H])C([H])([H])C([H])([H])C([H])([H])[C@@]([H])(C(=O)N1C([H])([H])C([H])([H])N(c2c([H])c([H])c([H])c(C([H])([H])[H])c2[H])C([H])([H])C1([H])[H])N([H])C(=O)C([H])([H])c1c([H])c([H])c([H])c([H])c1[H]


 37 39  0  0  0  0  0  0  0  0999 V2000
    8.2653   49.2926  131.7207 C   0  0  0  0  0  0  0  0  0  0  0  0
    7.5981   48.1677  131.0467 C   0  0  0  0  0  0  0  0  0  0  0  0
    6.5597   48.4273  130.3414 O   0  0  0  0  0  0  0  0  0  0  0  0
    8.0365   46.8315  131.1310 N   0  0  0  0  0  0  0  0  0  0  0  0
    9.2017   46.4512  131.8749 C   0  0  0  0  0  0  0  0  0  0  0  0
    9.8851   45.2975  131.1483 C   0  0  0  0  0  0  0  0  0  0  0  0
    8.9451   44.1927  131.1297 N   0  0  0  0  0  0  0  0  0  0  0  0
    7.5438   44.4711  131.2235 C   0  0  0  0  0  0  0  0  0  0  0  0
    7.3101   45.7666  130.4463 C   0  0  0  0  0  0  0  0  0  0  0  0
    9.4075   42.8567  131.0111 C   0  0  0  0  0  0  0  0  0  0  0  0
    8.7751   42.0261  130.0902 C   0  0  0  0  0  0  0  0  0  0  0  0
    9.2065   40.7315  129.9523 C   0  0  0  0  0  0  0  0  0  0  0  0
   10.2422   40.2308  130.6943 C   0  0  0  0  0  0  0  0  0  0  0  0
   10.8837   41.0297  131.6104 C   0  0  0  0  0  0  0  0  0  0  0  0
   11.9996   40.5268  132.4277 C   0  0  0  0  0  0  0  0  0  0  0  0
   10.4451   42.3359  131.7461 C   0  0  0  0  0  0  0  0  0  0  0  0
    9.4850   48.8067  132.4117 N   0  0  0  0  0  0  0  0  0  0  0  0
    9.4620   48.5191  133.7883 C   0  0  0  0  0  0  0  0  0  0  0  0
    8.3936   48.6790  134.4283 O   0  0  0  0  0  0  0  0  0  0  0  0
   10.3267   48.6929  131.8505 H   0  0  0  0  0  0  0  0  0  0  0  0
   10.6797   48.0390  134.4498 C   0  0  0  0  0  0  0  0  0  0  0  0
   10.8321   46.5833  134.4243 C   0  0  0  0  0  0  0  0  0  0  0  0
   12.0391   46.0725  133.9718 C   0  0  0  0  0  0  0  0  0  0  0  0
   12.2717   44.7117  133.9109 C   0  0  0  0  0  0  0  0  0  0  0  0
   11.3111   43.8139  134.2984 C   0  0  0  0  0  0  0  0  0  0  0  0
   10.1084   44.3027  134.7498 C   0  0  0  0  0  0  0  0  0  0  0  0
    9.8771   45.6737  134.8099 C   0  0  0  0  0  0  0  0  0  0  0  0
    8.8119   50.3208  130.7384 C   0  0  0  0  0  0  0  0  0  0  0  0
    9.9510   49.8252  129.9110 C   0  0  0  0  0  0  0  0  0  0  0  0
    9.6025   48.6227  129.0472 C   0  0  0  0  0  0  0  0  0  0  0  0
   10.6762   47.5910  129.0788 C   0  0  0  0  0  0  0  0  0  0  0  0
   11.0585   45.2282  128.4091 C   0  0  0  0  0  0  0  0  0  0  0  0
   12.1130   45.1708  129.1404 O   0  0  0  0  0  0  0  0  0  0  0  0
   10.2932   46.4089  128.3396 N   0  0  0  0  0  0  0  0  0  0  0  0
    9.4183   46.4581  127.7429 H   0  0  0  0  0  0  0  0  0  0  0  0
    9.4681   43.5778  127.6366 C   0  0  0  0  0  0  0  0  0  0  0  0
   10.6934   44.0511  127.6712 C   0  0  0  0  0  0  0  0  0  0  0  0
 36 37  2  0  0  0
 37 32  1  0  0  0
 32 33  2  0  0  0
 32 34  1  0  0  0
 34 31  1  0  0  0
 31 30  1  0  0  0
 30 29  1  0  0  0
 29 28  1  0  0  0
 28  1  1  0  0  0
  1 17  1  0  0  0
 17 18  1  0  0  0
 18 19  2  0  0  0
 18 21  1  0  0  0
 21 22  1  0  0  0
 22 23  2  0  0  0
 23 24  1  0  0  0
 24 25  2  0  0  0
 25 26  1  0  0  0
 26 27  2  0  0  0
  1  2  1  0  0  0
  2  3  2  0  0  0
  2  4  1  0  0  0
  4  5  1  0  0  0
  5  6  1  0  0  0
  6  7  1  0  0  0
  7 10  1  0  0  0
 10 11  2  0  0  0
 11 12  1  0  0  0
 12 13  2  0  0  0
 13 14  1  0  0  0
 14 15  1  0  0  0
 14 16  2  0  0  0
  7  8  1  0  0  0
  8  9  1  0  0  0
 27 22  1  0  0  0
  9  4  1  0  0  0
 16 10  1  0  0  0
 34 35  1  0  0  0
 17 20  1  0  0  0
M  END
> <minimizedAffinity>
8.17424

> <CNNscore>
0.4041941464

> <CNNaffinity>
7.6241860390

> <CNN_VS>
3.0816514492

> <CNNaffinity_variance>
0.3355637491

$$$$
[H]C([H])=C([H])C(=O)N([H])C([H])([H])C([H])([H])C([H])([H])C([H])([H])[C@@]([H])(C(=O)N1C([H])([H])C([H])([H])N(c2c([H])c([H])c([H])c(C([H])([H])[H])c2[H])C([H])([H])C1([H])[H])N([H])C(=O)C([H])([H])c1c([H])c([H])c([H])c([H])c1[H]


 37 39  0  0  0  0  0  0  0  0999 V2000
    8.3943   47.8848  128.4961 C   0  0  0  0  0  0  0  0  0  0  0  0
    9.0387   48.5058  129.6641 C   0  0  0  0  0  0  0  0  0  0  0  0
    9.3277   49.7524  129.5920 O   0  0  0  0  0  0  0  0  0  0  0  0
    9.3501   47.8110  130.8494 N   0  0  0  0  0  0  0  0  0  0  0  0
    9.0408   46.4226  131.0295 C   0  0  0  0  0  0  0  0  0  0  0  0
    8.6762   46.1934  132.4925 C   0  0  0  0  0  0  0  0  0  0  0  0
    9.8478   46.5306  133.2787 N   0  0  0  0  0  0  0  0  0  0  0  0
   10.8047   47.4496  132.7405 C   0  0  0  0  0  0  0  0  0  0  0  0
   10.0060   48.4938  131.9603 C   0  0  0  0  0  0  0  0  0  0  0  0
   10.0377   45.9647  134.5658 C   0  0  0  0  0  0  0  0  0  0  0  0
    9.4576   46.6094  135.6547 C   0  0  0  0  0  0  0  0  0  0  0  0
    9.6217   46.0800  136.9093 C   0  0  0  0  0  0  0  0  0  0  0  0
   10.3400   44.9345  137.1231 C   0  0  0  0  0  0  0  0  0  0  0  0
   10.9230   44.2785  136.0654 C   0  0  0  0  0  0  0  0  0  0  0  0
   11.7043   43.0457  136.2558 C   0  0  0  0  0  0  0  0  0  0  0  0
   10.7545   44.8163  134.8008 C   0  0  0  0  0  0  0  0  0  0  0  0
    8.5472   46.4108  128.5679 N   0  0  0  0  0  0  0  0  0  0  0  0
    9.7757   45.8019  128.2543 C   0  0  0  0  0  0  0  0  0  0  0  0
   10.7452   46.5225  127.9114 O   0  0  0  0  0  0  0  0  0  0  0  0
    7.7330   45.8691  128.8508 H   0  0  0  0  0  0  0  0  0  0  0  0
    9.9036   44.3430  128.3332 C   0  0  0  0  0  0  0  0  0  0  0  0
   10.5343   43.8703  129.5668 C   0  0  0  0  0  0  0  0  0  0  0  0
    9.8403   42.9413  130.3269 C   0  0  0  0  0  0  0  0  0  0  0  0
   10.3569   42.4410  131.5070 C   0  0  0  0  0  0  0  0  0  0  0  0
   11.5811   42.8483  131.9699 C   0  0  0  0  0  0  0  0  0  0  0  0
   12.2831   43.7688  131.2288 C   0  0  0  0  0  0  0  0  0  0  0  0
   11.7603   44.2708  130.0408 C   0  0  0  0  0  0  0  0  0  0  0  0
    6.8828   48.0750  128.4931 C   0  0  0  0  0  0  0  0  0  0  0  0
    6.3661   48.8546  129.6562 C   0  0  0  0  0  0  0  0  0  0  0  0
    5.8293   50.2280  129.2827 C   0  0  0  0  0  0  0  0  0  0  0  0
    6.9038   51.2593  129.2836 C   0  0  0  0  0  0  0  0  0  0  0  0
    7.1335   53.0880  127.6161 C   0  0  0  0  0  0  0  0  0  0  0  0
    6.8268   53.9636  128.5047 O   0  0  0  0  0  0  0  0  0  0  0  0
    7.1940   51.7193  127.9440 N   0  0  0  0  0  0  0  0  0  0  0  0
    7.4537   50.9943  127.2154 H   0  0  0  0  0  0  0  0  0  0  0  0
    8.2495   54.5330  126.0299 C   0  0  0  0  0  0  0  0  0  0  0  0
    7.4097   53.5555  126.2863 C   0  0  0  0  0  0  0  0  0  0  0  0
 36 37  2  0  0  0
 37 32  1  0  0  0
 32 33  2  0  0  0
 32 34  1  0  0  0
 34 31  1  0  0  0
 31 30  1  0  0  0
 30 29  1  0  0  0
 29 28  1  0  0  0
 28  1  1  0  0  0
  1 17  1  0  0  0
 17 18  1  0  0  0
 18 19  2  0  0  0
 18 21  1  0  0  0
 21 22  1  0  0  0
 22 23  2  0  0  0
 23 24  1  0  0  0
 24 25  2  0  0  0
 25 26  1  0  0  0
 26 27  2  0  0  0
  1  2  1  0  0  0
  2  3  2  0  0  0
  2  4  1  0  0  0
  4  5  1  0  0  0
  5  6  1  0  0  0
  6  7  1  0  0  0
  7 10  1  0  0  0
 10 11  2  0  0  0
 11 12  1  0  0  0
 12 13  2  0  0  0
 13 14  1  0  0  0
 14 15  1  0  0  0
 14 16  2  0  0  0
  7  8  1  0  0  0
  8  9  1  0  0  0
 27 22  1  0  0  0
  9  4  1  0  0  0
 16 10  1  0  0  0
 34 35  1  0  0  0
 17 20  1  0  0  0
M  END
> <minimizedAffinity>
1.94447

> <CNNscore>
0.3958587646

> <CNNaffinity>
7.5860190392

> <CNN_VS>
3.0029921532

> <CNNaffinity_variance>
0.2622585893

$$$$
[H]C([H])=C([H])C(=O)N([H])C([H])([H])C([H])([H])C([H])([H])C([H])([H])[C@@]([H])(C(=O)N1C([H])([H])C([H])([H])N(c2c([H])c([H])c([H])c(C([H])([H])[H])c2[H])C([H])([H])C1([H])[H])N([H])C(=O)C([H])([H])c1c([H])c([H])c([H])c([H])c1[H]


 37 39  0  0  0  0  0  0  0  0999 V2000
    8.1287   49.4650  132.7216 C   0  0  0  0  0  0  0  0  0  0  0  0
    7.8179   49.0545  131.3432 C   0  0  0  0  0  0  0  0  0  0  0  0
    7.2661   49.9192  130.5746 O   0  0  0  0  0  0  0  0  0  0  0  0
    8.0943   47.7739  130.8253 N   0  0  0  0  0  0  0  0  0  0  0  0
    8.7322   46.7522  131.6031 C   0  0  0  0  0  0  0  0  0  0  0  0
    9.6247   45.9279  130.6812 C   0  0  0  0  0  0  0  0  0  0  0  0
    8.7589   45.3105  129.6946 N   0  0  0  0  0  0  0  0  0  0  0  0
    7.5035   45.9273  129.3887 C   0  0  0  0  0  0  0  0  0  0  0  0
    7.7399   47.4364  129.4501 C   0  0  0  0  0  0  0  0  0  0  0  0
    9.1546   44.1178  129.0359 C   0  0  0  0  0  0  0  0  0  0  0  0
    9.5236   44.2031  127.6964 C   0  0  0  0  0  0  0  0  0  0  0  0
    9.9154   43.0655  127.0379 C   0  0  0  0  0  0  0  0  0  0  0  0
    9.9547   41.8466  127.6597 C   0  0  0  0  0  0  0  0  0  0  0  0
    9.5955   41.7348  128.9816 C   0  0  0  0  0  0  0  0  0  0  0  0
    9.6229   40.4415  129.6836 C   0  0  0  0  0  0  0  0  0  0  0  0
    9.2009   42.8857  129.6424 C   0  0  0  0  0  0  0  0  0  0  0  0
    8.6367   48.2993  133.4859 N   0  0  0  0  0  0  0  0  0  0  0  0
    8.2944   48.1255  134.8390 C   0  0  0  0  0  0  0  0  0  0  0  0
    7.5514   48.9714  135.3950 O   0  0  0  0  0  0  0  0  0  0  0  0
    9.2357   47.6408  132.9919 H   0  0  0  0  0  0  0  0  0  0  0  0
    8.8076   46.9649  135.5742 C   0  0  0  0  0  0  0  0  0  0  0  0
    8.8907   45.7446  134.7699 C   0  0  0  0  0  0  0  0  0  0  0  0
   10.0999   45.0662  134.7565 C   0  0  0  0  0  0  0  0  0  0  0  0
   10.2712   43.9070  134.0240 C   0  0  0  0  0  0  0  0  0  0  0  0
    9.2451   43.3841  133.2807 C   0  0  0  0  0  0  0  0  0  0  0  0
    8.0391   44.0436  133.2826 C   0  0  0  0  0  0  0  0  0  0  0  0
    7.8696   45.2108  134.0211 C   0  0  0  0  0  0  0  0  0  0  0  0
    9.2864   50.4530  132.7897 C   0  0  0  0  0  0  0  0  0  0  0  0
   10.5872   49.8384  133.1869 C   0  0  0  0  0  0  0  0  0  0  0  0
   11.1589   48.8886  132.1454 C   0  0  0  0  0  0  0  0  0  0  0  0
   11.6915   47.6443  132.7668 C   0  0  0  0  0  0  0  0  0  0  0  0
   12.5051   45.3911  132.1046 C   0  0  0  0  0  0  0  0  0  0  0  0
   13.0220   45.2142  133.2672 O   0  0  0  0  0  0  0  0  0  0  0  0
   11.8221   46.5832  131.7934 N   0  0  0  0  0  0  0  0  0  0  0  0
   11.3880   46.7301  130.8374 H   0  0  0  0  0  0  0  0  0  0  0  0
   12.3761   43.0777  131.4108 C   0  0  0  0  0  0  0  0  0  0  0  0
   12.6500   44.3345  131.1424 C   0  0  0  0  0  0  0  0  0  0  0  0
 36 37  2  0  0  0
 37 32  1  0  0  0
 32 33  2  0  0  0
 32 34  1  0  0  0
 34 31  1  0  0  0
 31 30  1  0  0  0
 30 29  1  0  0  0
 29 28  1  0  0  0
 28  1  1  0  0  0
  1 17  1  0  0  0
 17 18  1  0  0  0
 18 19  2  0  0  0
 18 21  1  0  0  0
 21 22  1  0  0  0
 22 23  2  0  0  0
 23 24  1  0  0  0
 24 25  2  0  0  0
 25 26  1  0  0  0
 26 27  2  0  0  0
  1  2  1  0  0  0
  2  3  2  0  0  0
  2  4  1  0  0  0
  4  5  1  0  0  0
  5  6  1  0  0  0
  6  7  1  0  0  0
  7 10  1  0  0  0
 10 11  2  0  0  0
 11 12  1  0  0  0
 12 13  2  0  0  0
 13 14  1  0  0  0
 14 15  1  0  0  0
 14 16  2  0  0  0
  7  8  1  0  0  0
  8  9  1  0  0  0
 27 22  1  0  0  0
  9  4  1  0  0  0
 16 10  1  0  0  0
 34 35  1  0  0  0
 17 20  1  0  0  0
M  END
> <minimizedAffinity>
8.80429

> <CNNscore>
0.3500179946

> <CNNaffinity>
7.5126671791

> <CNN_VS>
2.6295688152

> <CNNaffinity_variance>
0.3152386546

$$$$
[H]c1nc([H])c(N([H])c2c([H])c(-c3c([H])c([H])c4c([H])c(C#N)c([H])nn34)nc([H])c2C(=O)N([H])[C@]2([H])C([H])([H])C([H])([H])[C@@]([H])(N([H])C(=O)C3([H])C([H])([H])C3([H])[H])C([H])([H])C2([H])[H])c([H])c1[H]


 42 47  0  0  0  0  0  0  0  0999 V2000
    8.5043   46.0123  130.2870 C   0  0  0  0  0  0  0  0  0  0  0  0
    8.8649   47.2710  130.6654 C   0  0  0  0  0  0  0  0  0  0  0  0
    8.4308   48.4643  130.0950 C   0  0  0  0  0  0  0  0  0  0  0  0
    7.5343   48.3427  129.0284 C   0  0  0  0  0  0  0  0  0  0  0  0
    7.1562   47.0530  128.6268 C   0  0  0  0  0  0  0  0  0  0  0  0
    7.6266   45.9618  129.2363 N   0  0  0  0  0  0  0  0  0  0  0  0
   10.7509   43.6604  134.3512 C   0  0  0  0  0  0  0  0  0  0  0  0
   10.4679   44.9869  134.1530 C   0  0  0  0  0  0  0  0  0  0  0  0
    9.8766   45.3533  133.0143 N   0  0  0  0  0  0  0  0  0  0  0  0
    9.5405   44.5102  132.0513 N   0  0  0  0  0  0  0  0  0  0  0  0
    8.9557   44.7638  130.8866 C   0  0  0  0  0  0  0  0  0  0  0  0
    8.8312   43.5230  130.2478 C   0  0  0  0  0  0  0  0  0  0  0  0
    9.3551   42.5554  131.0682 C   0  0  0  0  0  0  0  0  0  0  0  0
    9.8043   43.2045  132.2175 C   0  0  0  0  0  0  0  0  0  0  0  0
   10.4123   42.7575  133.3668 C   0  0  0  0  0  0  0  0  0  0  0  0
   11.9008   42.9230  136.5510 N   0  0  0  0  0  0  0  0  0  0  0  0
   11.3896   43.2541  135.5649 C   0  0  0  0  0  0  0  0  0  0  0  0
    6.9289   49.4902  128.4052 C   0  0  0  0  0  0  0  0  0  0  0  0
    5.7384   49.4017  127.9437 O   0  0  0  0  0  0  0  0  0  0  0  0
    7.5702   50.7355  128.2663 N   0  0  0  0  0  0  0  0  0  0  0  0
    8.5313   50.8614  128.6319 H   0  0  0  0  0  0  0  0  0  0  0  0
    6.8493   51.8162  127.6109 C   0  0  0  0  0  0  0  0  0  0  0  0
    7.1021   53.0703  128.4535 C   0  0  0  0  0  0  0  0  0  0  0  0
    6.5481   54.2794  127.7086 C   0  0  0  0  0  0  0  0  0  0  0  0
    7.5292   54.5240  126.5525 C   0  0  0  0  0  0  0  0  0  0  0  0
    8.1860   53.2587  126.1219 C   0  0  0  0  0  0  0  0  0  0  0  0
    7.2186   52.0656  126.1982 C   0  0  0  0  0  0  0  0  0  0  0  0
    6.7520   55.0873  125.4581 N   0  0  0  0  0  0  0  0  0  0  0  0
    5.8373   56.1286  125.7182 C   0  0  0  0  0  0  0  0  0  0  0  0
    5.6907   56.5657  126.9065 O   0  0  0  0  0  0  0  0  0  0  0  0
    6.8665   54.7342  124.4930 H   0  0  0  0  0  0  0  0  0  0  0  0
    5.0419   56.7232  124.6289 C   0  0  0  0  0  0  0  0  0  0  0  0
    3.5790   56.7002  124.6806 C   0  0  0  0  0  0  0  0  0  0  0  0
    4.2483   55.6556  123.8492 C   0  0  0  0  0  0  0  0  0  0  0  0
    8.9843   49.6771  130.5075 N   0  0  0  0  0  0  0  0  0  0  0  0
    9.0560   50.4837  129.8504 H   0  0  0  0  0  0  0  0  0  0  0  0
    9.5310   49.9000  131.7878 C   0  0  0  0  0  0  0  0  0  0  0  0
    9.5307   51.1381  132.4435 C   0  0  0  0  0  0  0  0  0  0  0  0
   10.0800   51.2951  133.6898 C   0  0  0  0  0  0  0  0  0  0  0  0
   10.6469   50.2091  134.3136 C   0  0  0  0  0  0  0  0  0  0  0  0
   10.6654   49.0070  133.7132 N   0  0  0  0  0  0  0  0  0  0  0  0
   10.1293   48.8589  132.5013 C   0  0  0  0  0  0  0  0  0  0  0  0
 16 17  3  0  0  0
 17  7  1  0  0  0
  7  8  1  0  0  0
  8  9  2  0  0  0
  9 10  1  0  0  0
 10 11  1  0  0  0
 11  1  1  0  0  0
  1  2  2  0  0  0
  2  3  1  0  0  0
  3 35  1  0  0  0
 35 37  1  0  0  0
 37 38  2  0  0  0
 38 39  1  0  0  0
 39 40  2  0  0  0
 40 41  1  0  0  0
 41 42  2  0  0  0
  3  4  2  0  0  0
  4 18  1  0  0  0
 18 19  2  0  0  0
 18 20  1  0  0  0
 20 22  1  0  0  0
 22 23  1  0  0  0
 23 24  1  0  0  0
 24 25  1  0  0  0
 25 28  1  0  0  0
 28 29  1  0  0  0
 29 30  2  0  0  0
 29 32  1  0  0  0
 32 33  1  0  0  0
 33 34  1  0  0  0
 25 26  1  0  0  0
 26 27  1  0  0  0
  4  5  1  0  0  0
  5  6  2  0  0  0
 11 12  2  0  0  0
 12 13  1  0  0  0
 13 14  2  0  0  0
 14 15  1  0  0  0
 15  7  2  0  0  0
 14 10  1  0  0  0
  6  1  1  0  0  0
 42 37  1  0  0  0
 27 22  1  0  0  0
 34 32  1  0  0  0
 35 36  1  0  0  0
 20 21  1  0  0  0
 28 31  1  0  0  0
M  END
> <minimizedAffinity>
12.98146

> <CNNscore>
0.4670057595

> <CNNaffinity>
7.8423585892

> <CNN_VS>
3.6624267101

> <CNNaffinity_variance>
0.9347073436

$$$$
[H]c1nc([H])c(N([H])c2c([H])c(-c3c([H])c([H])c4c([H])c(C#N)c([H])nn34)nc([H])c2C(=O)N([H])[C@]2([H])C([H])([H])C([H])([H])[C@@]([H])(N([H])C(=O)C3([H])C([H])([H])C3([H])[H])C([H])([H])C2([H])[H])c([H])c1[H]


 42 47  0  0  0  0  0  0  0  0999 V2000
   10.3162   46.5096  130.6423 C   0  0  0  0  0  0  0  0  0  0  0  0
    9.5732   47.2930  131.4740 C   0  0  0  0  0  0  0  0  0  0  0  0
    8.7277   48.3327  131.0973 C   0  0  0  0  0  0  0  0  0  0  0  0
    8.6422   48.5858  129.7244 C   0  0  0  0  0  0  0  0  0  0  0  0
    9.4034   47.7886  128.8570 C   0  0  0  0  0  0  0  0  0  0  0  0
   10.1899   46.8097  129.3116 N   0  0  0  0  0  0  0  0  0  0  0  0
   10.9259   41.3815  131.2962 C   0  0  0  0  0  0  0  0  0  0  0  0
    9.8358   42.0848  130.8536 C   0  0  0  0  0  0  0  0  0  0  0  0
    9.9222   43.4136  130.7663 N   0  0  0  0  0  0  0  0  0  0  0  0
   11.0045   44.1063  131.0824 N   0  0  0  0  0  0  0  0  0  0  0  0
   11.1980   45.4191  131.0364 C   0  0  0  0  0  0  0  0  0  0  0  0
   12.5121   45.6233  131.4779 C   0  0  0  0  0  0  0  0  0  0  0  0
   13.0664   44.4038  131.7768 C   0  0  0  0  0  0  0  0  0  0  0  0
   12.0882   43.4446  131.5180 C   0  0  0  0  0  0  0  0  0  0  0  0
   12.0684   42.0746  131.6324 C   0  0  0  0  0  0  0  0  0  0  0  0
   10.7809   38.8025  131.4769 N   0  0  0  0  0  0  0  0  0  0  0  0
   10.8454   39.9571  131.4000 C   0  0  0  0  0  0  0  0  0  0  0  0
    7.7368   49.5652  129.1835 C   0  0  0  0  0  0  0  0  0  0  0  0
    6.5423   49.2194  128.8804 O   0  0  0  0  0  0  0  0  0  0  0  0
    8.0811   50.9117  128.9611 N   0  0  0  0  0  0  0  0  0  0  0  0
    9.0332   51.2440  129.1988 H   0  0  0  0  0  0  0  0  0  0  0  0
    7.0736   51.8010  128.4033 C   0  0  0  0  0  0  0  0  0  0  0  0
    7.3754   53.1937  128.9653 C   0  0  0  0  0  0  0  0  0  0  0  0
    6.4857   54.2095  128.2580 C   0  0  0  0  0  0  0  0  0  0  0  0
    7.0775   54.3495  126.8476 C   0  0  0  0  0  0  0  0  0  0  0  0
    7.7559   53.0954  126.4174 C   0  0  0  0  0  0  0  0  0  0  0  0
    7.0119   51.8483  126.9240 C   0  0  0  0  0  0  0  0  0  0  0  0
    5.9666   54.6535  125.9575 N   0  0  0  0  0  0  0  0  0  0  0  0
    6.2271   55.0400  124.6265 C   0  0  0  0  0  0  0  0  0  0  0  0
    7.4293   55.1277  124.2124 O   0  0  0  0  0  0  0  0  0  0  0  0
    4.9898   54.5855  126.2900 H   0  0  0  0  0  0  0  0  0  0  0  0
    5.1222   55.3470  123.7004 C   0  0  0  0  0  0  0  0  0  0  0  0
    3.8914   54.5545  123.7253 C   0  0  0  0  0  0  0  0  0  0  0  0
    4.8998   54.2151  122.6773 C   0  0  0  0  0  0  0  0  0  0  0  0
    8.1261   49.1308  132.0713 N   0  0  0  0  0  0  0  0  0  0  0  0
    7.6625   50.0292  131.8155 H   0  0  0  0  0  0  0  0  0  0  0  0
    8.1380   48.8368  133.4501 C   0  0  0  0  0  0  0  0  0  0  0  0
    7.4357   49.5640  134.4201 C   0  0  0  0  0  0  0  0  0  0  0  0
    7.4869   49.2314  135.7491 C   0  0  0  0  0  0  0  0  0  0  0  0
    8.2477   48.1557  136.1416 C   0  0  0  0  0  0  0  0  0  0  0  0
    8.9348   47.4368  135.2379 N   0  0  0  0  0  0  0  0  0  0  0  0
    8.8814   47.7635  133.9462 C   0  0  0  0  0  0  0  0  0  0  0  0
 16 17  3  0  0  0
 17  7  1  0  0  0
  7  8  1  0  0  0
  8  9  2  0  0  0
  9 10  1  0  0  0
 10 11  1  0  0  0
 11  1  1  0  0  0
  1  2  2  0  0  0
  2  3  1  0  0  0
  3 35  1  0  0  0
 35 37  1  0  0  0
 37 38  2  0  0  0
 38 39  1  0  0  0
 39 40  2  0  0  0
 40 41  1  0  0  0
 41 42  2  0  0  0
  3  4  2  0  0  0
  4 18  1  0  0  0
 18 19  2  0  0  0
 18 20  1  0  0  0
 20 22  1  0  0  0
 22 23  1  0  0  0
 23 24  1  0  0  0
 24 25  1  0  0  0
 25 28  1  0  0  0
 28 29  1  0  0  0
 29 30  2  0  0  0
 29 32  1  0  0  0
 32 33  1  0  0  0
 33 34  1  0  0  0
 25 26  1  0  0  0
 26 27  1  0  0  0
  4  5  1  0  0  0
  5  6  2  0  0  0
 11 12  2  0  0  0
 12 13  1  0  0  0
 13 14  2  0  0  0
 14 15  1  0  0  0
 15  7  2  0  0  0
 14 10  1  0  0  0
  6  1  1  0  0  0
 42 37  1  0  0  0
 27 22  1  0  0  0
 34 32  1  0  0  0
 35 36  1  0  0  0
 20 21  1  0  0  0
 28 31  1  0  0  0
M  END
> <minimizedAffinity>
23.47617

> <CNNscore>
0.4436862767

> <CNNaffinity>
7.3543281555

> <CNN_VS>
3.2630145550

> <CNNaffinity_variance>
0.8243379593

$$$$
[H]c1nc([H])c(N([H])c2c([H])c(-c3c([H])c([H])c4c([H])c(C#N)c([H])nn34)nc([H])c2C(=O)N([H])[C@]2([H])C([H])([H])C([H])([H])[C@@]([H])(N([H])C(=O)C3([H])C([H])([H])C3([H])[H])C([H])([H])C2([H])[H])c([H])c1[H]


 42 47  0  0  0  0  0  0  0  0999 V2000
    8.3622   48.6179  132.1340 C   0  0  0  0  0  0  0  0  0  0  0  0
    8.5867   48.0485  130.9163 C   0  0  0  0  0  0  0  0  0  0  0  0
    8.2792   48.5983  129.6749 C   0  0  0  0  0  0  0  0  0  0  0  0
    7.6814   49.8626  129.6963 C   0  0  0  0  0  0  0  0  0  0  0  0
    7.4424   50.4595  130.9429 C   0  0  0  0  0  0  0  0  0  0  0  0
    7.7728   49.8536  132.0863 N   0  0  0  0  0  0  0  0  0  0  0  0
   10.7981   44.8535  134.7784 C   0  0  0  0  0  0  0  0  0  0  0  0
   10.7312   45.0724  133.4269 C   0  0  0  0  0  0  0  0  0  0  0  0
   10.0381   46.1217  132.9808 N   0  0  0  0  0  0  0  0  0  0  0  0
    9.4031   46.9764  133.7666 N   0  0  0  0  0  0  0  0  0  0  0  0
    8.6876   48.0439  133.4328 C   0  0  0  0  0  0  0  0  0  0  0  0
    8.2368   48.5902  134.6418 C   0  0  0  0  0  0  0  0  0  0  0  0
    8.7075   47.8160  135.6727 C   0  0  0  0  0  0  0  0  0  0  0  0
    9.4516   46.7882  135.0949 C   0  0  0  0  0  0  0  0  0  0  0  0
   10.1478   45.7267  135.6230 C   0  0  0  0  0  0  0  0  0  0  0  0
   12.1276   42.8206  135.6756 N   0  0  0  0  0  0  0  0  0  0  0  0
   11.5332   43.7292  135.2703 C   0  0  0  0  0  0  0  0  0  0  0  0
    7.3963   50.5928  128.4892 C   0  0  0  0  0  0  0  0  0  0  0  0
    7.2166   49.9546  127.3943 O   0  0  0  0  0  0  0  0  0  0  0  0
    7.2965   51.9954  128.4273 N   0  0  0  0  0  0  0  0  0  0  0  0
    7.4244   52.5575  129.2881 H   0  0  0  0  0  0  0  0  0  0  0  0
    7.0084   52.6130  127.1417 C   0  0  0  0  0  0  0  0  0  0  0  0
    5.8989   53.6373  127.3994 C   0  0  0  0  0  0  0  0  0  0  0  0
    5.6958   54.4660  126.1362 C   0  0  0  0  0  0  0  0  0  0  0  0
    6.9159   55.3963  126.0648 C   0  0  0  0  0  0  0  0  0  0  0  0
    8.1059   54.7805  126.7148 C   0  0  0  0  0  0  0  0  0  0  0  0
    8.1596   53.2627  126.4730 C   0  0  0  0  0  0  0  0  0  0  0  0
    7.1778   55.6329  124.6526 N   0  0  0  0  0  0  0  0  0  0  0  0
    8.3509   56.3141  124.2672 C   0  0  0  0  0  0  0  0  0  0  0  0
    9.1699   56.7238  125.1536 O   0  0  0  0  0  0  0  0  0  0  0  0
    6.5149   55.3039  123.9304 H   0  0  0  0  0  0  0  0  0  0  0  0
    8.6461   56.5617  122.8444 C   0  0  0  0  0  0  0  0  0  0  0  0
    8.3206   55.5545  121.8329 C   0  0  0  0  0  0  0  0  0  0  0  0
    9.7347   55.6094  122.3101 C   0  0  0  0  0  0  0  0  0  0  0  0
    8.4530   47.8428  128.5146 N   0  0  0  0  0  0  0  0  0  0  0  0
    8.1394   48.2049  127.5883 H   0  0  0  0  0  0  0  0  0  0  0  0
    8.9970   46.5424  128.4938 C   0  0  0  0  0  0  0  0  0  0  0  0
   10.3081   46.2396  128.1036 C   0  0  0  0  0  0  0  0  0  0  0  0
   10.7819   44.9530  128.1021 C   0  0  0  0  0  0  0  0  0  0  0  0
    9.9488   43.9319  128.4935 C   0  0  0  0  0  0  0  0  0  0  0  0
    8.6850   44.1865  128.8730 N   0  0  0  0  0  0  0  0  0  0  0  0
    8.2288   45.4394  128.8736 C   0  0  0  0  0  0  0  0  0  0  0  0
 16 17  3  0  0  0
 17  7  1  0  0  0
  7  8  1  0  0  0
  8  9  2  0  0  0
  9 10  1  0  0  0
 10 11  1  0  0  0
 11  1  1  0  0  0
  1  2  2  0  0  0
  2  3  1  0  0  0
  3 35  1  0  0  0
 35 37  1  0  0  0
 37 38  2  0  0  0
 38 39  1  0  0  0
 39 40  2  0  0  0
 40 41  1  0  0  0
 41 42  2  0  0  0
  3  4  2  0  0  0
  4 18  1  0  0  0
 18 19  2  0  0  0
 18 20  1  0  0  0
 20 22  1  0  0  0
 22 23  1  0  0  0
 23 24  1  0  0  0
 24 25  1  0  0  0
 25 28  1  0  0  0
 28 29  1  0  0  0
 29 30  2  0  0  0
 29 32  1  0  0  0
 32 33  1  0  0  0
 33 34  1  0  0  0
 25 26  1  0  0  0
 26 27  1  0  0  0
  4  5  1  0  0  0
  5  6  2  0  0  0
 11 12  2  0  0  0
 12 13  1  0  0  0
 13 14  2  0  0  0
 14 15  1  0  0  0
 15  7  2  0  0  0
 14 10  1  0  0  0
  6  1  1  0  0  0
 42 37  1  0  0  0
 27 22  1  0  0  0
 34 32  1  0  0  0
 35 36  1  0  0  0
 20 21  1  0  0  0
 28 31  1  0  0  0
M  END
> <minimizedAffinity>
8.72221

> <CNNscore>
0.3944622874

> <CNNaffinity>
7.6069579124

> <CNN_VS>
3.0006580353

> <CNNaffinity_variance>
0.4977246225

$$$$
[H]c1nc([H])c(N([H])c2c([H])c(-c3c([H])c([H])c4c([H])c(C#N)c([H])nn34)nc([H])c2C(=O)N([H])[C@]2([H])C([H])([H])C([H])([H])[C@@]([H])(N([H])C(=O)C3([H])C([H])([H])C3([H])[H])C([H])([H])C2([H])[H])c([H])c1[H]


 42 47  0  0  0  0  0  0  0  0999 V2000
    9.6626   44.8003  130.6009 C   0  0  0  0  0  0  0  0  0  0  0  0
    9.3315   45.8123  131.4516 C   0  0  0  0  0  0  0  0  0  0  0  0
    8.7272   47.0187  131.1091 C   0  0  0  0  0  0  0  0  0  0  0  0
    8.4362   47.1944  129.7524 C   0  0  0  0  0  0  0  0  0  0  0  0
    8.7737   46.1617  128.8652 C   0  0  0  0  0  0  0  0  0  0  0  0
    9.3537   45.0352  129.2871 N   0  0  0  0  0  0  0  0  0  0  0  0
    9.4892   39.6019  130.3950 C   0  0  0  0  0  0  0  0  0  0  0  0
    8.6248   40.5287  129.8728 C   0  0  0  0  0  0  0  0  0  0  0  0
    8.8863   41.8243  130.0564 N   0  0  0  0  0  0  0  0  0  0  0  0
    9.9383   42.2797  130.7173 N   0  0  0  0  0  0  0  0  0  0  0  0
   10.2915   43.5364  130.9602 C   0  0  0  0  0  0  0  0  0  0  0  0
   11.4798   43.4593  131.6986 C   0  0  0  0  0  0  0  0  0  0  0  0
   11.7998   42.1361  131.8734 C   0  0  0  0  0  0  0  0  0  0  0  0
   10.8031   41.3955  131.2393 C   0  0  0  0  0  0  0  0  0  0  0  0
   10.5947   40.0449  131.0880 C   0  0  0  0  0  0  0  0  0  0  0  0
    9.0021   37.0815  130.0546 N   0  0  0  0  0  0  0  0  0  0  0  0
    9.2183   38.2094  130.2105 C   0  0  0  0  0  0  0  0  0  0  0  0
    7.7266   48.3487  129.2671 C   0  0  0  0  0  0  0  0  0  0  0  0
    7.3553   48.3913  128.0429 O   0  0  0  0  0  0  0  0  0  0  0  0
    7.4023   49.4616  130.0654 N   0  0  0  0  0  0  0  0  0  0  0  0
    7.6724   49.4720  131.0656 H   0  0  0  0  0  0  0  0  0  0  0  0
    6.6857   50.5690  129.4512 C   0  0  0  0  0  0  0  0  0  0  0  0
    7.1920   51.8398  130.1407 C   0  0  0  0  0  0  0  0  0  0  0  0
    6.6360   53.0515  129.4016 C   0  0  0  0  0  0  0  0  0  0  0  0
    7.4278   53.1193  128.0873 C   0  0  0  0  0  0  0  0  0  0  0  0
    7.8823   51.7677  127.6579 C   0  0  0  0  0  0  0  0  0  0  0  0
    6.8343   50.6898  127.9823 C   0  0  0  0  0  0  0  0  0  0  0  0
    6.5340   53.6917  127.0911 N   0  0  0  0  0  0  0  0  0  0  0  0
    7.0289   54.6468  126.1792 C   0  0  0  0  0  0  0  0  0  0  0  0
    8.2499   55.0083  126.2355 O   0  0  0  0  0  0  0  0  0  0  0  0
    5.5424   53.4026  127.0433 H   0  0  0  0  0  0  0  0  0  0  0  0
    6.1491   55.2383  125.1550 C   0  0  0  0  0  0  0  0  0  0  0  0
    6.1996   54.7648  123.7706 C   0  0  0  0  0  0  0  0  0  0  0  0
    6.9493   56.0160  124.0910 C   0  0  0  0  0  0  0  0  0  0  0  0
    8.5622   48.0149  132.0724 N   0  0  0  0  0  0  0  0  0  0  0  0
    8.3460   48.9967  131.7952 H   0  0  0  0  0  0  0  0  0  0  0  0
    8.7227   47.8074  133.4576 C   0  0  0  0  0  0  0  0  0  0  0  0
    8.8904   48.8333  134.3969 C   0  0  0  0  0  0  0  0  0  0  0  0
    9.0440   48.5701  135.7336 C   0  0  0  0  0  0  0  0  0  0  0  0
    9.0337   47.2647  136.1648 C   0  0  0  0  0  0  0  0  0  0  0  0
    8.8761   46.2561  135.2909 N   0  0  0  0  0  0  0  0  0  0  0  0
    8.7263   46.5169  133.9919 C   0  0  0  0  0  0  0  0  0  0  0  0
 16 17  3  0  0  0
 17  7  1  0  0  0
  7  8  1  0  0  0
  8  9  2  0  0  0
  9 10  1  0  0  0
 10 11  1  0  0  0
 11  1  1  0  0  0
  1  2  2  0  0  0
  2  3  1  0  0  0
  3 35  1  0  0  0
 35 37  1  0  0  0
 37 38  2  0  0  0
 38 39  1  0  0  0
 39 40  2  0  0  0
 40 41  1  0  0  0
 41 42  2  0  0  0
  3  4  2  0  0  0
  4 18  1  0  0  0
 18 19  2  0  0  0
 18 20  1  0  0  0
 20 22  1  0  0  0
 22 23  1  0  0  0
 23 24  1  0  0  0
 24 25  1  0  0  0
 25 28  1  0  0  0
 28 29  1  0  0  0
 29 30  2  0  0  0
 29 32  1  0  0  0
 32 33  1  0  0  0
 33 34  1  0  0  0
 25 26  1  0  0  0
 26 27  1  0  0  0
  4  5  1  0  0  0
  5  6  2  0  0  0
 11 12  2  0  0  0
 12 13  1  0  0  0
 13 14  2  0  0  0
 14 15  1  0  0  0
 15  7  2  0  0  0
 14 10  1  0  0  0
  6  1  1  0  0  0
 42 37  1  0  0  0
 27 22  1  0  0  0
 34 32  1  0  0  0
 35 36  1  0  0  0
 20 21  1  0  0  0
 28 31  1  0  0  0
M  END
> <minimizedAffinity>
27.71973

> <CNNscore>
0.3938707709

> <CNNaffinity>
7.5277848244

> <CNN_VS>
2.9649744034

> <CNNaffinity_variance>
0.6162859201

$$$$
[H]c1nc([H])c(N([H])c2c([H])c(-c3c([H])c([H])c4c([H])c(C#N)c([H])nn34)nc([H])c2C(=O)N([H])[C@]2([H])C([H])([H])C([H])([H])[C@@]([H])(N([H])C(=O)C3([H])C([H])([H])C3([H])[H])C([H])([H])C2([H])[H])c([H])c1[H]


 42 47  0  0  0  0  0  0  0  0999 V2000
    7.9207   46.6302  130.9971 C   0  0  0  0  0  0  0  0  0  0  0  0
    8.3416   47.9097  131.2046 C   0  0  0  0  0  0  0  0  0  0  0  0
    8.1277   48.9990  130.3646 C   0  0  0  0  0  0  0  0  0  0  0  0
    7.4061   48.7382  129.1953 C   0  0  0  0  0  0  0  0  0  0  0  0
    6.9686   47.4251  128.9678 C   0  0  0  0  0  0  0  0  0  0  0  0
    7.2222   46.4407  129.8340 N   0  0  0  0  0  0  0  0  0  0  0  0
   10.4167   42.1354  131.8118 C   0  0  0  0  0  0  0  0  0  0  0  0
   10.4985   43.0039  130.7545 C   0  0  0  0  0  0  0  0  0  0  0  0
    9.7516   44.1094  130.7735 N   0  0  0  0  0  0  0  0  0  0  0  0
    8.9268   44.4274  131.7582 N   0  0  0  0  0  0  0  0  0  0  0  0
    8.1413   45.4912  131.8782 C   0  0  0  0  0  0  0  0  0  0  0  0
    7.4793   45.3362  133.1034 C   0  0  0  0  0  0  0  0  0  0  0  0
    7.9005   44.1650  133.6817 C   0  0  0  0  0  0  0  0  0  0  0  0
    8.8262   43.5965  132.8077 C   0  0  0  0  0  0  0  0  0  0  0  0
    9.5671   42.4392  132.8532 C   0  0  0  0  0  0  0  0  0  0  0  0
   11.8538   39.9815  131.7908 N   0  0  0  0  0  0  0  0  0  0  0  0
   11.2077   40.9435  131.8021 C   0  0  0  0  0  0  0  0  0  0  0  0
    7.0279   49.7845  128.2821 C   0  0  0  0  0  0  0  0  0  0  0  0
    6.4224   49.4838  127.1953 O   0  0  0  0  0  0  0  0  0  0  0  0
    7.2817   51.1505  128.5076 N   0  0  0  0  0  0  0  0  0  0  0  0
    7.7609   51.4468  129.3771 H   0  0  0  0  0  0  0  0  0  0  0  0
    6.8521   52.1098  127.5016 C   0  0  0  0  0  0  0  0  0  0  0  0
    6.7462   53.4601  128.2172 C   0  0  0  0  0  0  0  0  0  0  0  0
    6.5031   54.5471  127.1765 C   0  0  0  0  0  0  0  0  0  0  0  0
    7.8486   54.7235  126.4571 C   0  0  0  0  0  0  0  0  0  0  0  0
    8.6372   53.4602  126.4650 C   0  0  0  0  0  0  0  0  0  0  0  0
    7.7305   52.2272  126.3145 C   0  0  0  0  0  0  0  0  0  0  0  0
    7.5419   55.1187  125.0901 N   0  0  0  0  0  0  0  0  0  0  0  0
    8.3190   56.1143  124.4627 C   0  0  0  0  0  0  0  0  0  0  0  0
    9.2782   56.6662  125.0950 O   0  0  0  0  0  0  0  0  0  0  0  0
    6.7633   54.6748  124.5743 H   0  0  0  0  0  0  0  0  0  0  0  0
    8.0363   56.5298  123.0770 C   0  0  0  0  0  0  0  0  0  0  0  0
    8.1369   55.5670  121.9786 C   0  0  0  0  0  0  0  0  0  0  0  0
    9.2994   56.4795  122.1940 C   0  0  0  0  0  0  0  0  0  0  0  0
    8.7280   50.2267  130.6472 N   0  0  0  0  0  0  0  0  0  0  0  0
    8.7798   50.9762  129.9239 H   0  0  0  0  0  0  0  0  0  0  0  0
    9.3491   50.5375  131.8741 C   0  0  0  0  0  0  0  0  0  0  0  0
    9.2497   51.7772  132.5193 C   0  0  0  0  0  0  0  0  0  0  0  0
    9.8788   52.0223  133.7126 C   0  0  0  0  0  0  0  0  0  0  0  0
   10.6276   51.0257  134.2923 C   0  0  0  0  0  0  0  0  0  0  0  0
   10.7451   49.8251  133.7002 N   0  0  0  0  0  0  0  0  0  0  0  0
   10.1309   49.5910  132.5401 C   0  0  0  0  0  0  0  0  0  0  0  0
 16 17  3  0  0  0
 17  7  1  0  0  0
  7  8  1  0  0  0
  8  9  2  0  0  0
  9 10  1  0  0  0
 10 11  1  0  0  0
 11  1  1  0  0  0
  1  2  2  0  0  0
  2  3  1  0  0  0
  3 35  1  0  0  0
 35 37  1  0  0  0
 37 38  2  0  0  0
 38 39  1  0  0  0
 39 40  2  0  0  0
 40 41  1  0  0  0
 41 42  2  0  0  0
  3  4  2  0  0  0
  4 18  1  0  0  0
 18 19  2  0  0  0
 18 20  1  0  0  0
 20 22  1  0  0  0
 22 23  1  0  0  0
 23 24  1  0  0  0
 24 25  1  0  0  0
 25 28  1  0  0  0
 28 29  1  0  0  0
 29 30  2  0  0  0
 29 32  1  0  0  0
 32 33  1  0  0  0
 33 34  1  0  0  0
 25 26  1  0  0  0
 26 27  1  0  0  0
  4  5  1  0  0  0
  5  6  2  0  0  0
 11 12  2  0  0  0
 12 13  1  0  0  0
 13 14  2  0  0  0
 14 15  1  0  0  0
 15  7  2  0  0  0
 14 10  1  0  0  0
  6  1  1  0  0  0
 42 37  1  0  0  0
 27 22  1  0  0  0
 34 32  1  0  0  0
 35 36  1  0  0  0
 20 21  1  0  0  0
 28 31  1  0  0  0
M  END
> <minimizedAffinity>
18.18572

> <CNNscore>
0.3807974756

> <CNNaffinity>
7.2843766212

> <CNN_VS>
2.7738721371

> <CNNaffinity_variance>
0.7708784938

$$$$
[H]c1nc([H])c(N([H])c2c([H])c(-c3c([H])c([H])c4c([H])c(C#N)c([H])nn34)nc([H])c2C(=O)N([H])[C@]2([H])C([H])([H])C([H])([H])[C@@]([H])(N([H])C(=O)C3([H])C([H])([H])C3([H])[H])C([H])([H])C2([H])[H])c([H])c1[H]


 42 47  0  0  0  0  0  0  0  0999 V2000
    8.8945   48.3996  132.1589 C   0  0  0  0  0  0  0  0  0  0  0  0
    8.9246   47.8185  130.9265 C   0  0  0  0  0  0  0  0  0  0  0  0
    8.4580   48.3722  129.7375 C   0  0  0  0  0  0  0  0  0  0  0  0
    7.9068   49.6541  129.8338 C   0  0  0  0  0  0  0  0  0  0  0  0
    7.8674   50.2632  131.0967 C   0  0  0  0  0  0  0  0  0  0  0  0
    8.3410   49.6524  132.1858 N   0  0  0  0  0  0  0  0  0  0  0  0
   12.5397   48.4439  135.8748 C   0  0  0  0  0  0  0  0  0  0  0  0
   12.4135   49.2339  134.7618 C   0  0  0  0  0  0  0  0  0  0  0  0
   11.3767   49.0321  133.9464 N   0  0  0  0  0  0  0  0  0  0  0  0
   10.4499   48.1084  134.1437 N   0  0  0  0  0  0  0  0  0  0  0  0
    9.3865   47.8215  133.4023 C   0  0  0  0  0  0  0  0  0  0  0  0
    8.7434   46.7626  134.0571 C   0  0  0  0  0  0  0  0  0  0  0  0
    9.4582   46.4495  135.1862 C   0  0  0  0  0  0  0  0  0  0  0  0
   10.5465   47.3201  135.2260 C   0  0  0  0  0  0  0  0  0  0  0  0
   11.5899   47.4732  136.1082 C   0  0  0  0  0  0  0  0  0  0  0  0
   14.5443   48.8068  137.4732 N   0  0  0  0  0  0  0  0  0  0  0  0
   13.6493   48.6455  136.7547 C   0  0  0  0  0  0  0  0  0  0  0  0
    7.4726   50.3875  128.6740 C   0  0  0  0  0  0  0  0  0  0  0  0
    7.1428   49.7514  127.6134 O   0  0  0  0  0  0  0  0  0  0  0  0
    7.3807   51.7911  128.6240 N   0  0  0  0  0  0  0  0  0  0  0  0
    7.6274   52.3517  129.4596 H   0  0  0  0  0  0  0  0  0  0  0  0
    6.9320   52.4120  127.3870 C   0  0  0  0  0  0  0  0  0  0  0  0
    6.1871   53.6868  127.7951 C   0  0  0  0  0  0  0  0  0  0  0  0
    5.8723   54.4921  126.5396 C   0  0  0  0  0  0  0  0  0  0  0  0
    7.2163   55.0900  126.0976 C   0  0  0  0  0  0  0  0  0  0  0  0
    8.3562   54.2250  126.5099 C   0  0  0  0  0  0  0  0  0  0  0  0
    7.9981   52.7327  126.4098 C   0  0  0  0  0  0  0  0  0  0  0  0
    7.1661   55.2017  124.6471 N   0  0  0  0  0  0  0  0  0  0  0  0
    8.3639   55.1592  123.9042 C   0  0  0  0  0  0  0  0  0  0  0  0
    9.4812   55.0305  124.5039 O   0  0  0  0  0  0  0  0  0  0  0  0
    6.2619   55.3082  124.1568 H   0  0  0  0  0  0  0  0  0  0  0  0
    8.3434   55.2628  122.4339 C   0  0  0  0  0  0  0  0  0  0  0  0
    9.4329   55.9335  121.7221 C   0  0  0  0  0  0  0  0  0  0  0  0
    8.1885   56.7230  121.9637 C   0  0  0  0  0  0  0  0  0  0  0  0
    8.4406   47.6069  128.5707 N   0  0  0  0  0  0  0  0  0  0  0  0
    7.9989   47.9704  127.6988 H   0  0  0  0  0  0  0  0  0  0  0  0
    8.9495   46.2952  128.4798 C   0  0  0  0  0  0  0  0  0  0  0  0
   10.2346   45.9753  128.0227 C   0  0  0  0  0  0  0  0  0  0  0  0
   10.6744   44.6785  127.9545 C   0  0  0  0  0  0  0  0  0  0  0  0
    9.8324   43.6642  128.3446 C   0  0  0  0  0  0  0  0  0  0  0  0
    8.5929   43.9353  128.7872 N   0  0  0  0  0  0  0  0  0  0  0  0
    8.1697   45.1980  128.8525 C   0  0  0  0  0  0  0  0  0  0  0  0
 16 17  3  0  0  0
 17  7  1  0  0  0
  7  8  1  0  0  0
  8  9  2  0  0  0
  9 10  1  0  0  0
 10 11  1  0  0  0
 11  1  1  0  0  0
  1  2  2  0  0  0
  2  3  1  0  0  0
  3 35  1  0  0  0
 35 37  1  0  0  0
 37 38  2  0  0  0
 38 39  1  0  0  0
 39 40  2  0  0  0
 40 41  1  0  0  0
 41 42  2  0  0  0
  3  4  2  0  0  0
  4 18  1  0  0  0
 18 19  2  0  0  0
 18 20  1  0  0  0
 20 22  1  0  0  0
 22 23  1  0  0  0
 23 24  1  0  0  0
 24 25  1  0  0  0
 25 28  1  0  0  0
 28 29  1  0  0  0
 29 30  2  0  0  0
 29 32  1  0  0  0
 32 33  1  0  0  0
 33 34  1  0  0  0
 25 26  1  0  0  0
 26 27  1  0  0  0
  4  5  1  0  0  0
  5  6  2  0  0  0
 11 12  2  0  0  0
 12 13  1  0  0  0
 13 14  2  0  0  0
 14 15  1  0  0  0
 15  7  2  0  0  0
 14 10  1  0  0  0
  6  1  1  0  0  0
 42 37  1  0  0  0
 27 22  1  0  0  0
 34 32  1  0  0  0
 35 36  1  0  0  0
 20 21  1  0  0  0
 28 31  1  0  0  0
M  END
> <minimizedAffinity>
17.35435

> <CNNscore>
0.3743143976

> <CNNaffinity>
7.4331727028

> <CNN_VS>
2.7823436260

> <CNNaffinity_variance>
0.4098806381

$$$$
[H]c1nc([H])c(N([H])c2c([H])c(-c3c([H])c([H])c4c([H])c(C#N)c([H])nn34)nc([H])c2C(=O)N([H])[C@]2([H])C([H])([H])C([H])([H])[C@@]([H])(N([H])C(=O)C3([H])C([H])([H])C3([H])[H])C([H])([H])C2([H])[H])c([H])c1[H]


 42 47  0  0  0  0  0  0  0  0999 V2000
   11.1993   44.1075  131.6027 C   0  0  0  0  0  0  0  0  0  0  0  0
   11.2503   45.0125  132.6205 C   0  0  0  0  0  0  0  0  0  0  0  0
   12.1122   44.9831  133.7132 C   0  0  0  0  0  0  0  0  0  0  0  0
   13.0104   43.9119  133.7561 C   0  0  0  0  0  0  0  0  0  0  0  0
   12.9673   42.9716  132.7162 C   0  0  0  0  0  0  0  0  0  0  0  0
   12.1023   43.0824  131.7048 N   0  0  0  0  0  0  0  0  0  0  0  0
    7.3047   46.5440  129.1547 C   0  0  0  0  0  0  0  0  0  0  0  0
    7.9424   46.8667  130.3243 C   0  0  0  0  0  0  0  0  0  0  0  0
    8.9289   46.0783  130.7555 N   0  0  0  0  0  0  0  0  0  0  0  0
    9.3380   44.9918  130.1204 N   0  0  0  0  0  0  0  0  0  0  0  0
   10.2998   44.1407  130.4572 C   0  0  0  0  0  0  0  0  0  0  0  0
   10.3185   43.1715  129.4455 C   0  0  0  0  0  0  0  0  0  0  0  0
    9.3504   43.4838  128.5242 C   0  0  0  0  0  0  0  0  0  0  0  0
    8.7329   44.6511  128.9716 C   0  0  0  0  0  0  0  0  0  0  0  0
    7.7086   45.4187  128.4697 C   0  0  0  0  0  0  0  0  0  0  0  0
    5.3794   48.0548  128.3085 N   0  0  0  0  0  0  0  0  0  0  0  0
    6.2417   47.3773  128.6835 C   0  0  0  0  0  0  0  0  0  0  0  0
   14.0222   43.8041  134.7741 C   0  0  0  0  0  0  0  0  0  0  0  0
   14.3566   44.8432  135.4424 O   0  0  0  0  0  0  0  0  0  0  0  0
   14.6850   42.6049  135.0958 N   0  0  0  0  0  0  0  0  0  0  0  0
   14.4437   41.7334  134.5900 H   0  0  0  0  0  0  0  0  0  0  0  0
   15.6940   42.6311  136.1438 C   0  0  0  0  0  0  0  0  0  0  0  0
   15.4793   43.9399  136.9102 C   0  0  0  0  0  0  0  0  0  0  0  0
   16.3673   43.9321  138.1493 C   0  0  0  0  0  0  0  0  0  0  0  0
   15.7034   42.9381  139.1138 C   0  0  0  0  0  0  0  0  0  0  0  0
   14.9531   41.8849  138.3752 C   0  0  0  0  0  0  0  0  0  0  0  0
   15.6745   41.4817  137.0781 C   0  0  0  0  0  0  0  0  0  0  0  0
   16.7738   42.3396  139.8979 N   0  0  0  0  0  0  0  0  0  0  0  0
   18.0617   42.2157  139.3368 C   0  0  0  0  0  0  0  0  0  0  0  0
   18.2802   42.6204  138.1481 O   0  0  0  0  0  0  0  0  0  0  0  0
   16.6002   42.0082  140.8619 H   0  0  0  0  0  0  0  0  0  0  0  0
   19.1668   41.6204  140.1096 C   0  0  0  0  0  0  0  0  0  0  0  0
   19.4588   40.1896  140.0049 C   0  0  0  0  0  0  0  0  0  0  0  0
   18.6534   40.6369  141.1804 C   0  0  0  0  0  0  0  0  0  0  0  0
   11.9638   45.9117  134.7444 N   0  0  0  0  0  0  0  0  0  0  0  0
   12.6864   46.0025  135.4908 H   0  0  0  0  0  0  0  0  0  0  0  0
   10.8368   46.7443  134.9002 C   0  0  0  0  0  0  0  0  0  0  0  0
    9.7838   46.4920  135.7892 C   0  0  0  0  0  0  0  0  0  0  0  0
    8.7108   47.3386  135.8961 C   0  0  0  0  0  0  0  0  0  0  0  0
    8.6658   48.4656  135.1101 C   0  0  0  0  0  0  0  0  0  0  0  0
    9.6583   48.7378  134.2460 N   0  0  0  0  0  0  0  0  0  0  0  0
   10.7003   47.9119  134.1459 C   0  0  0  0  0  0  0  0  0  0  0  0
 16 17  3  0  0  0
 17  7  1  0  0  0
  7  8  1  0  0  0
  8  9  2  0  0  0
  9 10  1  0  0  0
 10 11  1  0  0  0
 11  1  1  0  0  0
  1  2  2  0  0  0
  2  3  1  0  0  0
  3 35  1  0  0  0
 35 37  1  0  0  0
 37 38  2  0  0  0
 38 39  1  0  0  0
 39 40  2  0  0  0
 40 41  1  0  0  0
 41 42  2  0  0  0
  3  4  2  0  0  0
  4 18  1  0  0  0
 18 19  2  0  0  0
 18 20  1  0  0  0
 20 22  1  0  0  0
 22 23  1  0  0  0
 23 24  1  0  0  0
 24 25  1  0  0  0
 25 28  1  0  0  0
 28 29  1  0  0  0
 29 30  2  0  0  0
 29 32  1  0  0  0
 32 33  1  0  0  0
 33 34  1  0  0  0
 25 26  1  0  0  0
 26 27  1  0  0  0
  4  5  1  0  0  0
  5  6  2  0  0  0
 11 12  2  0  0  0
 12 13  1  0  0  0
 13 14  2  0  0  0
 14 15  1  0  0  0
 15  7  2  0  0  0
 14 10  1  0  0  0
  6  1  1  0  0  0
 42 37  1  0  0  0
 27 22  1  0  0  0
 34 32  1  0  0  0
 35 36  1  0  0  0
 20 21  1  0  0  0
 28 31  1  0  0  0
M  END
> <minimizedAffinity>
26.84409

> <CNNscore>
0.3740160465

> <CNNaffinity>
7.5168952942

> <CNN_VS>
2.8114395142

> <CNNaffinity_variance>
0.7285876274

$$$$
[H]c1nc([H])c(N([H])c2c([H])c(-c3c([H])c([H])c4c([H])c(C#N)c([H])nn34)nc([H])c2C(=O)N([H])[C@]2([H])C([H])([H])C([H])([H])[C@@]([H])(N([H])C(=O)C3([H])C([H])([H])C3([H])[H])C([H])([H])C2([H])[H])c([H])c1[H]


 42 47  0  0  0  0  0  0  0  0999 V2000
    9.7429   47.5302  130.4330 C   0  0  0  0  0  0  0  0  0  0  0  0
    8.6761   47.4820  129.5862 C   0  0  0  0  0  0  0  0  0  0  0  0
    7.8825   48.5553  129.1910 C   0  0  0  0  0  0  0  0  0  0  0  0
    8.2278   49.8013  129.7243 C   0  0  0  0  0  0  0  0  0  0  0  0
    9.3223   49.8651  130.5992 C   0  0  0  0  0  0  0  0  0  0  0  0
   10.0275   48.7779  130.9219 N   0  0  0  0  0  0  0  0  0  0  0  0
   11.2539   44.3677  134.2816 C   0  0  0  0  0  0  0  0  0  0  0  0
   10.3517   45.3995  134.2987 C   0  0  0  0  0  0  0  0  0  0  0  0
   10.1256   46.0723  133.1688 N   0  0  0  0  0  0  0  0  0  0  0  0
   10.7220   45.8061  132.0179 N   0  0  0  0  0  0  0  0  0  0  0  0
   10.5756   46.4075  130.8433 C   0  0  0  0  0  0  0  0  0  0  0  0
   11.4379   45.7376  129.9652 C   0  0  0  0  0  0  0  0  0  0  0  0
   12.0798   44.7423  130.6588 C   0  0  0  0  0  0  0  0  0  0  0  0
   11.6099   44.8004  131.9702 C   0  0  0  0  0  0  0  0  0  0  0  0
   11.8910   44.0654  133.0978 C   0  0  0  0  0  0  0  0  0  0  0  0
   11.7156   43.0584  136.4675 N   0  0  0  0  0  0  0  0  0  0  0  0
   11.5101   43.6413  135.4870 C   0  0  0  0  0  0  0  0  0  0  0  0
    7.5573   51.0126  129.3308 C   0  0  0  0  0  0  0  0  0  0  0  0
    6.6439   51.5001  130.0834 O   0  0  0  0  0  0  0  0  0  0  0  0
    7.8446   51.7178  128.1470 N   0  0  0  0  0  0  0  0  0  0  0  0
    8.5823   51.3695  127.5083 H   0  0  0  0  0  0  0  0  0  0  0  0
    7.0897   52.9285  127.8618 C   0  0  0  0  0  0  0  0  0  0  0  0
    8.1107   54.0700  127.8285 C   0  0  0  0  0  0  0  0  0  0  0  0
    7.4167   55.3320  127.3289 C   0  0  0  0  0  0  0  0  0  0  0  0
    7.2081   55.1075  125.8239 C   0  0  0  0  0  0  0  0  0  0  0  0
    7.0702   53.6591  125.5058 C   0  0  0  0  0  0  0  0  0  0  0  0
    6.3021   52.9095  126.6073 C   0  0  0  0  0  0  0  0  0  0  0  0
    5.9933   55.8222  125.4600 N   0  0  0  0  0  0  0  0  0  0  0  0
    5.2576   55.4128  124.3287 C   0  0  0  0  0  0  0  0  0  0  0  0
    5.6614   54.4271  123.6288 O   0  0  0  0  0  0  0  0  0  0  0  0
    5.6634   56.6236  126.0240 H   0  0  0  0  0  0  0  0  0  0  0  0
    4.0200   56.1129  123.9403 C   0  0  0  0  0  0  0  0  0  0  0  0
    3.1623   56.7233  124.9578 C   0  0  0  0  0  0  0  0  0  0  0  0
    2.7622   55.3784  124.4463 C   0  0  0  0  0  0  0  0  0  0  0  0
    6.7439   48.3331  128.4153 N   0  0  0  0  0  0  0  0  0  0  0  0
    6.7634   48.4774  127.3826 H   0  0  0  0  0  0  0  0  0  0  0  0
    5.4903   47.9612  128.9423 C   0  0  0  0  0  0  0  0  0  0  0  0
    5.1300   46.6489  129.2755 C   0  0  0  0  0  0  0  0  0  0  0  0
    3.8931   46.3469  129.7838 C   0  0  0  0  0  0  0  0  0  0  0  0
    2.9809   47.3582  129.9715 C   0  0  0  0  0  0  0  0  0  0  0  0
    3.2928   48.6280  129.6617 N   0  0  0  0  0  0  0  0  0  0  0  0
    4.4973   48.9171  129.1684 C   0  0  0  0  0  0  0  0  0  0  0  0
 16 17  3  0  0  0
 17  7  1  0  0  0
  7  8  1  0  0  0
  8  9  2  0  0  0
  9 10  1  0  0  0
 10 11  1  0  0  0
 11  1  1  0  0  0
  1  2  2  0  0  0
  2  3  1  0  0  0
  3 35  1  0  0  0
 35 37  1  0  0  0
 37 38  2  0  0  0
 38 39  1  0  0  0
 39 40  2  0  0  0
 40 41  1  0  0  0
 41 42  2  0  0  0
  3  4  2  0  0  0
  4 18  1  0  0  0
 18 19  2  0  0  0
 18 20  1  0  0  0
 20 22  1  0  0  0
 22 23  1  0  0  0
 23 24  1  0  0  0
 24 25  1  0  0  0
 25 28  1  0  0  0
 28 29  1  0  0  0
 29 30  2  0  0  0
 29 32  1  0  0  0
 32 33  1  0  0  0
 33 34  1  0  0  0
 25 26  1  0  0  0
 26 27  1  0  0  0
  4  5  1  0  0  0
  5  6  2  0  0  0
 11 12  2  0  0  0
 12 13  1  0  0  0
 13 14  2  0  0  0
 14 15  1  0  0  0
 15  7  2  0  0  0
 14 10  1  0  0  0
  6  1  1  0  0  0
 42 37  1  0  0  0
 27 22  1  0  0  0
 34 32  1  0  0  0
 35 36  1  0  0  0
 20 21  1  0  0  0
 28 31  1  0  0  0
M  END
> <minimizedAffinity>
12.37235

> <CNNscore>
0.3584351242

> <CNNaffinity>
7.4580850601

> <CNN_VS>
2.6732397079

> <CNNaffinity_variance>
0.6201193929

$$$$
[H]c1nc([H])c(N([H])c2c([H])c(-c3c([H])c([H])c4c([H])c(C#N)c([H])nn34)nc([H])c2C(=O)N([H])[C@]2([H])C([H])([H])C([H])([H])[C@@]([H])(N([H])C(=O)C3([H])C([H])([H])C3([H])[H])C([H])([H])C2([H])[H])c([H])c1[H]


 42 47  0  0  0  0  0  0  0  0999 V2000
    9.4274   48.4689  131.4181 C   0  0  0  0  0  0  0  0  0  0  0  0
    8.5569   48.1877  130.4078 C   0  0  0  0  0  0  0  0  0  0  0  0
    7.8243   49.1090  129.6647 C   0  0  0  0  0  0  0  0  0  0  0  0
    8.0120   50.4539  129.9998 C   0  0  0  0  0  0  0  0  0  0  0  0
    8.9034   50.7576  131.0393 C   0  0  0  0  0  0  0  0  0  0  0  0
    9.5647   49.8028  131.6985 N   0  0  0  0  0  0  0  0  0  0  0  0
   10.9041   43.5152  132.0318 C   0  0  0  0  0  0  0  0  0  0  0  0
   10.0985   44.0772  131.0758 C   0  0  0  0  0  0  0  0  0  0  0  0
    9.8642   45.3899  131.1256 N   0  0  0  0  0  0  0  0  0  0  0  0
   10.3649   46.1957  132.0482 N   0  0  0  0  0  0  0  0  0  0  0  0
   10.1970   47.5048  132.1930 C   0  0  0  0  0  0  0  0  0  0  0  0
   10.9412   47.8585  133.3263 C   0  0  0  0  0  0  0  0  0  0  0  0
   11.5377   46.7282  133.8267 C   0  0  0  0  0  0  0  0  0  0  0  0
   11.1584   45.6739  132.9970 C   0  0  0  0  0  0  0  0  0  0  0  0
   11.4413   44.3284  133.0058 C   0  0  0  0  0  0  0  0  0  0  0  0
   11.3614   40.9672  131.9683 N   0  0  0  0  0  0  0  0  0  0  0  0
   11.1593   42.1081  131.9937 C   0  0  0  0  0  0  0  0  0  0  0  0
    7.3948   51.5196  129.2548 C   0  0  0  0  0  0  0  0  0  0  0  0
    6.3577   52.1011  129.7287 O   0  0  0  0  0  0  0  0  0  0  0  0
    7.8653   51.9804  128.0109 N   0  0  0  0  0  0  0  0  0  0  0  0
    8.7073   51.5489  127.5888 H   0  0  0  0  0  0  0  0  0  0  0  0
    7.1466   53.0633  127.3568 C   0  0  0  0  0  0  0  0  0  0  0  0
    7.9032   54.3491  127.7049 C   0  0  0  0  0  0  0  0  0  0  0  0
    7.3251   55.4944  126.8816 C   0  0  0  0  0  0  0  0  0  0  0  0
    7.8319   55.2575  125.4512 C   0  0  0  0  0  0  0  0  0  0  0  0
    8.0569   53.8089  125.1888 C   0  0  0  0  0  0  0  0  0  0  0  0
    7.0003   52.9373  125.8881 C   0  0  0  0  0  0  0  0  0  0  0  0
    6.8109   55.7803  124.5551 N   0  0  0  0  0  0  0  0  0  0  0  0
    5.4939   55.9559  125.0279 C   0  0  0  0  0  0  0  0  0  0  0  0
    5.2030   55.6510  126.2308 O   0  0  0  0  0  0  0  0  0  0  0  0
    7.0422   56.0271  123.5779 H   0  0  0  0  0  0  0  0  0  0  0  0
    4.4409   56.4901  124.1455 C   0  0  0  0  0  0  0  0  0  0  0  0
    3.0894   56.7212  124.6589 C   0  0  0  0  0  0  0  0  0  0  0  0
    3.3226   55.4581  123.8969 C   0  0  0  0  0  0  0  0  0  0  0  0
    6.8750   48.6653  128.7430 N   0  0  0  0  0  0  0  0  0  0  0  0
    7.0253   48.7888  127.7185 H   0  0  0  0  0  0  0  0  0  0  0  0
    5.6424   48.0810  129.0992 C   0  0  0  0  0  0  0  0  0  0  0  0
    5.4390   46.7053  129.2696 C   0  0  0  0  0  0  0  0  0  0  0  0
    4.2148   46.1940  129.6154 C   0  0  0  0  0  0  0  0  0  0  0  0
    3.1578   47.0534  129.7999 C   0  0  0  0  0  0  0  0  0  0  0  0
    3.3173   48.3785  129.6436 N   0  0  0  0  0  0  0  0  0  0  0  0
    4.5099   48.8713  129.3080 C   0  0  0  0  0  0  0  0  0  0  0  0
 16 17  3  0  0  0
 17  7  1  0  0  0
  7  8  1  0  0  0
  8  9  2  0  0  0
  9 10  1  0  0  0
 10 11  1  0  0  0
 11  1  1  0  0  0
  1  2  2  0  0  0
  2  3  1  0  0  0
  3 35  1  0  0  0
 35 37  1  0  0  0
 37 38  2  0  0  0
 38 39  1  0  0  0
 39 40  2  0  0  0
 40 41  1  0  0  0
 41 42  2  0  0  0
  3  4  2  0  0  0
  4 18  1  0  0  0
 18 19  2  0  0  0
 18 20  1  0  0  0
 20 22  1  0  0  0
 22 23  1  0  0  0
 23 24  1  0  0  0
 24 25  1  0  0  0
 25 28  1  0  0  0
 28 29  1  0  0  0
 29 30  2  0  0  0
 29 32  1  0  0  0
 32 33  1  0  0  0
 33 34  1  0  0  0
 25 26  1  0  0  0
 26 27  1  0  0  0
  4  5  1  0  0  0
  5  6  2  0  0  0
 11 12  2  0  0  0
 12 13  1  0  0  0
 13 14  2  0  0  0
 14 15  1  0  0  0
 15  7  2  0  0  0
 14 10  1  0  0  0
  6  1  1  0  0  0
 42 37  1  0  0  0
 27 22  1  0  0  0
 34 32  1  0  0  0
 35 36  1  0  0  0
 20 21  1  0  0  0
 28 31  1  0  0  0
M  END
> <minimizedAffinity>
10.36858

> <CNNscore>
0.3513188660

> <CNNaffinity>
7.6023344994

> <CNN_VS>
2.6708436012

> <CNNaffinity_variance>
0.6176209450

$$$$
[H]c1c([H])c([H])c(N2C(N3C([H])([H])C([H])([H])C([H])([H])C([H])([H])C3([H])[H])=Nc3c([H])c([H])c([H])c([H])c3C2([H])C([H])([H])C(=O)N([H])C([H])([H])c2c([H])c([H])c([H])c([H])c2[H])c([H])c1[H]


 34 38  0  0  0  0  0  0  0  0999 V2000
   10.4815   45.9540  131.0494 C   0  0  0  0  0  0  0  0  0  0  0  0
   11.1863   45.3643  129.9066 C   0  0  0  0  0  0  0  0  0  0  0  0
   12.4099   44.7313  129.9872 C   0  0  0  0  0  0  0  0  0  0  0  0
   12.9152   44.0864  128.8616 C   0  0  0  0  0  0  0  0  0  0  0  0
   12.2339   44.0611  127.6691 C   0  0  0  0  0  0  0  0  0  0  0  0
   11.0216   44.6896  127.5746 C   0  0  0  0  0  0  0  0  0  0  0  0
   10.4966   45.3503  128.7058 C   0  0  0  0  0  0  0  0  0  0  0  0
    9.3379   46.1563  128.5173 N   0  0  0  0  0  0  0  0  0  0  0  0
    8.9158   46.9360  129.4703 C   0  0  0  0  0  0  0  0  0  0  0  0
    9.6466   47.0490  130.6815 N   0  0  0  0  0  0  0  0  0  0  0  0
    7.7444   47.7112  129.2190 N   0  0  0  0  0  0  0  0  0  0  0  0
    6.5131   47.0274  128.9609 C   0  0  0  0  0  0  0  0  0  0  0  0
    5.3339   47.7632  129.6249 C   0  0  0  0  0  0  0  0  0  0  0  0
    5.3780   49.1749  129.0848 C   0  0  0  0  0  0  0  0  0  0  0  0
    6.5988   49.8477  129.6068 C   0  0  0  0  0  0  0  0  0  0  0  0
    7.8852   49.1472  129.2528 C   0  0  0  0  0  0  0  0  0  0  0  0
    9.5378   48.2128  131.4754 C   0  0  0  0  0  0  0  0  0  0  0  0
    9.9683   49.4510  131.0544 C   0  0  0  0  0  0  0  0  0  0  0  0
    9.8481   50.5584  131.8594 C   0  0  0  0  0  0  0  0  0  0  0  0
    9.2969   50.4925  133.1172 C   0  0  0  0  0  0  0  0  0  0  0  0
    8.8676   49.2511  133.5341 C   0  0  0  0  0  0  0  0  0  0  0  0
    8.9788   48.1389  132.7479 C   0  0  0  0  0  0  0  0  0  0  0  0
   11.1544   46.0168  132.3552 C   0  0  0  0  0  0  0  0  0  0  0  0
   10.1801   45.3663  134.4285 O   0  0  0  0  0  0  0  0  0  0  0  0
   10.7096   45.0120  133.3433 C   0  0  0  0  0  0  0  0  0  0  0  0
   10.8584   43.6117  133.1149 N   0  0  0  0  0  0  0  0  0  0  0  0
   11.2910   43.2416  132.2331 H   0  0  0  0  0  0  0  0  0  0  0  0
   10.4124   42.6641  134.1053 C   0  0  0  0  0  0  0  0  0  0  0  0
    9.0447   42.1574  133.8452 C   0  0  0  0  0  0  0  0  0  0  0  0
    8.3998   42.5247  132.6914 C   0  0  0  0  0  0  0  0  0  0  0  0
    7.1143   42.0733  132.3990 C   0  0  0  0  0  0  0  0  0  0  0  0
    6.4662   41.2362  133.2858 C   0  0  0  0  0  0  0  0  0  0  0  0
    7.1246   40.8658  134.4561 C   0  0  0  0  0  0  0  0  0  0  0  0
    8.4090   41.3263  134.7323 C   0  0  0  0  0  0  0  0  0  0  0  0
 24 25  2  0  0  0
 25 23  1  0  0  0
 23  1  1  0  0  0
  1  2  1  0  0  0
  2  3  2  0  0  0
  3  4  1  0  0  0
  4  5  2  0  0  0
  5  6  1  0  0  0
  6  7  2  0  0  0
  7  8  1  0  0  0
  8  9  2  0  0  0
  9 11  1  0  0  0
 11 12  1  0  0  0
 12 13  1  0  0  0
 13 14  1  0  0  0
 14 15  1  0  0  0
 15 16  1  0  0  0
  9 10  1  0  0  0
 10 17  1  0  0  0
 17 18  2  0  0  0
 18 19  1  0  0  0
 19 20  2  0  0  0
 20 21  1  0  0  0
 21 22  2  0  0  0
 25 26  1  0  0  0
 26 28  1  0  0  0
 28 29  1  0  0  0
 29 30  2  0  0  0
 30 31  1  0  0  0
 31 32  2  0  0  0
 32 33  1  0  0  0
 33 34  2  0  0  0
 10  1  1  0  0  0
 22 17  1  0  0  0
 34 29  1  0  0  0
  7  2  1  0  0  0
 16 11  1  0  0  0
 26 27  1  0  0  0
M  END
> <minimizedAffinity>
7.58308

> <CNNscore>
0.4995771646

> <CNNaffinity>
7.8257398605

> <CNN_VS>
3.9095609188

> <CNNaffinity_variance>
0.7906171083

$$$$
[H]c1c([H])c([H])c(N2C(N3C([H])([H])C([H])([H])C([H])([H])C([H])([H])C3([H])[H])=Nc3c([H])c([H])c([H])c([H])c3C2([H])C([H])([H])C(=O)N([H])C([H])([H])c2c([H])c([H])c([H])c([H])c2[H])c([H])c1[H]


 34 38  0  0  0  0  0  0  0  0999 V2000
    8.4059   44.4747  131.2237 C   0  0  0  0  0  0  0  0  0  0  0  0
    8.7993   44.0306  129.8827 C   0  0  0  0  0  0  0  0  0  0  0  0
    9.4823   42.8611  129.6176 C   0  0  0  0  0  0  0  0  0  0  0  0
    9.6769   42.4745  128.2943 C   0  0  0  0  0  0  0  0  0  0  0  0
    9.2111   43.2226  127.2407 C   0  0  0  0  0  0  0  0  0  0  0  0
    8.5366   44.3873  127.4900 C   0  0  0  0  0  0  0  0  0  0  0  0
    8.3333   44.7947  128.8259 C   0  0  0  0  0  0  0  0  0  0  0  0
    7.8078   46.1005  129.0421 N   0  0  0  0  0  0  0  0  0  0  0  0
    7.7724   46.6059  130.2411 C   0  0  0  0  0  0  0  0  0  0  0  0
    8.3246   45.8931  131.3368 N   0  0  0  0  0  0  0  0  0  0  0  0
    7.2261   47.9159  130.3894 N   0  0  0  0  0  0  0  0  0  0  0  0
    7.9727   48.8896  131.1275 C   0  0  0  0  0  0  0  0  0  0  0  0
    7.8547   50.2773  130.4695 C   0  0  0  0  0  0  0  0  0  0  0  0
    6.3726   50.5676  130.3931 C   0  0  0  0  0  0  0  0  0  0  0  0
    5.7508   49.6244  129.4240 C   0  0  0  0  0  0  0  0  0  0  0  0
    5.9484   48.1708  129.7686 C   0  0  0  0  0  0  0  0  0  0  0  0
    8.7730   46.5838  132.4851 C   0  0  0  0  0  0  0  0  0  0  0  0
    9.8758   47.4082  132.4818 C   0  0  0  0  0  0  0  0  0  0  0  0
   10.2816   48.0592  133.6220 C   0  0  0  0  0  0  0  0  0  0  0  0
    9.6163   47.9250  134.8176 C   0  0  0  0  0  0  0  0  0  0  0  0
    8.5133   47.0989  134.8159 C   0  0  0  0  0  0  0  0  0  0  0  0
    8.0947   46.4434  133.6923 C   0  0  0  0  0  0  0  0  0  0  0  0
    8.8732   43.7216  132.3969 C   0  0  0  0  0  0  0  0  0  0  0  0
   10.6404   42.1295  132.5118 O   0  0  0  0  0  0  0  0  0  0  0  0
   10.2986   43.3322  132.3700 C   0  0  0  0  0  0  0  0  0  0  0  0
   11.3392   44.2903  132.1845 N   0  0  0  0  0  0  0  0  0  0  0  0
   11.1303   45.3113  132.0596 H   0  0  0  0  0  0  0  0  0  0  0  0
   12.7176   43.8691  132.1658 C   0  0  0  0  0  0  0  0  0  0  0  0
   13.3378   43.9816  130.8250 C   0  0  0  0  0  0  0  0  0  0  0  0
   12.6342   44.5726  129.8063 C   0  0  0  0  0  0  0  0  0  0  0  0
   13.1737   44.7050  128.5283 C   0  0  0  0  0  0  0  0  0  0  0  0
   14.4460   44.2330  128.2718 C   0  0  0  0  0  0  0  0  0  0  0  0
   15.1567   43.6336  129.3090 C   0  0  0  0  0  0  0  0  0  0  0  0
   14.6023   43.5096  130.5799 C   0  0  0  0  0  0  0  0  0  0  0  0
 24 25  2  0  0  0
 25 23  1  0  0  0
 23  1  1  0  0  0
  1  2  1  0  0  0
  2  3  2  0  0  0
  3  4  1  0  0  0
  4  5  2  0  0  0
  5  6  1  0  0  0
  6  7  2  0  0  0
  7  8  1  0  0  0
  8  9  2  0  0  0
  9 11  1  0  0  0
 11 12  1  0  0  0
 12 13  1  0  0  0
 13 14  1  0  0  0
 14 15  1  0  0  0
 15 16  1  0  0  0
  9 10  1  0  0  0
 10 17  1  0  0  0
 17 18  2  0  0  0
 18 19  1  0  0  0
 19 20  2  0  0  0
 20 21  1  0  0  0
 21 22  2  0  0  0
 25 26  1  0  0  0
 26 28  1  0  0  0
 28 29  1  0  0  0
 29 30  2  0  0  0
 30 31  1  0  0  0
 31 32  2  0  0  0
 32 33  1  0  0  0
 33 34  2  0  0  0
 10  1  1  0  0  0
 22 17  1  0  0  0
 34 29  1  0  0  0
  7  2  1  0  0  0
 16 11  1  0  0  0
 26 27  1  0  0  0
M  END
> <minimizedAffinity>
4.24085

> <CNNscore>
0.4990980029

> <CNNaffinity>
8.0252637863

> <CNN_VS>
4.0053930283

> <CNNaffinity_variance>
0.6954499483

$$$$
[H]c1c([H])c([H])c(N2C(N3C([H])([H])C([H])([H])C([H])([H])C([H])([H])C3([H])[H])=Nc3c([H])c([H])c([H])c([H])c3C2([H])C([H])([H])C(=O)N([H])C([H])([H])c2c([H])c([H])c([H])c([H])c2[H])c([H])c1[H]


 34 38  0  0  0  0  0  0  0  0999 V2000
    8.0014   45.9923  132.8958 C   0  0  0  0  0  0  0  0  0  0  0  0
    8.1675   44.5549  132.6583 C   0  0  0  0  0  0  0  0  0  0  0  0
    8.8367   43.6965  133.5066 C   0  0  0  0  0  0  0  0  0  0  0  0
    8.8083   42.3287  133.2482 C   0  0  0  0  0  0  0  0  0  0  0  0
    8.1350   41.8045  132.1719 C   0  0  0  0  0  0  0  0  0  0  0  0
    7.4715   42.6456  131.3200 C   0  0  0  0  0  0  0  0  0  0  0  0
    7.4928   44.0351  131.5663 C   0  0  0  0  0  0  0  0  0  0  0  0
    6.9646   44.8898  130.5571 N   0  0  0  0  0  0  0  0  0  0  0  0
    7.1230   46.1792  130.6369 C   0  0  0  0  0  0  0  0  0  0  0  0
    7.8875   46.7444  131.6904 N   0  0  0  0  0  0  0  0  0  0  0  0
    6.5622   46.9789  129.5965 N   0  0  0  0  0  0  0  0  0  0  0  0
    5.1639   47.2833  129.6449 C   0  0  0  0  0  0  0  0  0  0  0  0
    4.9065   48.7288  129.1793 C   0  0  0  0  0  0  0  0  0  0  0  0
    5.5089   48.8249  127.7956 C   0  0  0  0  0  0  0  0  0  0  0  0
    6.9886   48.7117  127.9105 C   0  0  0  0  0  0  0  0  0  0  0  0
    7.4585   47.4369  128.5621 C   0  0  0  0  0  0  0  0  0  0  0  0
    8.5056   48.0046  131.5279 C   0  0  0  0  0  0  0  0  0  0  0  0
    9.8433   48.1520  131.2368 C   0  0  0  0  0  0  0  0  0  0  0  0
   10.4072   49.3967  131.0906 C   0  0  0  0  0  0  0  0  0  0  0  0
    9.6750   50.5524  131.2256 C   0  0  0  0  0  0  0  0  0  0  0  0
    8.3368   50.3997  131.5170 C   0  0  0  0  0  0  0  0  0  0  0  0
    7.7583   49.1706  131.6660 C   0  0  0  0  0  0  0  0  0  0  0  0
    8.6976   46.6195  134.0289 C   0  0  0  0  0  0  0  0  0  0  0  0
   10.9391   47.4165  133.9209 O   0  0  0  0  0  0  0  0  0  0  0  0
   10.1636   46.4339  134.0497 C   0  0  0  0  0  0  0  0  0  0  0  0
   10.7592   45.1481  134.2148 N   0  0  0  0  0  0  0  0  0  0  0  0
   10.1760   44.2828  134.3281 H   0  0  0  0  0  0  0  0  0  0  0  0
   12.1939   45.0099  134.2283 C   0  0  0  0  0  0  0  0  0  0  0  0
   12.7499   44.6289  132.9089 C   0  0  0  0  0  0  0  0  0  0  0  0
   13.1652   45.6107  132.0454 C   0  0  0  0  0  0  0  0  0  0  0  0
   13.6975   45.3045  130.7945 C   0  0  0  0  0  0  0  0  0  0  0  0
   13.8135   43.9843  130.4062 C   0  0  0  0  0  0  0  0  0  0  0  0
   13.3905   42.9907  131.2859 C   0  0  0  0  0  0  0  0  0  0  0  0
   12.8609   43.3146  132.5321 C   0  0  0  0  0  0  0  0  0  0  0  0
 24 25  2  0  0  0
 25 23  1  0  0  0
 23  1  1  0  0  0
  1  2  1  0  0  0
  2  3  2  0  0  0
  3  4  1  0  0  0
  4  5  2  0  0  0
  5  6  1  0  0  0
  6  7  2  0  0  0
  7  8  1  0  0  0
  8  9  2  0  0  0
  9 11  1  0  0  0
 11 12  1  0  0  0
 12 13  1  0  0  0
 13 14  1  0  0  0
 14 15  1  0  0  0
 15 16  1  0  0  0
  9 10  1  0  0  0
 10 17  1  0  0  0
 17 18  2  0  0  0
 18 19  1  0  0  0
 19 20  2  0  0  0
 20 21  1  0  0  0
 21 22  2  0  0  0
 25 26  1  0  0  0
 26 28  1  0  0  0
 28 29  1  0  0  0
 29 30  2  0  0  0
 30 31  1  0  0  0
 31 32  2  0  0  0
 32 33  1  0  0  0
 33 34  2  0  0  0
 10  1  1  0  0  0
 22 17  1  0  0  0
 34 29  1  0  0  0
  7  2  1  0  0  0
 16 11  1  0  0  0
 26 27  1  0  0  0
M  END
> <minimizedAffinity>
8.64347

> <CNNscore>
0.4757434726

> <CNNaffinity>
7.6816382408

> <CNN_VS>
3.6544892788

> <CNNaffinity_variance>
0.8122844696

$$$$
[H]c1c([H])c([H])c(N2C(N3C([H])([H])C([H])([H])C([H])([H])C([H])([H])C3([H])[H])=Nc3c([H])c([H])c([H])c([H])c3C2([H])C([H])([H])C(=O)N([H])C([H])([H])c2c([H])c([H])c([H])c([H])c2[H])c([H])c1[H]


 34 38  0  0  0  0  0  0  0  0999 V2000
    8.8546   44.9614  131.6627 C   0  0  0  0  0  0  0  0  0  0  0  0
    9.3131   44.0547  130.6053 C   0  0  0  0  0  0  0  0  0  0  0  0
   10.0348   42.8996  130.8273 C   0  0  0  0  0  0  0  0  0  0  0  0
   10.2925   42.0451  129.7588 C   0  0  0  0  0  0  0  0  0  0  0  0
    9.8518   42.3162  128.4865 C   0  0  0  0  0  0  0  0  0  0  0  0
    9.1393   43.4611  128.2520 C   0  0  0  0  0  0  0  0  0  0  0  0
    8.8718   44.3393  129.3239 C   0  0  0  0  0  0  0  0  0  0  0  0
    8.3060   45.6077  129.0091 N   0  0  0  0  0  0  0  0  0  0  0  0
    8.2094   46.5306  129.9218 C   0  0  0  0  0  0  0  0  0  0  0  0
    8.7340   46.3115  131.2220 N   0  0  0  0  0  0  0  0  0  0  0  0
    7.6256   47.7761  129.5420 N   0  0  0  0  0  0  0  0  0  0  0  0
    6.2468   47.7967  129.1562 C   0  0  0  0  0  0  0  0  0  0  0  0
    5.5538   49.0663  129.6859 C   0  0  0  0  0  0  0  0  0  0  0  0
    6.3604   50.2262  129.1467 C   0  0  0  0  0  0  0  0  0  0  0  0
    7.7008   50.2170  129.7938 C   0  0  0  0  0  0  0  0  0  0  0  0
    8.4756   48.9418  129.5838 C   0  0  0  0  0  0  0  0  0  0  0  0
    9.1182   47.4047  132.0307 C   0  0  0  0  0  0  0  0  0  0  0  0
   10.1361   48.2676  131.6915 C   0  0  0  0  0  0  0  0  0  0  0  0
   10.4817   49.3172  132.5085 C   0  0  0  0  0  0  0  0  0  0  0  0
    9.8374   49.5618  133.6980 C   0  0  0  0  0  0  0  0  0  0  0  0
    8.8194   48.6955  134.0332 C   0  0  0  0  0  0  0  0  0  0  0  0
    8.4615   47.6465  133.2339 C   0  0  0  0  0  0  0  0  0  0  0  0
    9.2922   44.7314  133.0474 C   0  0  0  0  0  0  0  0  0  0  0  0
   11.4777   43.7857  133.0517 O   0  0  0  0  0  0  0  0  0  0  0  0
   10.7525   44.7915  133.2660 C   0  0  0  0  0  0  0  0  0  0  0  0
   11.3988   45.9779  133.7242 N   0  0  0  0  0  0  0  0  0  0  0  0
   10.8590   46.8557  133.9239 H   0  0  0  0  0  0  0  0  0  0  0  0
   12.8260   45.9944  133.9261 C   0  0  0  0  0  0  0  0  0  0  0  0
   13.2571   47.0054  134.9196 C   0  0  0  0  0  0  0  0  0  0  0  0
   14.4939   46.8907  135.5021 C   0  0  0  0  0  0  0  0  0  0  0  0
   14.9471   47.8165  136.4398 C   0  0  0  0  0  0  0  0  0  0  0  0
   14.1391   48.8777  136.7976 C   0  0  0  0  0  0  0  0  0  0  0  0
   12.8840   48.9902  136.2038 C   0  0  0  0  0  0  0  0  0  0  0  0
   12.4472   48.0561  135.2686 C   0  0  0  0  0  0  0  0  0  0  0  0
 24 25  2  0  0  0
 25 23  1  0  0  0
 23  1  1  0  0  0
  1  2  1  0  0  0
  2  3  2  0  0  0
  3  4  1  0  0  0
  4  5  2  0  0  0
  5  6  1  0  0  0
  6  7  2  0  0  0
  7  8  1  0  0  0
  8  9  2  0  0  0
  9 11  1  0  0  0
 11 12  1  0  0  0
 12 13  1  0  0  0
 13 14  1  0  0  0
 14 15  1  0  0  0
 15 16  1  0  0  0
  9 10  1  0  0  0
 10 17  1  0  0  0
 17 18  2  0  0  0
 18 19  1  0  0  0
 19 20  2  0  0  0
 20 21  1  0  0  0
 21 22  2  0  0  0
 25 26  1  0  0  0
 26 28  1  0  0  0
 28 29  1  0  0  0
 29 30  2  0  0  0
 30 31  1  0  0  0
 31 32  2  0  0  0
 32 33  1  0  0  0
 33 34  2  0  0  0
 10  1  1  0  0  0
 22 17  1  0  0  0
 34 29  1  0  0  0
  7  2  1  0  0  0
 16 11  1  0  0  0
 26 27  1  0  0  0
M  END
> <minimizedAffinity>
7.23959

> <CNNscore>
0.4754922390

> <CNNaffinity>
7.7919015884

> <CNN_VS>
3.7049887180

> <CNNaffinity_variance>
0.4227560461

$$$$
[H]c1c([H])c([H])c(N2C(N3C([H])([H])C([H])([H])C([H])([H])C([H])([H])C3([H])[H])=Nc3c([H])c([H])c([H])c([H])c3C2([H])C([H])([H])C(=O)N([H])C([H])([H])c2c([H])c([H])c([H])c([H])c2[H])c([H])c1[H]


 34 38  0  0  0  0  0  0  0  0999 V2000
   10.6140   45.9289  132.2289 C   0  0  0  0  0  0  0  0  0  0  0  0
    9.9767   46.1512  133.5308 C   0  0  0  0  0  0  0  0  0  0  0  0
   10.4076   45.5906  134.7158 C   0  0  0  0  0  0  0  0  0  0  0  0
    9.8102   45.9858  135.9097 C   0  0  0  0  0  0  0  0  0  0  0  0
    8.8016   46.9174  135.9462 C   0  0  0  0  0  0  0  0  0  0  0  0
    8.3616   47.4773  134.7772 C   0  0  0  0  0  0  0  0  0  0  0  0
    8.9549   47.0855  133.5581 C   0  0  0  0  0  0  0  0  0  0  0  0
    8.3418   47.5356  132.3541 N   0  0  0  0  0  0  0  0  0  0  0  0
    8.7229   47.0611  131.2036 C   0  0  0  0  0  0  0  0  0  0  0  0
    9.7016   46.0355  131.1391 N   0  0  0  0  0  0  0  0  0  0  0  0
    8.0729   47.5603  130.0354 N   0  0  0  0  0  0  0  0  0  0  0  0
    7.0139   46.7885  129.4583 C   0  0  0  0  0  0  0  0  0  0  0  0
    5.8869   47.7074  128.9503 C   0  0  0  0  0  0  0  0  0  0  0  0
    6.5463   48.6656  127.9841 C   0  0  0  0  0  0  0  0  0  0  0  0
    7.4610   49.5584  128.7468 C   0  0  0  0  0  0  0  0  0  0  0  0
    8.5294   48.8283  129.5189 C   0  0  0  0  0  0  0  0  0  0  0  0
    9.7497   45.1629  130.0287 C   0  0  0  0  0  0  0  0  0  0  0  0
   10.5545   45.3856  128.9340 C   0  0  0  0  0  0  0  0  0  0  0  0
   10.5689   44.5138  127.8717 C   0  0  0  0  0  0  0  0  0  0  0  0
    9.7886   43.3822  127.8428 C   0  0  0  0  0  0  0  0  0  0  0  0
    8.9848   43.1638  128.9407 C   0  0  0  0  0  0  0  0  0  0  0  0
    8.9570   44.0191  130.0061 C   0  0  0  0  0  0  0  0  0  0  0  0
   11.6983   44.9421  132.1178 C   0  0  0  0  0  0  0  0  0  0  0  0
   12.9368   43.8922  133.8599 O   0  0  0  0  0  0  0  0  0  0  0  0
   12.6733   44.9482  133.2283 C   0  0  0  0  0  0  0  0  0  0  0  0
   13.3520   46.1369  133.6301 N   0  0  0  0  0  0  0  0  0  0  0  0
   13.1834   47.0550  133.1500 H   0  0  0  0  0  0  0  0  0  0  0  0
   14.2952   46.1004  134.7196 C   0  0  0  0  0  0  0  0  0  0  0  0
   14.1631   47.2564  135.6368 C   0  0  0  0  0  0  0  0  0  0  0  0
   15.1051   47.4492  136.6153 C   0  0  0  0  0  0  0  0  0  0  0  0
   15.0276   48.5222  137.5011 C   0  0  0  0  0  0  0  0  0  0  0  0
   13.9813   49.4177  137.3992 C   0  0  0  0  0  0  0  0  0  0  0  0
   13.0271   49.2181  136.4043 C   0  0  0  0  0  0  0  0  0  0  0  0
   13.1200   48.1406  135.5277 C   0  0  0  0  0  0  0  0  0  0  0  0
 24 25  2  0  0  0
 25 23  1  0  0  0
 23  1  1  0  0  0
  1  2  1  0  0  0
  2  3  2  0  0  0
  3  4  1  0  0  0
  4  5  2  0  0  0
  5  6  1  0  0  0
  6  7  2  0  0  0
  7  8  1  0  0  0
  8  9  2  0  0  0
  9 11  1  0  0  0
 11 12  1  0  0  0
 12 13  1  0  0  0
 13 14  1  0  0  0
 14 15  1  0  0  0
 15 16  1  0  0  0
  9 10  1  0  0  0
 10 17  1  0  0  0
 17 18  2  0  0  0
 18 19  1  0  0  0
 19 20  2  0  0  0
 20 21  1  0  0  0
 21 22  2  0  0  0
 25 26  1  0  0  0
 26 28  1  0  0  0
 28 29  1  0  0  0
 29 30  2  0  0  0
 30 31  1  0  0  0
 31 32  2  0  0  0
 32 33  1  0  0  0
 33 34  2  0  0  0
 10  1  1  0  0  0
 22 17  1  0  0  0
 34 29  1  0  0  0
  7  2  1  0  0  0
 16 11  1  0  0  0
 26 27  1  0  0  0
M  END
> <minimizedAffinity>
8.85168

> <CNNscore>
0.4708790779

> <CNNaffinity>
7.8020353317

> <CNN_VS>
3.6738152504

> <CNNaffinity_variance>
0.7667714357

$$$$
[H]c1c([H])c([H])c(N2C(N3C([H])([H])C([H])([H])C([H])([H])C([H])([H])C3([H])[H])=Nc3c([H])c([H])c([H])c([H])c3C2([H])C([H])([H])C(=O)N([H])C([H])([H])c2c([H])c([H])c([H])c([H])c2[H])c([H])c1[H]


 34 38  0  0  0  0  0  0  0  0999 V2000
    9.5432   47.2564  130.5384 C   0  0  0  0  0  0  0  0  0  0  0  0
    9.7536   48.4212  131.4041 C   0  0  0  0  0  0  0  0  0  0  0  0
    9.6591   49.7323  130.9840 C   0  0  0  0  0  0  0  0  0  0  0  0
    9.7401   50.7538  131.9265 C   0  0  0  0  0  0  0  0  0  0  0  0
    9.9131   50.4982  133.2649 C   0  0  0  0  0  0  0  0  0  0  0  0
   10.0134   49.2024  133.6939 C   0  0  0  0  0  0  0  0  0  0  0  0
    9.9360   48.1552  132.7509 C   0  0  0  0  0  0  0  0  0  0  0  0
   10.2420   46.8398  133.2027 N   0  0  0  0  0  0  0  0  0  0  0  0
   10.3722   45.8645  132.3506 C   0  0  0  0  0  0  0  0  0  0  0  0
   10.2848   46.1133  130.9563 N   0  0  0  0  0  0  0  0  0  0  0  0
   10.6714   44.5695  132.8703 N   0  0  0  0  0  0  0  0  0  0  0  0
   11.8394   44.4109  133.6833 C   0  0  0  0  0  0  0  0  0  0  0  0
   11.5653   43.4346  134.8427 C   0  0  0  0  0  0  0  0  0  0  0  0
   11.0896   42.1543  134.1939 C   0  0  0  0  0  0  0  0  0  0  0  0
    9.7602   42.4002  133.5711 C   0  0  0  0  0  0  0  0  0  0  0  0
    9.7581   43.5012  132.5423 C   0  0  0  0  0  0  0  0  0  0  0  0
   10.9189   45.2492  130.0354 C   0  0  0  0  0  0  0  0  0  0  0  0
   10.2271   44.5049  129.1064 C   0  0  0  0  0  0  0  0  0  0  0  0
   10.8818   43.6725  128.2305 C   0  0  0  0  0  0  0  0  0  0  0  0
   12.2499   43.5376  128.2329 C   0  0  0  0  0  0  0  0  0  0  0  0
   12.9379   44.2845  129.1645 C   0  0  0  0  0  0  0  0  0  0  0  0
   12.3044   45.1174  130.0434 C   0  0  0  0  0  0  0  0  0  0  0  0
    9.3552   47.4581  129.0941 C   0  0  0  0  0  0  0  0  0  0  0  0
    7.8286   49.0274  128.1573 O   0  0  0  0  0  0  0  0  0  0  0  0
    8.0047   47.9006  128.6892 C   0  0  0  0  0  0  0  0  0  0  0  0
    6.8530   47.0807  128.8804 N   0  0  0  0  0  0  0  0  0  0  0  0
    6.9224   46.1289  129.3175 H   0  0  0  0  0  0  0  0  0  0  0  0
    5.5527   47.5504  128.4724 C   0  0  0  0  0  0  0  0  0  0  0  0
    5.1700   48.8264  129.1207 C   0  0  0  0  0  0  0  0  0  0  0  0
    3.9723   49.4121  128.7971 C   0  0  0  0  0  0  0  0  0  0  0  0
    3.5652   50.6104  129.3805 C   0  0  0  0  0  0  0  0  0  0  0  0
    4.3801   51.2303  130.3072 C   0  0  0  0  0  0  0  0  0  0  0  0
    5.5953   50.6322  130.6327 C   0  0  0  0  0  0  0  0  0  0  0  0
    5.9863   49.4347  130.0401 C   0  0  0  0  0  0  0  0  0  0  0  0
 24 25  2  0  0  0
 25 23  1  0  0  0
 23  1  1  0  0  0
  1  2  1  0  0  0
  2  3  2  0  0  0
  3  4  1  0  0  0
  4  5  2  0  0  0
  5  6  1  0  0  0
  6  7  2  0  0  0
  7  8  1  0  0  0
  8  9  2  0  0  0
  9 11  1  0  0  0
 11 12  1  0  0  0
 12 13  1  0  0  0
 13 14  1  0  0  0
 14 15  1  0  0  0
 15 16  1  0  0  0
  9 10  1  0  0  0
 10 17  1  0  0  0
 17 18  2  0  0  0
 18 19  1  0  0  0
 19 20  2  0  0  0
 20 21  1  0  0  0
 21 22  2  0  0  0
 25 26  1  0  0  0
 26 28  1  0  0  0
 28 29  1  0  0  0
 29 30  2  0  0  0
 30 31  1  0  0  0
 31 32  2  0  0  0
 32 33  1  0  0  0
 33 34  2  0  0  0
 10  1  1  0  0  0
 22 17  1  0  0  0
 34 29  1  0  0  0
  7  2  1  0  0  0
 16 11  1  0  0  0
 26 27  1  0  0  0
M  END
> <minimizedAffinity>
9.48273

> <CNNscore>
0.4648928046

> <CNNaffinity>
7.6617827415

> <CNN_VS>
3.5619077682

> <CNNaffinity_variance>
0.8199380040

$$$$
[H]c1c([H])c([H])c(N2C(N3C([H])([H])C([H])([H])C([H])([H])C([H])([H])C3([H])[H])=Nc3c([H])c([H])c([H])c([H])c3C2([H])C([H])([H])C(=O)N([H])C([H])([H])c2c([H])c([H])c([H])c([H])c2[H])c([H])c1[H]


 34 38  0  0  0  0  0  0  0  0999 V2000
   11.3742   45.2097  129.6661 C   0  0  0  0  0  0  0  0  0  0  0  0
   12.6835   44.6249  129.3595 C   0  0  0  0  0  0  0  0  0  0  0  0
   13.1779   44.4452  128.0837 C   0  0  0  0  0  0  0  0  0  0  0  0
   14.4906   44.0112  127.9200 C   0  0  0  0  0  0  0  0  0  0  0  0
   15.3116   43.7537  128.9906 C   0  0  0  0  0  0  0  0  0  0  0  0
   14.8318   43.9232  130.2612 C   0  0  0  0  0  0  0  0  0  0  0  0
   13.5024   44.3600  130.4444 C   0  0  0  0  0  0  0  0  0  0  0  0
   12.9782   44.3334  131.7683 N   0  0  0  0  0  0  0  0  0  0  0  0
   11.7109   44.5424  131.9792 C   0  0  0  0  0  0  0  0  0  0  0  0
   10.8226   44.7255  130.8878 N   0  0  0  0  0  0  0  0  0  0  0  0
   11.2523   44.5097  133.3301 N   0  0  0  0  0  0  0  0  0  0  0  0
   11.4479   43.3125  134.0909 C   0  0  0  0  0  0  0  0  0  0  0  0
   11.8211   43.6493  135.5469 C   0  0  0  0  0  0  0  0  0  0  0  0
   10.7037   44.5288  136.0612 C   0  0  0  0  0  0  0  0  0  0  0  0
   10.7484   45.8291  135.3382 C   0  0  0  0  0  0  0  0  0  0  0  0
   10.6247   45.7044  133.8416 C   0  0  0  0  0  0  0  0  0  0  0  0
    9.4479   44.4300  131.0285 C   0  0  0  0  0  0  0  0  0  0  0  0
    8.9438   43.1511  130.9509 C   0  0  0  0  0  0  0  0  0  0  0  0
    7.5986   42.9064  131.0892 C   0  0  0  0  0  0  0  0  0  0  0  0
    6.6902   43.9144  131.3104 C   0  0  0  0  0  0  0  0  0  0  0  0
    7.1996   45.1926  131.3872 C   0  0  0  0  0  0  0  0  0  0  0  0
    8.5338   45.4554  131.2522 C   0  0  0  0  0  0  0  0  0  0  0  0
   10.4438   45.5068  128.5670 C   0  0  0  0  0  0  0  0  0  0  0  0
    9.6763   47.4567  127.4357 O   0  0  0  0  0  0  0  0  0  0  0  0
    9.9310   46.8923  128.5312 C   0  0  0  0  0  0  0  0  0  0  0  0
    9.7042   47.6439  129.7223 N   0  0  0  0  0  0  0  0  0  0  0  0
    9.8938   47.2392  130.6721 H   0  0  0  0  0  0  0  0  0  0  0  0
    9.2043   48.9936  129.6438 C   0  0  0  0  0  0  0  0  0  0  0  0
    7.7246   49.0605  129.6109 C   0  0  0  0  0  0  0  0  0  0  0  0
    7.0160   48.0130  129.0791 C   0  0  0  0  0  0  0  0  0  0  0  0
    5.6235   48.0261  129.0274 C   0  0  0  0  0  0  0  0  0  0  0  0
    4.9319   49.1150  129.5205 C   0  0  0  0  0  0  0  0  0  0  0  0
    5.6553   50.1763  130.0595 C   0  0  0  0  0  0  0  0  0  0  0  0
    7.0465   50.1466  130.1032 C   0  0  0  0  0  0  0  0  0  0  0  0
 24 25  2  0  0  0
 25 23  1  0  0  0
 23  1  1  0  0  0
  1  2  1  0  0  0
  2  3  2  0  0  0
  3  4  1  0  0  0
  4  5  2  0  0  0
  5  6  1  0  0  0
  6  7  2  0  0  0
  7  8  1  0  0  0
  8  9  2  0  0  0
  9 11  1  0  0  0
 11 12  1  0  0  0
 12 13  1  0  0  0
 13 14  1  0  0  0
 14 15  1  0  0  0
 15 16  1  0  0  0
  9 10  1  0  0  0
 10 17  1  0  0  0
 17 18  2  0  0  0
 18 19  1  0  0  0
 19 20  2  0  0  0
 20 21  1  0  0  0
 21 22  2  0  0  0
 25 26  1  0  0  0
 26 28  1  0  0  0
 28 29  1  0  0  0
 29 30  2  0  0  0
 30 31  1  0  0  0
 31 32  2  0  0  0
 32 33  1  0  0  0
 33 34  2  0  0  0
 10  1  1  0  0  0
 22 17  1  0  0  0
 34 29  1  0  0  0
  7  2  1  0  0  0
 16 11  1  0  0  0
 26 27  1  0  0  0
M  END
> <minimizedAffinity>
11.82475

> <CNNscore>
0.4592997730

> <CNNaffinity>
7.9601621628

> <CNN_VS>
3.6561007500

> <CNNaffinity_variance>
2.4841217995

$$$$
[H]c1c([H])c([H])c(N2C(N3C([H])([H])C([H])([H])C([H])([H])C([H])([H])C3([H])[H])=Nc3c([H])c([H])c([H])c([H])c3C2([H])C([H])([H])C(=O)N([H])C([H])([H])c2c([H])c([H])c([H])c([H])c2[H])c([H])c1[H]


 34 38  0  0  0  0  0  0  0  0999 V2000
    9.0018   47.4484  130.9904 C   0  0  0  0  0  0  0  0  0  0  0  0
    8.9919   47.8871  132.3897 C   0  0  0  0  0  0  0  0  0  0  0  0
    9.0952   49.2021  132.7954 C   0  0  0  0  0  0  0  0  0  0  0  0
    8.9317   49.5108  134.1431 C   0  0  0  0  0  0  0  0  0  0  0  0
    8.6718   48.5457  135.0852 C   0  0  0  0  0  0  0  0  0  0  0  0
    8.5720   47.2370  134.6966 C   0  0  0  0  0  0  0  0  0  0  0  0
    8.7378   46.9070  133.3344 C   0  0  0  0  0  0  0  0  0  0  0  0
    8.8257   45.5259  132.9987 N   0  0  0  0  0  0  0  0  0  0  0  0
    9.1642   45.1607  131.7961 C   0  0  0  0  0  0  0  0  0  0  0  0
    9.5223   46.1319  130.8254 N   0  0  0  0  0  0  0  0  0  0  0  0
    9.2257   43.7612  131.5239 N   0  0  0  0  0  0  0  0  0  0  0  0
   10.3422   43.0152  132.0211 C   0  0  0  0  0  0  0  0  0  0  0  0
    9.8924   41.6252  132.5092 C   0  0  0  0  0  0  0  0  0  0  0  0
    9.2006   40.9825  131.3281 C   0  0  0  0  0  0  0  0  0  0  0  0
    7.9397   41.7238  131.0522 C   0  0  0  0  0  0  0  0  0  0  0  0
    8.1391   43.1895  130.7652 C   0  0  0  0  0  0  0  0  0  0  0  0
   10.3663   45.7857  129.7463 C   0  0  0  0  0  0  0  0  0  0  0  0
    9.9721   45.8672  128.4296 C   0  0  0  0  0  0  0  0  0  0  0  0
   10.8226   45.5168  127.4086 C   0  0  0  0  0  0  0  0  0  0  0  0
   12.1015   45.0696  127.6423 C   0  0  0  0  0  0  0  0  0  0  0  0
   12.4914   44.9897  128.9617 C   0  0  0  0  0  0  0  0  0  0  0  0
   11.6599   45.3336  129.9901 C   0  0  0  0  0  0  0  0  0  0  0  0
    9.2775   48.4296  129.9307 C   0  0  0  0  0  0  0  0  0  0  0  0
    7.0776   48.4606  129.0195 O   0  0  0  0  0  0  0  0  0  0  0  0
    8.0894   49.1155  129.3811 C   0  0  0  0  0  0  0  0  0  0  0  0
    8.0361   50.5338  129.2371 N   0  0  0  0  0  0  0  0  0  0  0  0
    8.8419   51.1453  129.5174 H   0  0  0  0  0  0  0  0  0  0  0  0
    6.8584   51.1638  128.6951 C   0  0  0  0  0  0  0  0  0  0  0  0
    7.1719   52.3097  127.8099 C   0  0  0  0  0  0  0  0  0  0  0  0
    7.5437   52.0735  126.5106 C   0  0  0  0  0  0  0  0  0  0  0  0
    7.8461   53.1166  125.6374 C   0  0  0  0  0  0  0  0  0  0  0  0
    7.7727   54.4221  126.0816 C   0  0  0  0  0  0  0  0  0  0  0  0
    7.3949   54.6574  127.4015 C   0  0  0  0  0  0  0  0  0  0  0  0
    7.0962   53.6032  128.2603 C   0  0  0  0  0  0  0  0  0  0  0  0
 24 25  2  0  0  0
 25 23  1  0  0  0
 23  1  1  0  0  0
  1  2  1  0  0  0
  2  3  2  0  0  0
  3  4  1  0  0  0
  4  5  2  0  0  0
  5  6  1  0  0  0
  6  7  2  0  0  0
  7  8  1  0  0  0
  8  9  2  0  0  0
  9 11  1  0  0  0
 11 12  1  0  0  0
 12 13  1  0  0  0
 13 14  1  0  0  0
 14 15  1  0  0  0
 15 16  1  0  0  0
  9 10  1  0  0  0
 10 17  1  0  0  0
 17 18  2  0  0  0
 18 19  1  0  0  0
 19 20  2  0  0  0
 20 21  1  0  0  0
 21 22  2  0  0  0
 25 26  1  0  0  0
 26 28  1  0  0  0
 28 29  1  0  0  0
 29 30  2  0  0  0
 30 31  1  0  0  0
 31 32  2  0  0  0
 32 33  1  0  0  0
 33 34  2  0  0  0
 10  1  1  0  0  0
 22 17  1  0  0  0
 34 29  1  0  0  0
  7  2  1  0  0  0
 16 11  1  0  0  0
 26 27  1  0  0  0
M  END
> <minimizedAffinity>
12.30005

> <CNNscore>
0.4587209821

> <CNNaffinity>
7.4932947159

> <CNN_VS>
3.4373314381

> <CNNaffinity_variance>
1.1658684015

$$$$
[H]c1c([H])c([H])c(N2C(N3C([H])([H])C([H])([H])C([H])([H])C([H])([H])C3([H])[H])=Nc3c([H])c([H])c([H])c([H])c3C2([H])C([H])([H])C(=O)N([H])C([H])([H])c2c([H])c([H])c([H])c([H])c2[H])c([H])c1[H]


 34 38  0  0  0  0  0  0  0  0999 V2000
    8.7789   45.1932  132.6618 C   0  0  0  0  0  0  0  0  0  0  0  0
    8.9279   44.0031  131.8181 C   0  0  0  0  0  0  0  0  0  0  0  0
    9.7454   42.9324  132.1174 C   0  0  0  0  0  0  0  0  0  0  0  0
    9.6980   41.7972  131.3127 C   0  0  0  0  0  0  0  0  0  0  0  0
    8.8624   41.7088  130.2262 C   0  0  0  0  0  0  0  0  0  0  0  0
    8.0502   42.7658  129.9155 C   0  0  0  0  0  0  0  0  0  0  0  0
    8.0882   43.9251  130.7196 C   0  0  0  0  0  0  0  0  0  0  0  0
    7.3826   45.0712  130.2543 N   0  0  0  0  0  0  0  0  0  0  0  0
    7.5295   46.2206  130.8472 C   0  0  0  0  0  0  0  0  0  0  0  0
    8.4503   46.3634  131.9174 N   0  0  0  0  0  0  0  0  0  0  0  0
    6.7875   47.3270  130.3356 N   0  0  0  0  0  0  0  0  0  0  0  0
    7.3696   48.6333  130.4061 C   0  0  0  0  0  0  0  0  0  0  0  0
    7.0455   49.4414  129.1354 C   0  0  0  0  0  0  0  0  0  0  0  0
    5.5371   49.4456  129.0286 C   0  0  0  0  0  0  0  0  0  0  0  0
    5.0755   48.0610  128.7363 C   0  0  0  0  0  0  0  0  0  0  0  0
    5.4909   47.0443  129.7680 C   0  0  0  0  0  0  0  0  0  0  0  0
    9.0101   47.6265  132.2143 C   0  0  0  0  0  0  0  0  0  0  0  0
    8.6769   48.3492  133.3379 C   0  0  0  0  0  0  0  0  0  0  0  0
    9.2415   49.5769  133.5881 C   0  0  0  0  0  0  0  0  0  0  0  0
   10.1610   50.1464  132.7394 C   0  0  0  0  0  0  0  0  0  0  0  0
   10.4912   49.4192  131.6163 C   0  0  0  0  0  0  0  0  0  0  0  0
    9.9404   48.1971  131.3506 C   0  0  0  0  0  0  0  0  0  0  0  0
    9.6448   45.3534  133.8392 C   0  0  0  0  0  0  0  0  0  0  0  0
   11.9117   45.1153  134.5288 O   0  0  0  0  0  0  0  0  0  0  0  0
   11.0939   45.2261  133.5788 C   0  0  0  0  0  0  0  0  0  0  0  0
   11.6253   45.2231  132.2549 N   0  0  0  0  0  0  0  0  0  0  0  0
   11.0043   45.3114  131.4132 H   0  0  0  0  0  0  0  0  0  0  0  0
   13.0458   45.0981  132.0440 C   0  0  0  0  0  0  0  0  0  0  0  0
   13.3930   44.7351  130.6501 C   0  0  0  0  0  0  0  0  0  0  0  0
   14.7077   44.5293  130.3167 C   0  0  0  0  0  0  0  0  0  0  0  0
   15.0860   44.1838  129.0208 C   0  0  0  0  0  0  0  0  0  0  0  0
   14.1216   44.0430  128.0424 C   0  0  0  0  0  0  0  0  0  0  0  0
   12.7880   44.2530  128.3853 C   0  0  0  0  0  0  0  0  0  0  0  0
   12.4278   44.5978  129.6851 C   0  0  0  0  0  0  0  0  0  0  0  0
 24 25  2  0  0  0
 25 23  1  0  0  0
 23  1  1  0  0  0
  1  2  1  0  0  0
  2  3  2  0  0  0
  3  4  1  0  0  0
  4  5  2  0  0  0
  5  6  1  0  0  0
  6  7  2  0  0  0
  7  8  1  0  0  0
  8  9  2  0  0  0
  9 11  1  0  0  0
 11 12  1  0  0  0
 12 13  1  0  0  0
 13 14  1  0  0  0
 14 15  1  0  0  0
 15 16  1  0  0  0
  9 10  1  0  0  0
 10 17  1  0  0  0
 17 18  2  0  0  0
 18 19  1  0  0  0
 19 20  2  0  0  0
 20 21  1  0  0  0
 21 22  2  0  0  0
 25 26  1  0  0  0
 26 28  1  0  0  0
 28 29  1  0  0  0
 29 30  2  0  0  0
 30 31  1  0  0  0
 31 32  2  0  0  0
 32 33  1  0  0  0
 33 34  2  0  0  0
 10  1  1  0  0  0
 22 17  1  0  0  0
 34 29  1  0  0  0
  7  2  1  0  0  0
 16 11  1  0  0  0
 26 27  1  0  0  0
M  END
> <minimizedAffinity>
5.03679

> <CNNscore>
0.4437252879

> <CNNaffinity>
7.7807168961

> <CNN_VS>
3.4525008202

> <CNNaffinity_variance>
0.6873102188

$$$$
[H]c1c([H])c([H])c(C([H])(N2C([H])([H])C([H])([H])N(C([H])([H])C#N)C([H])([H])C2([H])[H])C([H])([H])OC([H])([H])c2c([H])c(C(F)(F)F)c([H])c(C(F)(F)F)c2[H])c([H])c1[H]


 33 35  0  0  0  0  0  0  0  0999 V2000
   10.2026   47.4843  130.1178 C   0  0  0  0  0  0  0  0  0  0  0  0
    8.8682   47.1642  130.7020 C   0  0  0  0  0  0  0  0  0  0  0  0
    6.2923   50.3025  129.5939 N   0  0  0  0  0  0  0  0  0  0  0  0
    5.8173   48.9680  129.5268 C   0  0  0  0  0  0  0  0  0  0  0  0
    6.9651   47.9692  129.4076 C   0  0  0  0  0  0  0  0  0  0  0  0
    7.9263   48.1718  130.4269 N   0  0  0  0  0  0  0  0  0  0  0  0
    8.3353   49.5041  130.7026 C   0  0  0  0  0  0  0  0  0  0  0  0
    7.7060   50.4291  129.6958 C   0  0  0  0  0  0  0  0  0  0  0  0
    5.5968   51.2936  128.8617 C   0  0  0  0  0  0  0  0  0  0  0  0
    7.2919   53.1970  128.1370 N   0  0  0  0  0  0  0  0  0  0  0  0
    6.5447   52.3432  128.4546 C   0  0  0  0  0  0  0  0  0  0  0  0
    9.0305   46.8193  132.1366 C   0  0  0  0  0  0  0  0  0  0  0  0
    8.2162   45.9395  132.8148 C   0  0  0  0  0  0  0  0  0  0  0  0
    8.3780   45.6755  134.1614 C   0  0  0  0  0  0  0  0  0  0  0  0
    9.3685   46.2847  134.8950 C   0  0  0  0  0  0  0  0  0  0  0  0
   10.1984   47.1695  134.2307 C   0  0  0  0  0  0  0  0  0  0  0  0
   10.0230   47.4242  132.8823 C   0  0  0  0  0  0  0  0  0  0  0  0
   10.4963   46.8464  128.9153 O   0  0  0  0  0  0  0  0  0  0  0  0
   11.5191   45.9319  129.2745 C   0  0  0  0  0  0  0  0  0  0  0  0
   11.1299   44.9737  130.2899 C   0  0  0  0  0  0  0  0  0  0  0  0
   11.8252   44.9324  131.5188 C   0  0  0  0  0  0  0  0  0  0  0  0
   11.5085   44.0617  132.5162 C   0  0  0  0  0  0  0  0  0  0  0  0
   10.4720   43.1794  132.3374 C   0  0  0  0  0  0  0  0  0  0  0  0
    9.7845   43.2055  131.1472 C   0  0  0  0  0  0  0  0  0  0  0  0
   10.0967   44.0928  130.1146 C   0  0  0  0  0  0  0  0  0  0  0  0
   12.2448   44.0161  133.8152 C   0  0  0  0  0  0  0  0  0  0  0  0
   11.4412   43.6574  134.8431 F   0  0  0  0  0  0  0  0  0  0  0  0
   12.7981   45.2778  133.9831 F   0  0  0  0  0  0  0  0  0  0  0  0
   13.3140   43.1521  133.6369 F   0  0  0  0  0  0  0  0  0  0  0  0
    8.6564   42.2299  131.0099 C   0  0  0  0  0  0  0  0  0  0  0  0
    9.1525   40.9824  130.6089 F   0  0  0  0  0  0  0  0  0  0  0  0
    8.1003   42.0880  132.2546 F   0  0  0  0  0  0  0  0  0  0  0  0
    7.7166   42.6199  130.0787 F   0  0  0  0  0  0  0  0  0  0  0  0
 10 11  3  0  0  0
 11  9  1  0  0  0
  9  3  1  0  0  0
  3  4  1  0  0  0
  4  5  1  0  0  0
  5  6  1  0  0  0
  6  2  1  0  0  0
  2  1  1  0  0  0
  1 18  1  0  0  0
 18 19  1  0  0  0
 19 20  1  0  0  0
 20 21  2  0  0  0
 21 22  1  0  0  0
 22 26  1  0  0  0
 26 27  1  0  0  0
 26 28  1  0  0  0
 26 29  1  0  0  0
 22 23  2  0  0  0
 23 24  1  0  0  0
 24 30  1  0  0  0
 30 31  1  0  0  0
 30 32  1  0  0  0
 30 33  1  0  0  0
 24 25  2  0  0  0
  2 12  1  0  0  0
 12 13  2  0  0  0
 13 14  1  0  0  0
 14 15  2  0  0  0
 15 16  1  0  0  0
 16 17  2  0  0  0
  6  7  1  0  0  0
  7  8  1  0  0  0
  8  3  1  0  0  0
 25 20  1  0  0  0
 17 12  1  0  0  0
M  END
> <minimizedAffinity>
-1.58667

> <CNNscore>
0.2411859334

> <CNNaffinity>
7.5792341232

> <CNN_VS>
1.8280045986

> <CNNaffinity_variance>
0.2354811877

$$$$
[H]c1c([H])c([H])c(C([H])(N2C([H])([H])C([H])([H])N(C([H])([H])C#N)C([H])([H])C2([H])[H])C([H])([H])OC([H])([H])c2c([H])c(C(F)(F)F)c([H])c(C(F)(F)F)c2[H])c([H])c1[H]


 33 35  0  0  0  0  0  0  0  0999 V2000
   10.2506   47.9136  132.1980 C   0  0  0  0  0  0  0  0  0  0  0  0
   10.4899   47.6723  130.7458 C   0  0  0  0  0  0  0  0  0  0  0  0
    6.7532   47.9676  128.8321 N   0  0  0  0  0  0  0  0  0  0  0  0
    7.5978   49.1060  128.8689 C   0  0  0  0  0  0  0  0  0  0  0  0
    8.5968   49.0267  130.0200 C   0  0  0  0  0  0  0  0  0  0  0  0
    9.3068   47.8023  129.9966 N   0  0  0  0  0  0  0  0  0  0  0  0
    8.5694   46.6079  129.7774 C   0  0  0  0  0  0  0  0  0  0  0  0
    7.1008   46.9359  129.7487 C   0  0  0  0  0  0  0  0  0  0  0  0
    5.3790   48.1673  128.5609 C   0  0  0  0  0  0  0  0  0  0  0  0
    4.5286   50.2778  129.9187 N   0  0  0  0  0  0  0  0  0  0  0  0
    4.9038   49.3330  129.3233 C   0  0  0  0  0  0  0  0  0  0  0  0
   11.2136   46.3877  130.5746 C   0  0  0  0  0  0  0  0  0  0  0  0
   10.9267   45.4663  129.5919 C   0  0  0  0  0  0  0  0  0  0  0  0
   11.5997   44.2638  129.4911 C   0  0  0  0  0  0  0  0  0  0  0  0
   12.5969   43.9267  130.3757 C   0  0  0  0  0  0  0  0  0  0  0  0
   12.9015   44.8406  131.3682 C   0  0  0  0  0  0  0  0  0  0  0  0
   12.2178   46.0400  131.4565 C   0  0  0  0  0  0  0  0  0  0  0  0
    8.9443   48.2547  132.5391 O   0  0  0  0  0  0  0  0  0  0  0  0
    8.6351   47.3489  133.5857 C   0  0  0  0  0  0  0  0  0  0  0  0
    9.1260   46.0022  133.3705 C   0  0  0  0  0  0  0  0  0  0  0  0
   10.2534   45.5436  134.0874 C   0  0  0  0  0  0  0  0  0  0  0  0
   10.7628   44.2901  133.9371 C   0  0  0  0  0  0  0  0  0  0  0  0
   10.1679   43.4215  133.0559 C   0  0  0  0  0  0  0  0  0  0  0  0
    9.0698   43.8515  132.3494 C   0  0  0  0  0  0  0  0  0  0  0  0
    8.5349   45.1339  132.4926 C   0  0  0  0  0  0  0  0  0  0  0  0
   11.9562   43.8052  134.6935 C   0  0  0  0  0  0  0  0  0  0  0  0
   11.6143   43.2361  135.8727 F   0  0  0  0  0  0  0  0  0  0  0  0
   12.7810   44.9100  134.8514 F   0  0  0  0  0  0  0  0  0  0  0  0
   12.6365   42.9392  133.8516 F   0  0  0  0  0  0  0  0  0  0  0  0
    8.4535   42.8601  131.4109 C   0  0  0  0  0  0  0  0  0  0  0  0
    9.4423   42.0062  130.9045 F   0  0  0  0  0  0  0  0  0  0  0  0
    7.5763   42.1077  132.1479 F   0  0  0  0  0  0  0  0  0  0  0  0
    7.8284   43.4534  130.3340 F   0  0  0  0  0  0  0  0  0  0  0  0
 10 11  3  0  0  0
 11  9  1  0  0  0
  9  3  1  0  0  0
  3  4  1  0  0  0
  4  5  1  0  0  0
  5  6  1  0  0  0
  6  2  1  0  0  0
  2  1  1  0  0  0
  1 18  1  0  0  0
 18 19  1  0  0  0
 19 20  1  0  0  0
 20 21  2  0  0  0
 21 22  1  0  0  0
 22 26  1  0  0  0
 26 27  1  0  0  0
 26 28  1  0  0  0
 26 29  1  0  0  0
 22 23  2  0  0  0
 23 24  1  0  0  0
 24 30  1  0  0  0
 30 31  1  0  0  0
 30 32  1  0  0  0
 30 33  1  0  0  0
 24 25  2  0  0  0
  2 12  1  0  0  0
 12 13  2  0  0  0
 13 14  1  0  0  0
 14 15  2  0  0  0
 15 16  1  0  0  0
 16 17  2  0  0  0
  6  7  1  0  0  0
  7  8  1  0  0  0
  8  3  1  0  0  0
 25 20  1  0  0  0
 17 12  1  0  0  0
M  END
> <minimizedAffinity>
-4.81859

> <CNNscore>
0.2271157950

> <CNNaffinity>
7.6519713402

> <CNN_VS>
1.7378835678

> <CNNaffinity_variance>
0.2365388423

$$$$
[H]c1c([H])c([H])c(C([H])(N2C([H])([H])C([H])([H])N(C([H])([H])C#N)C([H])([H])C2([H])[H])C([H])([H])OC([H])([H])c2c([H])c(C(F)(F)F)c([H])c(C(F)(F)F)c2[H])c([H])c1[H]


 33 35  0  0  0  0  0  0  0  0999 V2000
    7.7679   43.5936  130.9346 C   0  0  0  0  0  0  0  0  0  0  0  0
    8.6052   44.8182  130.7806 C   0  0  0  0  0  0  0  0  0  0  0  0
    6.5540   48.3405  129.7328 N   0  0  0  0  0  0  0  0  0  0  0  0
    5.9780   47.0870  129.4046 C   0  0  0  0  0  0  0  0  0  0  0  0
    7.0334   45.9872  129.3286 C   0  0  0  0  0  0  0  0  0  0  0  0
    7.8201   45.9521  130.5049 N   0  0  0  0  0  0  0  0  0  0  0  0
    8.2955   47.1852  131.0264 C   0  0  0  0  0  0  0  0  0  0  0  0
    7.9349   48.2928  130.0732 C   0  0  0  0  0  0  0  0  0  0  0  0
    6.0876   49.4868  129.0469 C   0  0  0  0  0  0  0  0  0  0  0  0
    7.1072   51.6477  130.1923 N   0  0  0  0  0  0  0  0  0  0  0  0
    6.6442   50.6891  129.6875 C   0  0  0  0  0  0  0  0  0  0  0  0
    9.6958   44.5481  129.8105 C   0  0  0  0  0  0  0  0  0  0  0  0
   10.9678   45.0656  129.9169 C   0  0  0  0  0  0  0  0  0  0  0  0
   11.9439   44.8204  128.9702 C   0  0  0  0  0  0  0  0  0  0  0  0
   11.6889   44.0412  127.8664 C   0  0  0  0  0  0  0  0  0  0  0  0
   10.4178   43.5101  127.7433 C   0  0  0  0  0  0  0  0  0  0  0  0
    9.4510   43.7657  128.6992 C   0  0  0  0  0  0  0  0  0  0  0  0
    8.4165   42.4929  131.4887 O   0  0  0  0  0  0  0  0  0  0  0  0
    8.3066   42.7201  132.8843 C   0  0  0  0  0  0  0  0  0  0  0  0
    9.0767   43.8500  133.3649 C   0  0  0  0  0  0  0  0  0  0  0  0
   10.4836   43.8441  133.2399 C   0  0  0  0  0  0  0  0  0  0  0  0
   11.2660   44.8738  133.6652 C   0  0  0  0  0  0  0  0  0  0  0  0
   10.6794   45.9727  134.2424 C   0  0  0  0  0  0  0  0  0  0  0  0
    9.3110   45.9951  134.3725 C   0  0  0  0  0  0  0  0  0  0  0  0
    8.4946   44.9472  133.9408 C   0  0  0  0  0  0  0  0  0  0  0  0
   12.7541   44.8673  133.5351 C   0  0  0  0  0  0  0  0  0  0  0  0
   13.1570   45.1991  132.2866 F   0  0  0  0  0  0  0  0  0  0  0  0
   13.1630   43.5949  133.9092 F   0  0  0  0  0  0  0  0  0  0  0  0
   13.2428   45.7256  134.5076 F   0  0  0  0  0  0  0  0  0  0  0  0
    8.7230   47.2222  134.9984 C   0  0  0  0  0  0  0  0  0  0  0  0
    8.7650   48.2870  134.0885 F   0  0  0  0  0  0  0  0  0  0  0  0
    7.4083   46.9408  135.2655 F   0  0  0  0  0  0  0  0  0  0  0  0
    9.3943   47.6226  136.1347 F   0  0  0  0  0  0  0  0  0  0  0  0
 10 11  3  0  0  0
 11  9  1  0  0  0
  9  3  1  0  0  0
  3  4  1  0  0  0
  4  5  1  0  0  0
  5  6  1  0  0  0
  6  2  1  0  0  0
  2  1  1  0  0  0
  1 18  1  0  0  0
 18 19  1  0  0  0
 19 20  1  0  0  0
 20 21  2  0  0  0
 21 22  1  0  0  0
 22 26  1  0  0  0
 26 27  1  0  0  0
 26 28  1  0  0  0
 26 29  1  0  0  0
 22 23  2  0  0  0
 23 24  1  0  0  0
 24 30  1  0  0  0
 30 31  1  0  0  0
 30 32  1  0  0  0
 30 33  1  0  0  0
 24 25  2  0  0  0
  2 12  1  0  0  0
 12 13  2  0  0  0
 13 14  1  0  0  0
 14 15  2  0  0  0
 15 16  1  0  0  0
 16 17  2  0  0  0
  6  7  1  0  0  0
  7  8  1  0  0  0
  8  3  1  0  0  0
 25 20  1  0  0  0
 17 12  1  0  0  0
M  END
> <minimizedAffinity>
-3.81870

> <CNNscore>
0.1721083820

> <CNNaffinity>
7.4781937599

> <CNN_VS>
1.2870597839

> <CNNaffinity_variance>
0.1626034528

$$$$
[H]c1c([H])c([H])c(C([H])(N2C([H])([H])C([H])([H])N(C([H])([H])C#N)C([H])([H])C2([H])[H])C([H])([H])OC([H])([H])c2c([H])c(C(F)(F)F)c([H])c(C(F)(F)F)c2[H])c([H])c1[H]


 33 35  0  0  0  0  0  0  0  0999 V2000
   10.3230   47.2051  128.8138 C   0  0  0  0  0  0  0  0  0  0  0  0
   10.6079   48.1295  129.9490 C   0  0  0  0  0  0  0  0  0  0  0  0
   11.3347   45.7695  133.3570 N   0  0  0  0  0  0  0  0  0  0  0  0
   12.3786   45.9561  132.4156 C   0  0  0  0  0  0  0  0  0  0  0  0
   11.8333   46.3249  131.0387 C   0  0  0  0  0  0  0  0  0  0  0  0
   10.9467   47.4256  131.1186 N   0  0  0  0  0  0  0  0  0  0  0  0
    9.9731   47.4240  132.1532 C   0  0  0  0  0  0  0  0  0  0  0  0
   10.0363   46.1102  132.8847 C   0  0  0  0  0  0  0  0  0  0  0  0
   11.4397   44.6855  134.2604 C   0  0  0  0  0  0  0  0  0  0  0  0
   12.4752   42.6052  132.9871 N   0  0  0  0  0  0  0  0  0  0  0  0
   12.0052   43.5250  133.5540 C   0  0  0  0  0  0  0  0  0  0  0  0
    9.4888   49.0946  130.0888 C   0  0  0  0  0  0  0  0  0  0  0  0
    9.3097   49.9143  131.1810 C   0  0  0  0  0  0  0  0  0  0  0  0
    8.2316   50.7718  131.2889 C   0  0  0  0  0  0  0  0  0  0  0  0
    7.2774   50.8477  130.3019 C   0  0  0  0  0  0  0  0  0  0  0  0
    7.4416   50.0341  129.1954 C   0  0  0  0  0  0  0  0  0  0  0  0
    8.5258   49.1800  129.1026 C   0  0  0  0  0  0  0  0  0  0  0  0
   11.3612   46.3425  128.4715 O   0  0  0  0  0  0  0  0  0  0  0  0
   10.7210   45.0793  128.3930 C   0  0  0  0  0  0  0  0  0  0  0  0
    9.6161   44.9147  129.3165 C   0  0  0  0  0  0  0  0  0  0  0  0
    8.5252   45.8109  129.2720 C   0  0  0  0  0  0  0  0  0  0  0  0
    7.4540   45.7105  130.1061 C   0  0  0  0  0  0  0  0  0  0  0  0
    7.4157   44.7013  131.0361 C   0  0  0  0  0  0  0  0  0  0  0  0
    8.4694   43.8202  131.0937 C   0  0  0  0  0  0  0  0  0  0  0  0
    9.5750   43.9093  130.2448 C   0  0  0  0  0  0  0  0  0  0  0  0
    6.3010   46.6591  130.0609 C   0  0  0  0  0  0  0  0  0  0  0  0
    6.5253   47.7681  130.8031 F   0  0  0  0  0  0  0  0  0  0  0  0
    5.1979   45.9379  130.4958 F   0  0  0  0  0  0  0  0  0  0  0  0
    6.0689   46.9406  128.7236 F   0  0  0  0  0  0  0  0  0  0  0  0
    8.3707   42.7323  132.1184 C   0  0  0  0  0  0  0  0  0  0  0  0
    7.3046   41.8788  131.8049 F   0  0  0  0  0  0  0  0  0  0  0  0
    9.5327   42.0091  132.0431 F   0  0  0  0  0  0  0  0  0  0  0  0
    8.1559   43.2109  133.3940 F   0  0  0  0  0  0  0  0  0  0  0  0
 10 11  3  0  0  0
 11  9  1  0  0  0
  9  3  1  0  0  0
  3  4  1  0  0  0
  4  5  1  0  0  0
  5  6  1  0  0  0
  6  2  1  0  0  0
  2  1  1  0  0  0
  1 18  1  0  0  0
 18 19  1  0  0  0
 19 20  1  0  0  0
 20 21  2  0  0  0
 21 22  1  0  0  0
 22 26  1  0  0  0
 26 27  1  0  0  0
 26 28  1  0  0  0
 26 29  1  0  0  0
 22 23  2  0  0  0
 23 24  1  0  0  0
 24 30  1  0  0  0
 30 31  1  0  0  0
 30 32  1  0  0  0
 30 33  1  0  0  0
 24 25  2  0  0  0
  2 12  1  0  0  0
 12 13  2  0  0  0
 13 14  1  0  0  0
 14 15  2  0  0  0
 15 16  1  0  0  0
 16 17  2  0  0  0
  6  7  1  0  0  0
  7  8  1  0  0  0
  8  3  1  0  0  0
 25 20  1  0  0  0
 17 12  1  0  0  0
M  END
> <minimizedAffinity>
-1.71044

> <CNNscore>
0.1547019780

> <CNNaffinity>
7.0152473450

> <CNN_VS>
1.0852726698

> <CNNaffinity_variance>
0.1530093700

$$$$
[H]c1c([H])c([H])c(C([H])(N2C([H])([H])C([H])([H])N(C([H])([H])C#N)C([H])([H])C2([H])[H])C([H])([H])OC([H])([H])c2c([H])c(C(F)(F)F)c([H])c(C(F)(F)F)c2[H])c([H])c1[H]


 33 35  0  0  0  0  0  0  0  0999 V2000
    8.9535   46.9136  129.1646 C   0  0  0  0  0  0  0  0  0  0  0  0
    7.8127   47.2851  130.0504 C   0  0  0  0  0  0  0  0  0  0  0  0
    6.8377   51.3333  129.4392 N   0  0  0  0  0  0  0  0  0  0  0  0
    6.8143   50.4467  128.3328 C   0  0  0  0  0  0  0  0  0  0  0  0
    7.6935   49.2231  128.5756 C   0  0  0  0  0  0  0  0  0  0  0  0
    7.3695   48.5967  129.8030 N   0  0  0  0  0  0  0  0  0  0  0  0
    7.1858   49.4220  130.9447 C   0  0  0  0  0  0  0  0  0  0  0  0
    7.5269   50.8427  130.5835 C   0  0  0  0  0  0  0  0  0  0  0  0
    6.9081   52.7220  129.1774 C   0  0  0  0  0  0  0  0  0  0  0  0
    7.4279   53.0863  126.6048 N   0  0  0  0  0  0  0  0  0  0  0  0
    7.2071   52.9270  127.7511 C   0  0  0  0  0  0  0  0  0  0  0  0
    8.1699   46.9895  131.4605 C   0  0  0  0  0  0  0  0  0  0  0  0
    7.7094   45.8956  132.1594 C   0  0  0  0  0  0  0  0  0  0  0  0
    8.0356   45.6778  133.4843 C   0  0  0  0  0  0  0  0  0  0  0  0
    8.8425   46.5513  134.1743 C   0  0  0  0  0  0  0  0  0  0  0  0
    9.3173   47.6547  133.4886 C   0  0  0  0  0  0  0  0  0  0  0  0
    8.9809   47.8594  132.1625 C   0  0  0  0  0  0  0  0  0  0  0  0
   10.1709   47.5140  129.4756 O   0  0  0  0  0  0  0  0  0  0  0  0
   11.0946   46.4419  129.3828 C   0  0  0  0  0  0  0  0  0  0  0  0
   10.9419   45.4349  130.4139 C   0  0  0  0  0  0  0  0  0  0  0  0
   10.0615   44.3494  130.2095 C   0  0  0  0  0  0  0  0  0  0  0  0
    9.8749   43.3672  131.1336 C   0  0  0  0  0  0  0  0  0  0  0  0
   10.5636   43.4180  132.3202 C   0  0  0  0  0  0  0  0  0  0  0  0
   11.4244   44.4679  132.5361 C   0  0  0  0  0  0  0  0  0  0  0  0
   11.6273   45.4828  131.5981 C   0  0  0  0  0  0  0  0  0  0  0  0
    8.9426   42.2201  130.9187 C   0  0  0  0  0  0  0  0  0  0  0  0
    9.6038   41.0710  130.6479 F   0  0  0  0  0  0  0  0  0  0  0  0
    8.0957   42.6059  129.8892 F   0  0  0  0  0  0  0  0  0  0  0  0
    8.1493   42.1338  132.0522 F   0  0  0  0  0  0  0  0  0  0  0  0
   12.1582   44.4678  133.8418 C   0  0  0  0  0  0  0  0  0  0  0  0
   12.7987   45.7001  134.0276 F   0  0  0  0  0  0  0  0  0  0  0  0
   11.2161   44.3236  134.8269 F   0  0  0  0  0  0  0  0  0  0  0  0
   13.1227   43.4848  133.9183 F   0  0  0  0  0  0  0  0  0  0  0  0
 10 11  3  0  0  0
 11  9  1  0  0  0
  9  3  1  0  0  0
  3  4  1  0  0  0
  4  5  1  0  0  0
  5  6  1  0  0  0
  6  2  1  0  0  0
  2  1  1  0  0  0
  1 18  1  0  0  0
 18 19  1  0  0  0
 19 20  1  0  0  0
 20 21  2  0  0  0
 21 22  1  0  0  0
 22 26  1  0  0  0
 26 27  1  0  0  0
 26 28  1  0  0  0
 26 29  1  0  0  0
 22 23  2  0  0  0
 23 24  1  0  0  0
 24 30  1  0  0  0
 30 31  1  0  0  0
 30 32  1  0  0  0
 30 33  1  0  0  0
 24 25  2  0  0  0
  2 12  1  0  0  0
 12 13  2  0  0  0
 13 14  1  0  0  0
 14 15  2  0  0  0
 15 16  1  0  0  0
 16 17  2  0  0  0
  6  7  1  0  0  0
  7  8  1  0  0  0
  8  3  1  0  0  0
 25 20  1  0  0  0
 17 12  1  0  0  0
M  END
> <minimizedAffinity>
-1.05248

> <CNNscore>
0.1370508373

> <CNNaffinity>
7.2489585876

> <CNN_VS>
0.9934758544

> <CNNaffinity_variance>
0.1107058376

$$$$
[H]c1c([H])c([H])c(C([H])(N2C([H])([H])C([H])([H])N(C([H])([H])C#N)C([H])([H])C2([H])[H])C([H])([H])OC([H])([H])c2c([H])c(C(F)(F)F)c([H])c(C(F)(F)F)c2[H])c([H])c1[H]


 33 35  0  0  0  0  0  0  0  0999 V2000
    9.3387   45.0481  128.6854 C   0  0  0  0  0  0  0  0  0  0  0  0
    8.0956   45.3825  129.4386 C   0  0  0  0  0  0  0  0  0  0  0  0
    7.0075   49.4438  129.6234 N   0  0  0  0  0  0  0  0  0  0  0  0
    8.2836   49.0523  130.1021 C   0  0  0  0  0  0  0  0  0  0  0  0
    8.3106   47.5748  130.4839 C   0  0  0  0  0  0  0  0  0  0  0  0
    7.8365   46.7648  129.4242 N   0  0  0  0  0  0  0  0  0  0  0  0
    6.6553   47.1739  128.7490 C   0  0  0  0  0  0  0  0  0  0  0  0
    6.0820   48.3771  129.4482 C   0  0  0  0  0  0  0  0  0  0  0  0
    6.4946   50.6940  130.0428 C   0  0  0  0  0  0  0  0  0  0  0  0
    6.9671   52.4976  128.1601 N   0  0  0  0  0  0  0  0  0  0  0  0
    6.7666   51.6981  129.0018 C   0  0  0  0  0  0  0  0  0  0  0  0
    8.1551   44.7601  130.7848 C   0  0  0  0  0  0  0  0  0  0  0  0
    7.8366   45.4173  131.9526 C   0  0  0  0  0  0  0  0  0  0  0  0
    7.9427   44.8122  133.1903 C   0  0  0  0  0  0  0  0  0  0  0  0
    8.3759   43.5134  133.3158 C   0  0  0  0  0  0  0  0  0  0  0  0
    8.6978   42.8358  132.1538 C   0  0  0  0  0  0  0  0  0  0  0  0
    8.5873   43.4557  130.9222 C   0  0  0  0  0  0  0  0  0  0  0  0
   10.2858   46.0665  128.6144 O   0  0  0  0  0  0  0  0  0  0  0  0
   11.4304   45.4880  129.2198 C   0  0  0  0  0  0  0  0  0  0  0  0
   11.4403   45.5654  130.6671 C   0  0  0  0  0  0  0  0  0  0  0  0
   10.9681   46.7307  131.3106 C   0  0  0  0  0  0  0  0  0  0  0  0
   10.9448   46.8672  132.6649 C   0  0  0  0  0  0  0  0  0  0  0  0
   11.3955   45.8383  133.4542 C   0  0  0  0  0  0  0  0  0  0  0  0
   11.8592   44.6967  132.8446 C   0  0  0  0  0  0  0  0  0  0  0  0
   11.8891   44.5410  131.4568 C   0  0  0  0  0  0  0  0  0  0  0  0
   10.4473   48.1002  133.3459 C   0  0  0  0  0  0  0  0  0  0  0  0
   10.4997   49.1841  132.5376 F   0  0  0  0  0  0  0  0  0  0  0  0
   11.2249   48.2446  134.4864 F   0  0  0  0  0  0  0  0  0  0  0  0
    9.1654   47.8191  133.7921 F   0  0  0  0  0  0  0  0  0  0  0  0
   12.3280   43.6018  133.7528 C   0  0  0  0  0  0  0  0  0  0  0  0
   11.3244   43.2903  134.6797 F   0  0  0  0  0  0  0  0  0  0  0  0
   12.5413   42.4986  132.9678 F   0  0  0  0  0  0  0  0  0  0  0  0
   13.4590   43.9400  134.4661 F   0  0  0  0  0  0  0  0  0  0  0  0
 10 11  3  0  0  0
 11  9  1  0  0  0
  9  3  1  0  0  0
  3  4  1  0  0  0
  4  5  1  0  0  0
  5  6  1  0  0  0
  6  2  1  0  0  0
  2  1  1  0  0  0
  1 18  1  0  0  0
 18 19  1  0  0  0
 19 20  1  0  0  0
 20 21  2  0  0  0
 21 22  1  0  0  0
 22 26  1  0  0  0
 26 27  1  0  0  0
 26 28  1  0  0  0
 26 29  1  0  0  0
 22 23  2  0  0  0
 23 24  1  0  0  0
 24 30  1  0  0  0
 30 31  1  0  0  0
 30 32  1  0  0  0
 30 33  1  0  0  0
 24 25  2  0  0  0
  2 12  1  0  0  0
 12 13  2  0  0  0
 13 14  1  0  0  0
 14 15  2  0  0  0
 15 16  1  0  0  0
 16 17  2  0  0  0
  6  7  1  0  0  0
  7  8  1  0  0  0
  8  3  1  0  0  0
 25 20  1  0  0  0
 17 12  1  0  0  0
M  END
> <minimizedAffinity>
-6.08730

> <CNNscore>
0.1344608814

> <CNNaffinity>
7.4734773636

> <CNN_VS>
1.0048903227

> <CNNaffinity_variance>
0.1748330295

$$$$
[H]c1c([H])c([H])c(C([H])(N2C([H])([H])C([H])([H])N(C([H])([H])C#N)C([H])([H])C2([H])[H])C([H])([H])OC([H])([H])c2c([H])c(C(F)(F)F)c([H])c(C(F)(F)F)c2[H])c([H])c1[H]


 33 35  0  0  0  0  0  0  0  0999 V2000
    9.3904   45.0488  128.7520 C   0  0  0  0  0  0  0  0  0  0  0  0
    8.1368   45.3718  129.4926 C   0  0  0  0  0  0  0  0  0  0  0  0
    7.0093   49.4228  129.6660 N   0  0  0  0  0  0  0  0  0  0  0  0
    8.2511   49.0310  130.2275 C   0  0  0  0  0  0  0  0  0  0  0  0
    8.2616   47.5476  130.5860 C   0  0  0  0  0  0  0  0  0  0  0  0
    7.8694   46.7526  129.4824 N   0  0  0  0  0  0  0  0  0  0  0  0
    6.7361   47.1659  128.7320 C   0  0  0  0  0  0  0  0  0  0  0  0
    6.1061   48.3537  129.4084 C   0  0  0  0  0  0  0  0  0  0  0  0
    6.4591   50.6627  130.0683 C   0  0  0  0  0  0  0  0  0  0  0  0
    6.9715   52.4673  128.1969 N   0  0  0  0  0  0  0  0  0  0  0  0
    6.7457   51.6724  129.0367 C   0  0  0  0  0  0  0  0  0  0  0  0
    8.1847   44.7427  130.8362 C   0  0  0  0  0  0  0  0  0  0  0  0
    7.8461   45.3910  132.0034 C   0  0  0  0  0  0  0  0  0  0  0  0
    7.9418   44.7802  133.2390 C   0  0  0  0  0  0  0  0  0  0  0  0
    8.3843   43.4843  133.3632 C   0  0  0  0  0  0  0  0  0  0  0  0
    8.7264   42.8156  132.2018 C   0  0  0  0  0  0  0  0  0  0  0  0
    8.6260   43.4413  130.9721 C   0  0  0  0  0  0  0  0  0  0  0  0
   10.3056   46.0929  128.6437 O   0  0  0  0  0  0  0  0  0  0  0  0
   11.4528   45.5891  129.3082 C   0  0  0  0  0  0  0  0  0  0  0  0
   11.4082   45.7179  130.7512 C   0  0  0  0  0  0  0  0  0  0  0  0
   11.8773   44.6627  131.5645 C   0  0  0  0  0  0  0  0  0  0  0  0
   11.8687   44.7202  132.9247 C   0  0  0  0  0  0  0  0  0  0  0  0
   11.3874   45.8442  133.5491 C   0  0  0  0  0  0  0  0  0  0  0  0
   10.9263   46.8808  132.7728 C   0  0  0  0  0  0  0  0  0  0  0  0
   10.9289   46.8374  131.3767 C   0  0  0  0  0  0  0  0  0  0  0  0
   12.3629   43.6038  133.7854 C   0  0  0  0  0  0  0  0  0  0  0  0
   13.5343   43.9081  134.3904 F   0  0  0  0  0  0  0  0  0  0  0  0
   12.4615   42.4973  132.9535 F   0  0  0  0  0  0  0  0  0  0  0  0
   11.3482   43.3149  134.6846 F   0  0  0  0  0  0  0  0  0  0  0  0
   10.4233   48.0867  133.5051 C   0  0  0  0  0  0  0  0  0  0  0  0
    9.1065   47.8691  133.9318 F   0  0  0  0  0  0  0  0  0  0  0  0
   11.2129   48.2349  134.6157 F   0  0  0  0  0  0  0  0  0  0  0  0
   10.4236   49.2274  132.7299 F   0  0  0  0  0  0  0  0  0  0  0  0
 10 11  3  0  0  0
 11  9  1  0  0  0
  9  3  1  0  0  0
  3  4  1  0  0  0
  4  5  1  0  0  0
  5  6  1  0  0  0
  6  2  1  0  0  0
  2  1  1  0  0  0
  1 18  1  0  0  0
 18 19  1  0  0  0
 19 20  1  0  0  0
 20 21  2  0  0  0
 21 22  1  0  0  0
 22 26  1  0  0  0
 26 27  1  0  0  0
 26 28  1  0  0  0
 26 29  1  0  0  0
 22 23  2  0  0  0
 23 24  1  0  0  0
 24 30  1  0  0  0
 30 31  1  0  0  0
 30 32  1  0  0  0
 30 33  1  0  0  0
 24 25  2  0  0  0
  2 12  1  0  0  0
 12 13  2  0  0  0
 13 14  1  0  0  0
 14 15  2  0  0  0
 15 16  1  0  0  0
 16 17  2  0  0  0
  6  7  1  0  0  0
  7  8  1  0  0  0
  8  3  1  0  0  0
 25 20  1  0  0  0
 17 12  1  0  0  0
M  END
> <minimizedAffinity>
-5.92833

> <CNNscore>
0.1336038262

> <CNNaffinity>
7.4751830101

> <CNN_VS>
0.9987130761

> <CNNaffinity_variance>
0.1731627882

$$$$
[H]c1c([H])c([H])c(C([H])(N2C([H])([H])C([H])([H])N(C([H])([H])C#N)C([H])([H])C2([H])[H])C([H])([H])OC([H])([H])c2c([H])c(C(F)(F)F)c([H])c(C(F)(F)F)c2[H])c([H])c1[H]


 33 35  0  0  0  0  0  0  0  0999 V2000
    8.4965   44.3582  129.7641 C   0  0  0  0  0  0  0  0  0  0  0  0
    9.4383   45.4003  130.2654 C   0  0  0  0  0  0  0  0  0  0  0  0
    7.8887   49.2138  129.3890 N   0  0  0  0  0  0  0  0  0  0  0  0
    9.1688   49.1145  129.9906 C   0  0  0  0  0  0  0  0  0  0  0  0
    9.3392   47.7915  130.7322 C   0  0  0  0  0  0  0  0  0  0  0  0
    9.0259   46.6932  129.8959 N   0  0  0  0  0  0  0  0  0  0  0  0
    7.8499   46.7730  129.1027 C   0  0  0  0  0  0  0  0  0  0  0  0
    7.1022   48.0299  129.4586 C   0  0  0  0  0  0  0  0  0  0  0  0
    7.2128   50.4546  129.4642 C   0  0  0  0  0  0  0  0  0  0  0  0
    4.6283   49.9997  129.8307 N   0  0  0  0  0  0  0  0  0  0  0  0
    5.7778   50.2075  129.6772 C   0  0  0  0  0  0  0  0  0  0  0  0
   10.8238   45.0384  129.8747 C   0  0  0  0  0  0  0  0  0  0  0  0
   11.1963   44.6815  128.5975 C   0  0  0  0  0  0  0  0  0  0  0  0
   12.4907   44.3138  128.2839 C   0  0  0  0  0  0  0  0  0  0  0  0
   13.4774   44.2860  129.2411 C   0  0  0  0  0  0  0  0  0  0  0  0
   13.1233   44.6439  130.5293 C   0  0  0  0  0  0  0  0  0  0  0  0
   11.8227   45.0087  130.8277 C   0  0  0  0  0  0  0  0  0  0  0  0
    8.7041   43.0755  130.2648 O   0  0  0  0  0  0  0  0  0  0  0  0
    8.1291   43.1356  131.5599 C   0  0  0  0  0  0  0  0  0  0  0  0
    8.9275   43.8558  132.5317 C   0  0  0  0  0  0  0  0  0  0  0  0
    8.4079   45.0181  133.1435 C   0  0  0  0  0  0  0  0  0  0  0  0
    9.1019   45.7384  134.0670 C   0  0  0  0  0  0  0  0  0  0  0  0
   10.3617   45.3321  134.4312 C   0  0  0  0  0  0  0  0  0  0  0  0
   10.8834   44.2031  133.8454 C   0  0  0  0  0  0  0  0  0  0  0  0
   10.1840   43.4531  132.8970 C   0  0  0  0  0  0  0  0  0  0  0  0
    8.5537   46.9687  134.7128 C   0  0  0  0  0  0  0  0  0  0  0  0
    8.5987   48.0398  133.8871 F   0  0  0  0  0  0  0  0  0  0  0  0
    9.2963   47.1536  135.8706 F   0  0  0  0  0  0  0  0  0  0  0  0
    7.2682   46.6606  135.1301 F   0  0  0  0  0  0  0  0  0  0  0  0
   12.2561   43.7988  134.2875 C   0  0  0  0  0  0  0  0  0  0  0  0
   12.1907   43.1957  135.5505 F   0  0  0  0  0  0  0  0  0  0  0  0
   12.7028   42.8634  133.3905 F   0  0  0  0  0  0  0  0  0  0  0  0
   13.1276   44.8636  134.3823 F   0  0  0  0  0  0  0  0  0  0  0  0
 10 11  3  0  0  0
 11  9  1  0  0  0
  9  3  1  0  0  0
  3  4  1  0  0  0
  4  5  1  0  0  0
  5  6  1  0  0  0
  6  2  1  0  0  0
  2  1  1  0  0  0
  1 18  1  0  0  0
 18 19  1  0  0  0
 19 20  1  0  0  0
 20 21  2  0  0  0
 21 22  1  0  0  0
 22 26  1  0  0  0
 26 27  1  0  0  0
 26 28  1  0  0  0
 26 29  1  0  0  0
 22 23  2  0  0  0
 23 24  1  0  0  0
 24 30  1  0  0  0
 30 31  1  0  0  0
 30 32  1  0  0  0
 30 33  1  0  0  0
 24 25  2  0  0  0
  2 12  1  0  0  0
 12 13  2  0  0  0
 13 14  1  0  0  0
 14 15  2  0  0  0
 15 16  1  0  0  0
 16 17  2  0  0  0
  6  7  1  0  0  0
  7  8  1  0  0  0
  8  3  1  0  0  0
 25 20  1  0  0  0
 17 12  1  0  0  0
M  END
> <minimizedAffinity>
-5.46547

> <CNNscore>
0.1309905350

> <CNNaffinity>
7.5415000916

> <CNN_VS>
0.9878651500

> <CNNaffinity_variance>
0.1021781117

$$$$
[H]c1c([H])c([H])c(C([H])(N2C([H])([H])C([H])([H])N(C([H])([H])C#N)C([H])([H])C2([H])[H])C([H])([H])OC([H])([H])c2c([H])c(C(F)(F)F)c([H])c(C(F)(F)F)c2[H])c([H])c1[H]


 33 35  0  0  0  0  0  0  0  0999 V2000
    8.1769   44.1524  130.5175 C   0  0  0  0  0  0  0  0  0  0  0  0
    7.5320   45.3665  131.0957 C   0  0  0  0  0  0  0  0  0  0  0  0
    7.2205   48.7385  128.5967 N   0  0  0  0  0  0  0  0  0  0  0  0
    8.5023   48.1876  128.8500 C   0  0  0  0  0  0  0  0  0  0  0  0
    8.5211   47.3832  130.1469 C   0  0  0  0  0  0  0  0  0  0  0  0
    7.4833   46.4206  130.1658 N   0  0  0  0  0  0  0  0  0  0  0  0
    6.1880   46.8281  129.7478 C   0  0  0  0  0  0  0  0  0  0  0  0
    6.1991   48.3110  129.4906 C   0  0  0  0  0  0  0  0  0  0  0  0
    7.1512   50.0649  128.1090 C   0  0  0  0  0  0  0  0  0  0  0  0
    6.8157   51.7347  130.1388 N   0  0  0  0  0  0  0  0  0  0  0  0
    6.9616   50.9840  129.2426 C   0  0  0  0  0  0  0  0  0  0  0  0
    8.1740   45.6922  132.3938 C   0  0  0  0  0  0  0  0  0  0  0  0
    7.7655   45.1808  133.6057 C   0  0  0  0  0  0  0  0  0  0  0  0
    8.3667   45.5403  134.7967 C   0  0  0  0  0  0  0  0  0  0  0  0
    9.4108   46.4343  134.8287 C   0  0  0  0  0  0  0  0  0  0  0  0
    9.8373   46.9567  133.6211 C   0  0  0  0  0  0  0  0  0  0  0  0
    9.2244   46.5877  132.4371 C   0  0  0  0  0  0  0  0  0  0  0  0
    7.6228   42.9372  130.9117 O   0  0  0  0  0  0  0  0  0  0  0  0
    8.7603   42.1359  131.1866 C   0  0  0  0  0  0  0  0  0  0  0  0
    9.9884   42.8862  131.3579 C   0  0  0  0  0  0  0  0  0  0  0  0
   10.6758   43.3749  130.2248 C   0  0  0  0  0  0  0  0  0  0  0  0
   11.8305   44.0903  130.3147 C   0  0  0  0  0  0  0  0  0  0  0  0
   12.3637   44.3576  131.5513 C   0  0  0  0  0  0  0  0  0  0  0  0
   11.7081   43.8891  132.6651 C   0  0  0  0  0  0  0  0  0  0  0  0
   10.5225   43.1544  132.5896 C   0  0  0  0  0  0  0  0  0  0  0  0
   12.5589   44.6057  129.1167 C   0  0  0  0  0  0  0  0  0  0  0  0
   13.8949   44.4132  129.2119 F   0  0  0  0  0  0  0  0  0  0  0  0
   12.2173   45.9468  129.0117 F   0  0  0  0  0  0  0  0  0  0  0  0
   11.9996   43.9827  128.0119 F   0  0  0  0  0  0  0  0  0  0  0  0
   12.3270   44.2190  133.9884 C   0  0  0  0  0  0  0  0  0  0  0  0
   13.4847   43.4524  134.1765 F   0  0  0  0  0  0  0  0  0  0  0  0
   12.6929   45.5391  133.9378 F   0  0  0  0  0  0  0  0  0  0  0  0
   11.4877   43.9685  135.0538 F   0  0  0  0  0  0  0  0  0  0  0  0
 10 11  3  0  0  0
 11  9  1  0  0  0
  9  3  1  0  0  0
  3  4  1  0  0  0
  4  5  1  0  0  0
  5  6  1  0  0  0
  6  2  1  0  0  0
  2  1  1  0  0  0
  1 18  1  0  0  0
 18 19  1  0  0  0
 19 20  1  0  0  0
 20 21  2  0  0  0
 21 22  1  0  0  0
 22 26  1  0  0  0
 26 27  1  0  0  0
 26 28  1  0  0  0
 26 29  1  0  0  0
 22 23  2  0  0  0
 23 24  1  0  0  0
 24 30  1  0  0  0
 30 31  1  0  0  0
 30 32  1  0  0  0
 30 33  1  0  0  0
 24 25  2  0  0  0
  2 12  1  0  0  0
 12 13  2  0  0  0
 13 14  1  0  0  0
 14 15  2  0  0  0
 15 16  1  0  0  0
 16 17  2  0  0  0
  6  7  1  0  0  0
  7  8  1  0  0  0
  8  3  1  0  0  0
 25 20  1  0  0  0
 17 12  1  0  0  0
M  END
> <minimizedAffinity>
-5.20186

> <CNNscore>
0.1158635020

> <CNNaffinity>
7.2645058632

> <CNN_VS>
0.8416910768

> <CNNaffinity_variance>
0.2002702504

$$$$
[H]OC(=O)c1c([H])c([H])c([H])c(O[H])c1C(=O)c1c(O[H])c([H])c(C(=O)OC([H])([H])[C@]2([H])C([H])([H])C([H])([H])C([H])([H])[C@@]2([H])N([H])C(=O)c2c([H])c([H])c(O[H])c([H])c2[H])c([H])c1O[H]


 45 48  0  0  0  0  0  0  0  0999 V2000
   10.8852   44.7179  130.4859 C   0  0  0  0  0  0  0  0  0  0  0  0
    9.8231   44.7809  131.3374 C   0  0  0  0  0  0  0  0  0  0  0  0
    8.5980   45.3312  130.9352 C   0  0  0  0  0  0  0  0  0  0  0  0
    7.5957   45.3372  131.8741 O   0  0  0  0  0  0  0  0  0  0  0  0
    8.4121   45.8328  129.6661 C   0  0  0  0  0  0  0  0  0  0  0  0
    9.5103   45.7648  128.7973 C   0  0  0  0  0  0  0  0  0  0  0  0
    9.4452   46.2514  127.4787 O   0  0  0  0  0  0  0  0  0  0  0  0
   10.6988   45.2182  129.2198 C   0  0  0  0  0  0  0  0  0  0  0  0
    6.6672   45.6360  131.8338 H   0  0  0  0  0  0  0  0  0  0  0  0
   10.2327   46.1925  126.8828 H   0  0  0  0  0  0  0  0  0  0  0  0
   12.1839   44.1367  130.8963 C   0  0  0  0  0  0  0  0  0  0  0  0
   13.1675   44.3740  130.1832 O   0  0  0  0  0  0  0  0  0  0  0  0
   12.2888   43.3948  131.9792 O   0  0  0  0  0  0  0  0  0  0  0  0
   12.8091   43.3594  133.2183 C   0  0  0  0  0  0  0  0  0  0  0  0
   10.6231   44.2076  133.8380 C   0  0  0  0  0  0  0  0  0  0  0  0
    9.8352   43.3399  134.7893 C   0  0  0  0  0  0  0  0  0  0  0  0
   10.6998   43.0185  135.9599 C   0  0  0  0  0  0  0  0  0  0  0  0
   12.1092   43.4911  135.6297 C   0  0  0  0  0  0  0  0  0  0  0  0
   12.0792   44.0672  134.2953 C   0  0  0  0  0  0  0  0  0  0  0  0
   12.0954   46.2627  132.8099 O   0  0  0  0  0  0  0  0  0  0  0  0
   10.9835   46.5892  133.3193 C   0  0  0  0  0  0  0  0  0  0  0  0
   10.1745   45.5859  133.8678 N   0  0  0  0  0  0  0  0  0  0  0  0
    9.2467   45.8335  134.3001 H   0  0  0  0  0  0  0  0  0  0  0  0
   10.6062   47.9758  133.3088 C   0  0  0  0  0  0  0  0  0  0  0  0
   11.2084   48.8705  134.1583 C   0  0  0  0  0  0  0  0  0  0  0  0
   10.8483   50.2204  134.1582 C   0  0  0  0  0  0  0  0  0  0  0  0
    9.8758   50.6583  133.2932 C   0  0  0  0  0  0  0  0  0  0  0  0
    9.5015   52.0041  133.2772 O   0  0  0  0  0  0  0  0  0  0  0  0
    9.2720   49.7577  132.4404 C   0  0  0  0  0  0  0  0  0  0  0  0
    9.6203   48.4262  132.4336 C   0  0  0  0  0  0  0  0  0  0  0  0
    9.9555   52.6716  132.6819 H   0  0  0  0  0  0  0  0  0  0  0  0
    7.2692   46.5534  129.2085 C   0  0  0  0  0  0  0  0  0  0  0  0
    6.4610   45.8101  128.4871 O   0  0  0  0  0  0  0  0  0  0  0  0
    6.8355   47.9130  129.3985 C   0  0  0  0  0  0  0  0  0  0  0  0
    5.4259   48.0478  129.4888 C   0  0  0  0  0  0  0  0  0  0  0  0
    4.6270   46.9162  129.4038 O   0  0  0  0  0  0  0  0  0  0  0  0
    4.8211   49.2548  129.6571 C   0  0  0  0  0  0  0  0  0  0  0  0
    5.6389   50.3549  129.7375 C   0  0  0  0  0  0  0  0  0  0  0  0
    6.9918   50.2570  129.6505 C   0  0  0  0  0  0  0  0  0  0  0  0
    7.6380   48.9970  129.4697 C   0  0  0  0  0  0  0  0  0  0  0  0
    3.6302   47.0250  129.4697 H   0  0  0  0  0  0  0  0  0  0  0  0
    9.0510   49.0337  129.1673 C   0  0  0  0  0  0  0  0  0  0  0  0
    9.4020   48.7697  127.9669 O   0  0  0  0  0  0  0  0  0  0  0  0
   10.0663   49.3071  130.0135 O   0  0  0  0  0  0  0  0  0  0  0  0
   11.0407   49.1292  129.8717 H   0  0  0  0  0  0  0  0  0  0  0  0
 20 21  2  0  0  0
 21 22  1  0  0  0
 22 15  1  0  0  0
 15 16  1  0  0  0
 16 17  1  0  0  0
 17 18  1  0  0  0
 18 19  1  0  0  0
 19 14  1  0  0  0
 14 13  1  0  0  0
 13 11  1  0  0  0
 11 12  2  0  0  0
 11  1  1  0  0  0
  1  2  2  0  0  0
  2  3  1  0  0  0
  3  4  1  0  0  0
  3  5  2  0  0  0
  5 32  1  0  0  0
 32 33  2  0  0  0
 32 34  1  0  0  0
 34 35  2  0  0  0
 35 36  1  0  0  0
 35 37  1  0  0  0
 37 38  2  0  0  0
 38 39  1  0  0  0
 39 40  2  0  0  0
 40 42  1  0  0  0
 42 43  2  0  0  0
 42 44  1  0  0  0
  5  6  1  0  0  0
  6  7  1  0  0  0
  6  8  2  0  0  0
 21 24  1  0  0  0
 24 25  2  0  0  0
 25 26  1  0  0  0
 26 27  2  0  0  0
 27 28  1  0  0  0
 27 29  1  0  0  0
 29 30  2  0  0  0
 19 15  1  0  0  0
  8  1  1  0  0  0
 30 24  1  0  0  0
 40 34  1  0  0  0
 22 23  1  0  0  0
  4  9  1  0  0  0
 36 41  1  0  0  0
 44 45  1  0  0  0
  7 10  1  0  0  0
 28 31  1  0  0  0
M  END
> <minimizedAffinity>
9.44457

> <CNNscore>
0.4284214675

> <CNNaffinity>
6.8050165176

> <CNN_VS>
2.9154150486

> <CNNaffinity_variance>
1.7519176006

$$$$
[H]OC(=O)c1c([H])c([H])c([H])c(O[H])c1C(=O)c1c(O[H])c([H])c(C(=O)OC([H])([H])[C@]2([H])C([H])([H])C([H])([H])C([H])([H])[C@@]2([H])N([H])C(=O)c2c([H])c([H])c(O[H])c([H])c2[H])c([H])c1O[H]


 45 48  0  0  0  0  0  0  0  0999 V2000
    9.2865   49.2207  131.7822 C   0  0  0  0  0  0  0  0  0  0  0  0
    8.6419   48.3541  132.6132 C   0  0  0  0  0  0  0  0  0  0  0  0
    9.1514   47.0732  132.8681 C   0  0  0  0  0  0  0  0  0  0  0  0
    8.4217   46.2874  133.7262 O   0  0  0  0  0  0  0  0  0  0  0  0
   10.3219   46.6323  132.2917 C   0  0  0  0  0  0  0  0  0  0  0  0
   10.9777   47.5299  131.4374 C   0  0  0  0  0  0  0  0  0  0  0  0
   12.1771   47.1916  130.7843 O   0  0  0  0  0  0  0  0  0  0  0  0
   10.4545   48.7802  131.2077 C   0  0  0  0  0  0  0  0  0  0  0  0
    8.5732   45.3878  134.0739 H   0  0  0  0  0  0  0  0  0  0  0  0
   12.6230   47.8413  130.1861 H   0  0  0  0  0  0  0  0  0  0  0  0
    8.7616   50.5775  131.5063 C   0  0  0  0  0  0  0  0  0  0  0  0
    9.3108   51.5298  132.0752 O   0  0  0  0  0  0  0  0  0  0  0  0
    7.7480   50.7644  130.6866 O   0  0  0  0  0  0  0  0  0  0  0  0
    6.5048   50.3452  130.3927 C   0  0  0  0  0  0  0  0  0  0  0  0
    6.6934   47.9611  129.9889 C   0  0  0  0  0  0  0  0  0  0  0  0
    5.3916   47.1969  129.9910 C   0  0  0  0  0  0  0  0  0  0  0  0
    4.4421   47.8809  129.0681 C   0  0  0  0  0  0  0  0  0  0  0  0
    5.0714   49.2085  128.6678 C   0  0  0  0  0  0  0  0  0  0  0  0
    6.3541   49.3097  129.3445 C   0  0  0  0  0  0  0  0  0  0  0  0
    7.4951   45.4337  130.6352 O   0  0  0  0  0  0  0  0  0  0  0  0
    8.0901   45.9599  129.6496 C   0  0  0  0  0  0  0  0  0  0  0  0
    7.7311   47.2570  129.2615 N   0  0  0  0  0  0  0  0  0  0  0  0
    8.2142   47.7168  128.4465 H   0  0  0  0  0  0  0  0  0  0  0  0
    9.1060   45.1981  128.9767 C   0  0  0  0  0  0  0  0  0  0  0  0
    8.9173   43.8651  128.7081 C   0  0  0  0  0  0  0  0  0  0  0  0
    9.8988   43.1142  128.0563 C   0  0  0  0  0  0  0  0  0  0  0  0
   11.0713   43.7210  127.6784 C   0  0  0  0  0  0  0  0  0  0  0  0
   12.0651   42.9880  127.0254 O   0  0  0  0  0  0  0  0  0  0  0  0
   11.2589   45.0606  127.9492 C   0  0  0  0  0  0  0  0  0  0  0  0
   10.2976   45.8081  128.5908 C   0  0  0  0  0  0  0  0  0  0  0  0
   12.0942   42.9116  126.0257 H   0  0  0  0  0  0  0  0  0  0  0  0
   10.8395   45.3046  132.3553 C   0  0  0  0  0  0  0  0  0  0  0  0
   11.5362   44.9843  131.2884 O   0  0  0  0  0  0  0  0  0  0  0  0
   10.7565   44.2744  133.3576 C   0  0  0  0  0  0  0  0  0  0  0  0
   11.5974   44.5073  134.4765 C   0  0  0  0  0  0  0  0  0  0  0  0
   12.3779   45.6541  134.5145 O   0  0  0  0  0  0  0  0  0  0  0  0
   11.6689   43.6417  135.5237 C   0  0  0  0  0  0  0  0  0  0  0  0
   10.8846   42.5167  135.4561 C   0  0  0  0  0  0  0  0  0  0  0  0
   10.0725   42.2652  134.3956 C   0  0  0  0  0  0  0  0  0  0  0  0
    9.9917   43.1633  133.2889 C   0  0  0  0  0  0  0  0  0  0  0  0
   12.9688   45.8077  135.3127 H   0  0  0  0  0  0  0  0  0  0  0  0
    9.2750   42.6915  132.1256 C   0  0  0  0  0  0  0  0  0  0  0  0
    9.9507   42.0877  131.2241 O   0  0  0  0  0  0  0  0  0  0  0  0
    7.9575   42.8210  131.8631 O   0  0  0  0  0  0  0  0  0  0  0  0
    7.4972   42.6923  130.9840 H   0  0  0  0  0  0  0  0  0  0  0  0
 20 21  2  0  0  0
 21 22  1  0  0  0
 22 15  1  0  0  0
 15 16  1  0  0  0
 16 17  1  0  0  0
 17 18  1  0  0  0
 18 19  1  0  0  0
 19 14  1  0  0  0
 14 13  1  0  0  0
 13 11  1  0  0  0
 11 12  2  0  0  0
 11  1  1  0  0  0
  1  2  2  0  0  0
  2  3  1  0  0  0
  3  4  1  0  0  0
  3  5  2  0  0  0
  5 32  1  0  0  0
 32 33  2  0  0  0
 32 34  1  0  0  0
 34 35  2  0  0  0
 35 36  1  0  0  0
 35 37  1  0  0  0
 37 38  2  0  0  0
 38 39  1  0  0  0
 39 40  2  0  0  0
 40 42  1  0  0  0
 42 43  2  0  0  0
 42 44  1  0  0  0
  5  6  1  0  0  0
  6  7  1  0  0  0
  6  8  2  0  0  0
 21 24  1  0  0  0
 24 25  2  0  0  0
 25 26  1  0  0  0
 26 27  2  0  0  0
 27 28  1  0  0  0
 27 29  1  0  0  0
 29 30  2  0  0  0
 19 15  1  0  0  0
  8  1  1  0  0  0
 30 24  1  0  0  0
 40 34  1  0  0  0
 22 23  1  0  0  0
  4  9  1  0  0  0
 36 41  1  0  0  0
 44 45  1  0  0  0
  7 10  1  0  0  0
 28 31  1  0  0  0
M  END
> <minimizedAffinity>
5.38512

> <CNNscore>
0.4141048491

> <CNNaffinity>
7.1149191856

> <CNN_VS>
2.9463224411

> <CNNaffinity_variance>
2.6568865776

$$$$
[H]OC(=O)c1c([H])c([H])c([H])c(O[H])c1C(=O)c1c(O[H])c([H])c(C(=O)OC([H])([H])[C@]2([H])C([H])([H])C([H])([H])C([H])([H])[C@@]2([H])N([H])C(=O)c2c([H])c([H])c(O[H])c([H])c2[H])c([H])c1O[H]


 45 48  0  0  0  0  0  0  0  0999 V2000
    9.0592   47.7178  129.6000 C   0  0  0  0  0  0  0  0  0  0  0  0
   10.3814   47.4680  129.3839 C   0  0  0  0  0  0  0  0  0  0  0  0
   10.8524   46.1642  129.1758 C   0  0  0  0  0  0  0  0  0  0  0  0
   12.2026   46.0315  128.9622 O   0  0  0  0  0  0  0  0  0  0  0  0
   10.0044   45.0790  129.1812 C   0  0  0  0  0  0  0  0  0  0  0  0
    8.6463   45.3451  129.4053 C   0  0  0  0  0  0  0  0  0  0  0  0
    7.6846   44.3187  129.4411 O   0  0  0  0  0  0  0  0  0  0  0  0
    8.2136   46.6346  129.6049 C   0  0  0  0  0  0  0  0  0  0  0  0
   12.7588   45.2516  128.7737 H   0  0  0  0  0  0  0  0  0  0  0  0
    6.7313   44.5298  129.6003 H   0  0  0  0  0  0  0  0  0  0  0  0
    8.5473   49.0900  129.8183 C   0  0  0  0  0  0  0  0  0  0  0  0
    8.3958   49.8090  128.8222 O   0  0  0  0  0  0  0  0  0  0  0  0
    8.2641   49.5294  131.0269 O   0  0  0  0  0  0  0  0  0  0  0  0
    8.1646   49.1587  132.3154 C   0  0  0  0  0  0  0  0  0  0  0  0
    8.6923   47.7641  134.2283 C   0  0  0  0  0  0  0  0  0  0  0  0
    7.6722   46.7017  134.5588 C   0  0  0  0  0  0  0  0  0  0  0  0
    7.3831   45.9244  133.3205 C   0  0  0  0  0  0  0  0  0  0  0  0
    8.0476   46.6519  132.1595 C   0  0  0  0  0  0  0  0  0  0  0  0
    8.7031   47.8329  132.6971 C   0  0  0  0  0  0  0  0  0  0  0  0
   10.7715   49.5318  134.2117 O   0  0  0  0  0  0  0  0  0  0  0  0
   11.0197   48.4018  134.7255 C   0  0  0  0  0  0  0  0  0  0  0  0
    9.9993   47.4432  134.7672 N   0  0  0  0  0  0  0  0  0  0  0  0
   10.1828   46.4949  135.1869 H   0  0  0  0  0  0  0  0  0  0  0  0
   12.3387   48.1591  135.2417 C   0  0  0  0  0  0  0  0  0  0  0  0
   13.0518   47.0547  134.8462 C   0  0  0  0  0  0  0  0  0  0  0  0
   14.3341   46.8077  135.3429 C   0  0  0  0  0  0  0  0  0  0  0  0
   14.8894   47.6852  136.2413 C   0  0  0  0  0  0  0  0  0  0  0  0
   16.1702   47.4565  136.7496 O   0  0  0  0  0  0  0  0  0  0  0  0
   14.1712   48.7944  136.6374 C   0  0  0  0  0  0  0  0  0  0  0  0
   12.9075   49.0458  136.1535 C   0  0  0  0  0  0  0  0  0  0  0  0
   16.9900   47.8171  136.2978 H   0  0  0  0  0  0  0  0  0  0  0  0
   10.3967   43.7082  129.1409 C   0  0  0  0  0  0  0  0  0  0  0  0
   10.3423   43.2044  127.9287 O   0  0  0  0  0  0  0  0  0  0  0  0
   10.8477   42.7944  130.1580 C   0  0  0  0  0  0  0  0  0  0  0  0
    9.9280   41.7468  130.4229 C   0  0  0  0  0  0  0  0  0  0  0  0
    8.7401   41.6870  129.7080 O   0  0  0  0  0  0  0  0  0  0  0  0
   10.1679   40.7895  131.3593 C   0  0  0  0  0  0  0  0  0  0  0  0
   11.3519   40.8766  132.0493 C   0  0  0  0  0  0  0  0  0  0  0  0
   12.2500   41.8706  131.8200 C   0  0  0  0  0  0  0  0  0  0  0  0
   12.0082   42.8832  130.8432 C   0  0  0  0  0  0  0  0  0  0  0  0
    8.0974   40.9399  129.9047 H   0  0  0  0  0  0  0  0  0  0  0  0
   12.9170   44.0073  130.8400 C   0  0  0  0  0  0  0  0  0  0  0  0
   13.6153   44.1951  129.7860 O   0  0  0  0  0  0  0  0  0  0  0  0
   13.1318   44.8939  131.8346 O   0  0  0  0  0  0  0  0  0  0  0  0
   13.8961   45.5335  131.9244 H   0  0  0  0  0  0  0  0  0  0  0  0
 20 21  2  0  0  0
 21 22  1  0  0  0
 22 15  1  0  0  0
 15 16  1  0  0  0
 16 17  1  0  0  0
 17 18  1  0  0  0
 18 19  1  0  0  0
 19 14  1  0  0  0
 14 13  1  0  0  0
 13 11  1  0  0  0
 11 12  2  0  0  0
 11  1  1  0  0  0
  1  2  2  0  0  0
  2  3  1  0  0  0
  3  4  1  0  0  0
  3  5  2  0  0  0
  5 32  1  0  0  0
 32 33  2  0  0  0
 32 34  1  0  0  0
 34 35  2  0  0  0
 35 36  1  0  0  0
 35 37  1  0  0  0
 37 38  2  0  0  0
 38 39  1  0  0  0
 39 40  2  0  0  0
 40 42  1  0  0  0
 42 43  2  0  0  0
 42 44  1  0  0  0
  5  6  1  0  0  0
  6  7  1  0  0  0
  6  8  2  0  0  0
 21 24  1  0  0  0
 24 25  2  0  0  0
 25 26  1  0  0  0
 26 27  2  0  0  0
 27 28  1  0  0  0
 27 29  1  0  0  0
 29 30  2  0  0  0
 19 15  1  0  0  0
  8  1  1  0  0  0
 30 24  1  0  0  0
 40 34  1  0  0  0
 22 23  1  0  0  0
  4  9  1  0  0  0
 36 41  1  0  0  0
 44 45  1  0  0  0
  7 10  1  0  0  0
 28 31  1  0  0  0
M  END
> <minimizedAffinity>
17.20691

> <CNNscore>
0.4026347101

> <CNNaffinity>
6.4763765335

> <CNN_VS>
2.6076140404

> <CNNaffinity_variance>
0.9007477760

$$$$
[H]OC(=O)c1c([H])c([H])c([H])c(O[H])c1C(=O)c1c(O[H])c([H])c(C(=O)OC([H])([H])[C@]2([H])C([H])([H])C([H])([H])C([H])([H])[C@@]2([H])N([H])C(=O)c2c([H])c([H])c(O[H])c([H])c2[H])c([H])c1O[H]


 45 48  0  0  0  0  0  0  0  0999 V2000
    9.3653   49.0645  131.8626 C   0  0  0  0  0  0  0  0  0  0  0  0
    8.6611   48.2391  132.6872 C   0  0  0  0  0  0  0  0  0  0  0  0
    8.9905   46.8824  132.8152 C   0  0  0  0  0  0  0  0  0  0  0  0
    8.2165   46.1468  133.6789 O   0  0  0  0  0  0  0  0  0  0  0  0
   10.0362   46.3227  132.1153 C   0  0  0  0  0  0  0  0  0  0  0  0
   10.7543   47.1789  131.2687 C   0  0  0  0  0  0  0  0  0  0  0  0
   11.8384   46.7221  130.4967 O   0  0  0  0  0  0  0  0  0  0  0  0
   10.4087   48.5054  131.1649 C   0  0  0  0  0  0  0  0  0  0  0  0
    8.2568   45.2110  133.9539 H   0  0  0  0  0  0  0  0  0  0  0  0
   12.3312   47.3444  129.9064 H   0  0  0  0  0  0  0  0  0  0  0  0
    9.0304   50.4998  131.7200 C   0  0  0  0  0  0  0  0  0  0  0  0
    9.6731   51.3076  132.4030 O   0  0  0  0  0  0  0  0  0  0  0  0
    8.0840   50.9022  130.8975 O   0  0  0  0  0  0  0  0  0  0  0  0
    6.8376   50.6338  130.4707 C   0  0  0  0  0  0  0  0  0  0  0  0
    6.8177   48.2770  129.8986 C   0  0  0  0  0  0  0  0  0  0  0  0
    5.4501   47.6619  129.7256 C   0  0  0  0  0  0  0  0  0  0  0  0
    4.6691   48.5080  128.7793 C   0  0  0  0  0  0  0  0  0  0  0  0
    5.4673   49.7829  128.5419 C   0  0  0  0  0  0  0  0  0  0  0  0
    6.6826   49.6959  129.3350 C   0  0  0  0  0  0  0  0  0  0  0  0
    7.1313   45.5867  130.2337 O   0  0  0  0  0  0  0  0  0  0  0  0
    7.9435   46.1354  129.4326 C   0  0  0  0  0  0  0  0  0  0  0  0
    7.8426   47.5150  129.2125 N   0  0  0  0  0  0  0  0  0  0  0  0
    8.5091   47.9943  128.5529 H   0  0  0  0  0  0  0  0  0  0  0  0
    8.9301   45.3133  128.7877 C   0  0  0  0  0  0  0  0  0  0  0  0
    8.7788   43.9498  128.7368 C   0  0  0  0  0  0  0  0  0  0  0  0
    9.7325   43.1406  128.1142 C   0  0  0  0  0  0  0  0  0  0  0  0
   10.8390   43.7201  127.5438 C   0  0  0  0  0  0  0  0  0  0  0  0
   11.8040   42.9287  126.9163 O   0  0  0  0  0  0  0  0  0  0  0  0
   10.9891   45.0904  127.5960 C   0  0  0  0  0  0  0  0  0  0  0  0
   10.0549   45.8954  128.2072 C   0  0  0  0  0  0  0  0  0  0  0  0
   11.7494   42.7036  125.9403 H   0  0  0  0  0  0  0  0  0  0  0  0
   10.3526   44.9333  132.0494 C   0  0  0  0  0  0  0  0  0  0  0  0
   11.0493   44.6259  130.9787 O   0  0  0  0  0  0  0  0  0  0  0  0
   10.0704   43.8280  132.9277 C   0  0  0  0  0  0  0  0  0  0  0  0
    8.8546   43.1625  132.6239 C   0  0  0  0  0  0  0  0  0  0  0  0
    8.0870   43.6017  131.5544 O   0  0  0  0  0  0  0  0  0  0  0  0
    8.4078   42.1003  133.3472 C   0  0  0  0  0  0  0  0  0  0  0  0
    9.1898   41.6901  134.3986 C   0  0  0  0  0  0  0  0  0  0  0  0
   10.3570   42.3103  134.7156 C   0  0  0  0  0  0  0  0  0  0  0  0
   10.8345   43.4283  133.9672 C   0  0  0  0  0  0  0  0  0  0  0  0
    7.2282   43.1217  131.3494 H   0  0  0  0  0  0  0  0  0  0  0  0
   11.9602   44.1442  134.5235 C   0  0  0  0  0  0  0  0  0  0  0  0
   13.0295   43.4789  134.7424 O   0  0  0  0  0  0  0  0  0  0  0  0
   12.0206   45.4506  134.8568 O   0  0  0  0  0  0  0  0  0  0  0  0
   12.7066   45.9010  135.4294 H   0  0  0  0  0  0  0  0  0  0  0  0
 20 21  2  0  0  0
 21 22  1  0  0  0
 22 15  1  0  0  0
 15 16  1  0  0  0
 16 17  1  0  0  0
 17 18  1  0  0  0
 18 19  1  0  0  0
 19 14  1  0  0  0
 14 13  1  0  0  0
 13 11  1  0  0  0
 11 12  2  0  0  0
 11  1  1  0  0  0
  1  2  2  0  0  0
  2  3  1  0  0  0
  3  4  1  0  0  0
  3  5  2  0  0  0
  5 32  1  0  0  0
 32 33  2  0  0  0
 32 34  1  0  0  0
 34 35  2  0  0  0
 35 36  1  0  0  0
 35 37  1  0  0  0
 37 38  2  0  0  0
 38 39  1  0  0  0
 39 40  2  0  0  0
 40 42  1  0  0  0
 42 43  2  0  0  0
 42 44  1  0  0  0
  5  6  1  0  0  0
  6  7  1  0  0  0
  6  8  2  0  0  0
 21 24  1  0  0  0
 24 25  2  0  0  0
 25 26  1  0  0  0
 26 27  2  0  0  0
 27 28  1  0  0  0
 27 29  1  0  0  0
 29 30  2  0  0  0
 19 15  1  0  0  0
  8  1  1  0  0  0
 30 24  1  0  0  0
 40 34  1  0  0  0
 22 23  1  0  0  0
  4  9  1  0  0  0
 36 41  1  0  0  0
 44 45  1  0  0  0
  7 10  1  0  0  0
 28 31  1  0  0  0
M  END
> <minimizedAffinity>
6.12798

> <CNNscore>
0.3785981536

> <CNNaffinity>
6.8937177658

> <CNN_VS>
2.6099488735

> <CNNaffinity_variance>
1.7196706533

$$$$
[H]OC(=O)c1c([H])c([H])c([H])c(O[H])c1C(=O)c1c(O[H])c([H])c(C(=O)OC([H])([H])[C@]2([H])C([H])([H])C([H])([H])C([H])([H])[C@@]2([H])N([H])C(=O)c2c([H])c([H])c(O[H])c([H])c2[H])c([H])c1O[H]


 45 48  0  0  0  0  0  0  0  0999 V2000
   11.4003   43.9473  132.4734 C   0  0  0  0  0  0  0  0  0  0  0  0
   12.3615   44.8658  132.1744 C   0  0  0  0  0  0  0  0  0  0  0  0
   12.1476   46.2366  132.3753 C   0  0  0  0  0  0  0  0  0  0  0  0
   13.1878   47.0701  132.0445 O   0  0  0  0  0  0  0  0  0  0  0  0
   10.9602   46.7171  132.8813 C   0  0  0  0  0  0  0  0  0  0  0  0
    9.9767   45.7652  133.1851 C   0  0  0  0  0  0  0  0  0  0  0  0
    8.7205   46.1341  133.7004 O   0  0  0  0  0  0  0  0  0  0  0  0
   10.2160   44.4273  132.9786 C   0  0  0  0  0  0  0  0  0  0  0  0
   13.2936   48.0383  132.1118 H   0  0  0  0  0  0  0  0  0  0  0  0
    8.0416   45.4451  133.9081 H   0  0  0  0  0  0  0  0  0  0  0  0
   11.6136   42.4963  132.2691 C   0  0  0  0  0  0  0  0  0  0  0  0
   12.4647   41.9386  132.9738 O   0  0  0  0  0  0  0  0  0  0  0  0
   10.9239   41.8241  131.3709 O   0  0  0  0  0  0  0  0  0  0  0  0
    9.7344   41.7609  130.7476 C   0  0  0  0  0  0  0  0  0  0  0  0
   10.2455   44.0160  130.0158 C   0  0  0  0  0  0  0  0  0  0  0  0
   11.2950   44.1267  128.9365 C   0  0  0  0  0  0  0  0  0  0  0  0
   10.9217   43.2119  127.8206 C   0  0  0  0  0  0  0  0  0  0  0  0
    9.7612   42.3526  128.3040 C   0  0  0  0  0  0  0  0  0  0  0  0
    9.4641   42.7430  129.6725 C   0  0  0  0  0  0  0  0  0  0  0  0
    8.0372   44.2859  128.4351 O   0  0  0  0  0  0  0  0  0  0  0  0
    8.2706   45.2539  129.2168 C   0  0  0  0  0  0  0  0  0  0  0  0
    9.3891   45.1850  130.0572 N   0  0  0  0  0  0  0  0  0  0  0  0
    9.6055   45.9794  130.7139 H   0  0  0  0  0  0  0  0  0  0  0  0
    7.3742   46.3770  129.2027 C   0  0  0  0  0  0  0  0  0  0  0  0
    6.3934   46.5005  130.1553 C   0  0  0  0  0  0  0  0  0  0  0  0
    5.5152   47.5871  130.1502 C   0  0  0  0  0  0  0  0  0  0  0  0
    5.6363   48.5469  129.1757 C   0  0  0  0  0  0  0  0  0  0  0  0
    4.7684   49.6412  129.1532 O   0  0  0  0  0  0  0  0  0  0  0  0
    6.6226   48.4209  128.2194 C   0  0  0  0  0  0  0  0  0  0  0  0
    7.4921   47.3541  128.2166 C   0  0  0  0  0  0  0  0  0  0  0  0
    4.9780   50.4918  129.6417 H   0  0  0  0  0  0  0  0  0  0  0  0
   10.5821   48.0894  132.9732 C   0  0  0  0  0  0  0  0  0  0  0  0
   10.9684   48.6437  134.1000 O   0  0  0  0  0  0  0  0  0  0  0  0
    9.8834   48.9690  132.0726 C   0  0  0  0  0  0  0  0  0  0  0  0
    9.9393   48.5496  130.7182 C   0  0  0  0  0  0  0  0  0  0  0  0
   10.6158   47.3819  130.3946 O   0  0  0  0  0  0  0  0  0  0  0  0
    9.3496   49.2544  129.7150 C   0  0  0  0  0  0  0  0  0  0  0  0
    8.6882   50.4048  130.0678 C   0  0  0  0  0  0  0  0  0  0  0  0
    8.6213   50.8332  131.3559 C   0  0  0  0  0  0  0  0  0  0  0  0
    9.2393   50.1050  132.4169 C   0  0  0  0  0  0  0  0  0  0  0  0
   10.6476   47.0955  129.4318 H   0  0  0  0  0  0  0  0  0  0  0  0
    9.2975   50.7626  133.7029 C   0  0  0  0  0  0  0  0  0  0  0  0
    8.7249   50.1810  134.6866 O   0  0  0  0  0  0  0  0  0  0  0  0
    9.8836   51.9421  133.9976 O   0  0  0  0  0  0  0  0  0  0  0  0
    9.7492   52.4997  134.8175 H   0  0  0  0  0  0  0  0  0  0  0  0
 20 21  2  0  0  0
 21 22  1  0  0  0
 22 15  1  0  0  0
 15 16  1  0  0  0
 16 17  1  0  0  0
 17 18  1  0  0  0
 18 19  1  0  0  0
 19 14  1  0  0  0
 14 13  1  0  0  0
 13 11  1  0  0  0
 11 12  2  0  0  0
 11  1  1  0  0  0
  1  2  2  0  0  0
  2  3  1  0  0  0
  3  4  1  0  0  0
  3  5  2  0  0  0
  5 32  1  0  0  0
 32 33  2  0  0  0
 32 34  1  0  0  0
 34 35  2  0  0  0
 35 36  1  0  0  0
 35 37  1  0  0  0
 37 38  2  0  0  0
 38 39  1  0  0  0
 39 40  2  0  0  0
 40 42  1  0  0  0
 42 43  2  0  0  0
 42 44  1  0  0  0
  5  6  1  0  0  0
  6  7  1  0  0  0
  6  8  2  0  0  0
 21 24  1  0  0  0
 24 25  2  0  0  0
 25 26  1  0  0  0
 26 27  2  0  0  0
 27 28  1  0  0  0
 27 29  1  0  0  0
 29 30  2  0  0  0
 19 15  1  0  0  0
  8  1  1  0  0  0
 30 24  1  0  0  0
 40 34  1  0  0  0
 22 23  1  0  0  0
  4  9  1  0  0  0
 36 41  1  0  0  0
 44 45  1  0  0  0
  7 10  1  0  0  0
 28 31  1  0  0  0
M  END
> <minimizedAffinity>
7.43327

> <CNNscore>
0.3591614664

> <CNNaffinity>
6.9388380051

> <CNN_VS>
2.4921631813

> <CNNaffinity_variance>
0.4222211838

$$$$
[H]OC(=O)c1c([H])c([H])c([H])c(O[H])c1C(=O)c1c(O[H])c([H])c(C(=O)OC([H])([H])[C@]2([H])C([H])([H])C([H])([H])C([H])([H])[C@@]2([H])N([H])C(=O)c2c([H])c([H])c(O[H])c([H])c2[H])c([H])c1O[H]


 45 48  0  0  0  0  0  0  0  0999 V2000
    9.2474   48.9596  132.0959 C   0  0  0  0  0  0  0  0  0  0  0  0
   10.2600   48.3234  131.4424 C   0  0  0  0  0  0  0  0  0  0  0  0
   10.5012   46.9550  131.6283 C   0  0  0  0  0  0  0  0  0  0  0  0
   11.5442   46.4180  130.9140 O   0  0  0  0  0  0  0  0  0  0  0  0
    9.7298   46.1932  132.4776 C   0  0  0  0  0  0  0  0  0  0  0  0
    8.6912   46.8561  133.1464 C   0  0  0  0  0  0  0  0  0  0  0  0
    7.8404   46.1867  134.0451 O   0  0  0  0  0  0  0  0  0  0  0  0
    8.4779   48.1988  132.9428 C   0  0  0  0  0  0  0  0  0  0  0  0
   11.8910   45.5075  130.8523 H   0  0  0  0  0  0  0  0  0  0  0  0
    7.1133   46.6747  134.5056 H   0  0  0  0  0  0  0  0  0  0  0  0
    8.9794   50.4036  131.9068 C   0  0  0  0  0  0  0  0  0  0  0  0
    9.8374   51.2015  132.3058 O   0  0  0  0  0  0  0  0  0  0  0  0
    7.8694   50.8235  131.3360 O   0  0  0  0  0  0  0  0  0  0  0  0
    7.3421   51.2298  130.1679 C   0  0  0  0  0  0  0  0  0  0  0  0
    6.9416   48.8539  129.8905 C   0  0  0  0  0  0  0  0  0  0  0  0
    5.4916   48.4473  129.7861 C   0  0  0  0  0  0  0  0  0  0  0  0
    4.8418   49.2841  128.7380 C   0  0  0  0  0  0  0  0  0  0  0  0
    5.8285   50.3772  128.3502 C   0  0  0  0  0  0  0  0  0  0  0  0
    7.0252   50.1962  129.1555 C   0  0  0  0  0  0  0  0  0  0  0  0
    6.8112   46.2053  130.5356 O   0  0  0  0  0  0  0  0  0  0  0  0
    7.6978   46.5177  129.6878 C   0  0  0  0  0  0  0  0  0  0  0  0
    7.8235   47.8605  129.3098 N   0  0  0  0  0  0  0  0  0  0  0  0
    8.5559   48.1450  128.6086 H   0  0  0  0  0  0  0  0  0  0  0  0
    8.5324   45.4764  129.1545 C   0  0  0  0  0  0  0  0  0  0  0  0
    9.6285   45.7832  128.3871 C   0  0  0  0  0  0  0  0  0  0  0  0
   10.4457   44.7791  127.8618 C   0  0  0  0  0  0  0  0  0  0  0  0
   10.1466   43.4638  128.1185 C   0  0  0  0  0  0  0  0  0  0  0  0
   10.9512   42.4449  127.6029 O   0  0  0  0  0  0  0  0  0  0  0  0
    9.0447   43.1575  128.8900 C   0  0  0  0  0  0  0  0  0  0  0  0
    8.2341   44.1400  129.4115 C   0  0  0  0  0  0  0  0  0  0  0  0
   11.7392   42.0866  128.1096 H   0  0  0  0  0  0  0  0  0  0  0  0
    9.9865   44.8429  132.8592 C   0  0  0  0  0  0  0  0  0  0  0  0
    8.9789   44.0436  132.5904 O   0  0  0  0  0  0  0  0  0  0  0  0
   11.1274   44.2006  133.4580 C   0  0  0  0  0  0  0  0  0  0  0  0
   11.1419   44.2830  134.8745 C   0  0  0  0  0  0  0  0  0  0  0  0
   10.1035   44.9300  135.5293 O   0  0  0  0  0  0  0  0  0  0  0  0
   12.1438   43.7470  135.6227 C   0  0  0  0  0  0  0  0  0  0  0  0
   13.1563   43.1136  134.9452 C   0  0  0  0  0  0  0  0  0  0  0  0
   13.1712   43.0226  133.5891 C   0  0  0  0  0  0  0  0  0  0  0  0
   12.1282   43.5843  132.7926 C   0  0  0  0  0  0  0  0  0  0  0  0
   10.1252   44.9811  136.5328 H   0  0  0  0  0  0  0  0  0  0  0  0
   12.3566   43.6259  131.3659 C   0  0  0  0  0  0  0  0  0  0  0  0
   11.5709   42.9419  130.6250 O   0  0  0  0  0  0  0  0  0  0  0  0
   13.3212   44.3016  130.7068 O   0  0  0  0  0  0  0  0  0  0  0  0
   13.6165   44.1708  129.7597 H   0  0  0  0  0  0  0  0  0  0  0  0
 20 21  2  0  0  0
 21 22  1  0  0  0
 22 15  1  0  0  0
 15 16  1  0  0  0
 16 17  1  0  0  0
 17 18  1  0  0  0
 18 19  1  0  0  0
 19 14  1  0  0  0
 14 13  1  0  0  0
 13 11  1  0  0  0
 11 12  2  0  0  0
 11  1  1  0  0  0
  1  2  2  0  0  0
  2  3  1  0  0  0
  3  4  1  0  0  0
  3  5  2  0  0  0
  5 32  1  0  0  0
 32 33  2  0  0  0
 32 34  1  0  0  0
 34 35  2  0  0  0
 35 36  1  0  0  0
 35 37  1  0  0  0
 37 38  2  0  0  0
 38 39  1  0  0  0
 39 40  2  0  0  0
 40 42  1  0  0  0
 42 43  2  0  0  0
 42 44  1  0  0  0
  5  6  1  0  0  0
  6  7  1  0  0  0
  6  8  2  0  0  0
 21 24  1  0  0  0
 24 25  2  0  0  0
 25 26  1  0  0  0
 26 27  2  0  0  0
 27 28  1  0  0  0
 27 29  1  0  0  0
 29 30  2  0  0  0
 19 15  1  0  0  0
  8  1  1  0  0  0
 30 24  1  0  0  0
 40 34  1  0  0  0
 22 23  1  0  0  0
  4  9  1  0  0  0
 36 41  1  0  0  0
 44 45  1  0  0  0
  7 10  1  0  0  0
 28 31  1  0  0  0
M  END
> <minimizedAffinity>
5.25663

> <CNNscore>
0.3584210277

> <CNNaffinity>
6.7652978897

> <CNN_VS>
2.4248249531

> <CNNaffinity_variance>
1.0715787411

$$$$
[H]OC(=O)c1c([H])c([H])c([H])c(O[H])c1C(=O)c1c(O[H])c([H])c(C(=O)OC([H])([H])[C@]2([H])C([H])([H])C([H])([H])C([H])([H])[C@@]2([H])N([H])C(=O)c2c([H])c([H])c(O[H])c([H])c2[H])c([H])c1O[H]


 45 48  0  0  0  0  0  0  0  0999 V2000
    9.6453   43.4353  130.4518 C   0  0  0  0  0  0  0  0  0  0  0  0
   10.2408   44.0921  129.4168 C   0  0  0  0  0  0  0  0  0  0  0  0
    9.7168   45.2926  128.9173 C   0  0  0  0  0  0  0  0  0  0  0  0
   10.4025   45.8699  127.8767 O   0  0  0  0  0  0  0  0  0  0  0  0
    8.5796   45.8612  129.4465 C   0  0  0  0  0  0  0  0  0  0  0  0
    7.9730   45.1783  130.5101 C   0  0  0  0  0  0  0  0  0  0  0  0
    6.8028   45.6560  131.1281 O   0  0  0  0  0  0  0  0  0  0  0  0
    8.5109   44.0035  130.9795 C   0  0  0  0  0  0  0  0  0  0  0  0
   10.2581   46.6988  127.3816 H   0  0  0  0  0  0  0  0  0  0  0  0
    6.3922   45.1576  131.8777 H   0  0  0  0  0  0  0  0  0  0  0  0
   10.1894   42.1683  130.9914 C   0  0  0  0  0  0  0  0  0  0  0  0
    9.7584   41.1111  130.5131 O   0  0  0  0  0  0  0  0  0  0  0  0
   11.0977   42.1659  131.9450 O   0  0  0  0  0  0  0  0  0  0  0  0
   12.3307   42.5967  132.2635 C   0  0  0  0  0  0  0  0  0  0  0  0
   11.0452   44.2094  133.5397 C   0  0  0  0  0  0  0  0  0  0  0  0
   10.6928   43.7920  134.9469 C   0  0  0  0  0  0  0  0  0  0  0  0
   11.9397   43.3511  135.6340 C   0  0  0  0  0  0  0  0  0  0  0  0
   13.0366   43.2701  134.5809 C   0  0  0  0  0  0  0  0  0  0  0  0
   12.4501   43.6437  133.3043 C   0  0  0  0  0  0  0  0  0  0  0  0
    8.8392   45.7019  134.1350 O   0  0  0  0  0  0  0  0  0  0  0  0
    9.8377   46.3507  133.7055 C   0  0  0  0  0  0  0  0  0  0  0  0
   11.0052   45.6496  133.3783 N   0  0  0  0  0  0  0  0  0  0  0  0
   11.8477   46.1673  133.0161 H   0  0  0  0  0  0  0  0  0  0  0  0
    9.7228   47.7773  133.5754 C   0  0  0  0  0  0  0  0  0  0  0  0
    8.4902   48.3727  133.4716 C   0  0  0  0  0  0  0  0  0  0  0  0
    8.3666   49.7584  133.3427 C   0  0  0  0  0  0  0  0  0  0  0  0
    9.4977   50.5366  133.3199 C   0  0  0  0  0  0  0  0  0  0  0  0
    9.3957   51.9239  133.1920 O   0  0  0  0  0  0  0  0  0  0  0  0
   10.7354   49.9363  133.4243 C   0  0  0  0  0  0  0  0  0  0  0  0
   10.8667   48.5722  133.5516 C   0  0  0  0  0  0  0  0  0  0  0  0
    9.3222   52.5241  133.9922 H   0  0  0  0  0  0  0  0  0  0  0  0
    7.8777   46.9833  128.9144 C   0  0  0  0  0  0  0  0  0  0  0  0
    7.3923   46.7513  127.7157 O   0  0  0  0  0  0  0  0  0  0  0  0
    7.5931   48.2926  129.4412 C   0  0  0  0  0  0  0  0  0  0  0  0
    6.2489   48.7009  129.2414 C   0  0  0  0  0  0  0  0  0  0  0  0
    5.3654   47.8440  128.6004 O   0  0  0  0  0  0  0  0  0  0  0  0
    5.7883   49.9114  129.6577 C   0  0  0  0  0  0  0  0  0  0  0  0
    6.6869   50.7361  130.2884 C   0  0  0  0  0  0  0  0  0  0  0  0
    7.9812   50.3736  130.4903 C   0  0  0  0  0  0  0  0  0  0  0  0
    8.4778   49.1082  130.0545 C   0  0  0  0  0  0  0  0  0  0  0  0
    4.4160   48.1447  128.4654 H   0  0  0  0  0  0  0  0  0  0  0  0
    9.9095   48.9197  130.1186 C   0  0  0  0  0  0  0  0  0  0  0  0
   10.6465   49.9449  129.9191 O   0  0  0  0  0  0  0  0  0  0  0  0
   10.5780   47.7718  130.3571 O   0  0  0  0  0  0  0  0  0  0  0  0
   11.5482   47.5882  130.1949 H   0  0  0  0  0  0  0  0  0  0  0  0
 20 21  2  0  0  0
 21 22  1  0  0  0
 22 15  1  0  0  0
 15 16  1  0  0  0
 16 17  1  0  0  0
 17 18  1  0  0  0
 18 19  1  0  0  0
 19 14  1  0  0  0
 14 13  1  0  0  0
 13 11  1  0  0  0
 11 12  2  0  0  0
 11  1  1  0  0  0
  1  2  2  0  0  0
  2  3  1  0  0  0
  3  4  1  0  0  0
  3  5  2  0  0  0
  5 32  1  0  0  0
 32 33  2  0  0  0
 32 34  1  0  0  0
 34 35  2  0  0  0
 35 36  1  0  0  0
 35 37  1  0  0  0
 37 38  2  0  0  0
 38 39  1  0  0  0
 39 40  2  0  0  0
 40 42  1  0  0  0
 42 43  2  0  0  0
 42 44  1  0  0  0
  5  6  1  0  0  0
  6  7  1  0  0  0
  6  8  2  0  0  0
 21 24  1  0  0  0
 24 25  2  0  0  0
 25 26  1  0  0  0
 26 27  2  0  0  0
 27 28  1  0  0  0
 27 29  1  0  0  0
 29 30  2  0  0  0
 19 15  1  0  0  0
  8  1  1  0  0  0
 30 24  1  0  0  0
 40 34  1  0  0  0
 22 23  1  0  0  0
  4  9  1  0  0  0
 36 41  1  0  0  0
 44 45  1  0  0  0
  7 10  1  0  0  0
 28 31  1  0  0  0
M  END
> <minimizedAffinity>
4.32946

> <CNNscore>
0.3408886194

> <CNNaffinity>
6.7892227173

> <CNN_VS>
2.3143687248

> <CNNaffinity_variance>
0.9771252871

$$$$
[H]OC(=O)c1c([H])c([H])c([H])c(O[H])c1C(=O)c1c(O[H])c([H])c(C(=O)OC([H])([H])[C@]2([H])C([H])([H])C([H])([H])C([H])([H])[C@@]2([H])N([H])C(=O)c2c([H])c([H])c(O[H])c([H])c2[H])c([H])c1O[H]


 45 48  0  0  0  0  0  0  0  0999 V2000
    9.1263   48.1898  129.3103 C   0  0  0  0  0  0  0  0  0  0  0  0
    9.3865   48.3469  130.6387 C   0  0  0  0  0  0  0  0  0  0  0  0
   10.3732   47.5878  131.2831 C   0  0  0  0  0  0  0  0  0  0  0  0
   10.5535   47.8343  132.6221 O   0  0  0  0  0  0  0  0  0  0  0  0
   11.1219   46.6506  130.6065 C   0  0  0  0  0  0  0  0  0  0  0  0
   10.8468   46.4949  129.2406 C   0  0  0  0  0  0  0  0  0  0  0  0
   11.5399   45.5640  128.4450 O   0  0  0  0  0  0  0  0  0  0  0  0
    9.8740   47.2548  128.6357 C   0  0  0  0  0  0  0  0  0  0  0  0
   11.1782   47.4638  133.2744 H   0  0  0  0  0  0  0  0  0  0  0  0
   11.3295   45.4715  127.4828 H   0  0  0  0  0  0  0  0  0  0  0  0
    8.0893   48.9868  128.6161 C   0  0  0  0  0  0  0  0  0  0  0  0
    8.0792   50.2086  128.8141 O   0  0  0  0  0  0  0  0  0  0  0  0
    7.2101   48.4173  127.8181 O   0  0  0  0  0  0  0  0  0  0  0  0
    6.6365   47.2420  127.5060 C   0  0  0  0  0  0  0  0  0  0  0  0
    6.8252   46.7847  129.8804 C   0  0  0  0  0  0  0  0  0  0  0  0
    5.8356   47.5074  130.7619 C   0  0  0  0  0  0  0  0  0  0  0  0
    4.4662   47.2765  130.2209 C   0  0  0  0  0  0  0  0  0  0  0  0
    4.6193   46.6026  128.8640 C   0  0  0  0  0  0  0  0  0  0  0  0
    6.0418   46.4490  128.6065 C   0  0  0  0  0  0  0  0  0  0  0  0
    6.9738   46.5144  132.5920 O   0  0  0  0  0  0  0  0  0  0  0  0
    7.3972   45.5280  131.9211 C   0  0  0  0  0  0  0  0  0  0  0  0
    7.3528   45.5970  130.5228 N   0  0  0  0  0  0  0  0  0  0  0  0
    7.7023   44.7901  129.9432 H   0  0  0  0  0  0  0  0  0  0  0  0
    7.9029   44.3844  132.6293 C   0  0  0  0  0  0  0  0  0  0  0  0
    7.6792   43.1148  132.1575 C   0  0  0  0  0  0  0  0  0  0  0  0
    8.1644   41.9957  132.8388 C   0  0  0  0  0  0  0  0  0  0  0  0
    8.8770   42.1701  133.9996 C   0  0  0  0  0  0  0  0  0  0  0  0
    9.3710   41.0643  134.6957 O   0  0  0  0  0  0  0  0  0  0  0  0
    9.1007   43.4467  134.4720 C   0  0  0  0  0  0  0  0  0  0  0  0
    8.6266   44.5549  133.8076 C   0  0  0  0  0  0  0  0  0  0  0  0
   10.2810   40.6860  134.5089 H   0  0  0  0  0  0  0  0  0  0  0  0
   12.0299   45.7201  131.1934 C   0  0  0  0  0  0  0  0  0  0  0  0
   13.2813   46.1083  131.0965 O   0  0  0  0  0  0  0  0  0  0  0  0
   11.8345   44.4662  131.8734 C   0  0  0  0  0  0  0  0  0  0  0  0
   11.4526   43.4088  131.0078 C   0  0  0  0  0  0  0  0  0  0  0  0
   11.3192   43.6561  129.6488 O   0  0  0  0  0  0  0  0  0  0  0  0
   11.2098   42.1498  131.4626 C   0  0  0  0  0  0  0  0  0  0  0  0
   11.3504   41.9375  132.8119 C   0  0  0  0  0  0  0  0  0  0  0  0
   11.7112   42.9317  133.6656 C   0  0  0  0  0  0  0  0  0  0  0  0
   11.9645   44.2576  133.2015 C   0  0  0  0  0  0  0  0  0  0  0  0
   11.0486   42.8986  129.0463 H   0  0  0  0  0  0  0  0  0  0  0  0
   12.1197   45.2774  134.2141 C   0  0  0  0  0  0  0  0  0  0  0  0
   11.1184   45.5074  134.9746 O   0  0  0  0  0  0  0  0  0  0  0  0
   13.2078   46.0390  134.4543 O   0  0  0  0  0  0  0  0  0  0  0  0
   13.2550   46.8776  134.9981 H   0  0  0  0  0  0  0  0  0  0  0  0
 20 21  2  0  0  0
 21 22  1  0  0  0
 22 15  1  0  0  0
 15 16  1  0  0  0
 16 17  1  0  0  0
 17 18  1  0  0  0
 18 19  1  0  0  0
 19 14  1  0  0  0
 14 13  1  0  0  0
 13 11  1  0  0  0
 11 12  2  0  0  0
 11  1  1  0  0  0
  1  2  2  0  0  0
  2  3  1  0  0  0
  3  4  1  0  0  0
  3  5  2  0  0  0
  5 32  1  0  0  0
 32 33  2  0  0  0
 32 34  1  0  0  0
 34 35  2  0  0  0
 35 36  1  0  0  0
 35 37  1  0  0  0
 37 38  2  0  0  0
 38 39  1  0  0  0
 39 40  2  0  0  0
 40 42  1  0  0  0
 42 43  2  0  0  0
 42 44  1  0  0  0
  5  6  1  0  0  0
  6  7  1  0  0  0
  6  8  2  0  0  0
 21 24  1  0  0  0
 24 25  2  0  0  0
 25 26  1  0  0  0
 26 27  2  0  0  0
 27 28  1  0  0  0
 27 29  1  0  0  0
 29 30  2  0  0  0
 19 15  1  0  0  0
  8  1  1  0  0  0
 30 24  1  0  0  0
 40 34  1  0  0  0
 22 23  1  0  0  0
  4  9  1  0  0  0
 36 41  1  0  0  0
 44 45  1  0  0  0
  7 10  1  0  0  0
 28 31  1  0  0  0
M  END
> <minimizedAffinity>
14.40687

> <CNNscore>
0.3232353926

> <CNNaffinity>
6.3528900146

> <CNN_VS>
2.0534789562

> <CNNaffinity_variance>
0.4320681691

$$$$
[H]OC(=O)c1c([H])c([H])c([H])c(O[H])c1C(=O)c1c(O[H])c([H])c(C(=O)OC([H])([H])[C@]2([H])C([H])([H])C([H])([H])C([H])([H])[C@@]2([H])N([H])C(=O)c2c([H])c([H])c(O[H])c([H])c2[H])c([H])c1O[H]


 45 48  0  0  0  0  0  0  0  0999 V2000
    9.3583   46.7771  134.4166 C   0  0  0  0  0  0  0  0  0  0  0  0
    8.4342   46.0788  133.6986 C   0  0  0  0  0  0  0  0  0  0  0  0
    8.1623   46.3926  132.3597 C   0  0  0  0  0  0  0  0  0  0  0  0
    7.2166   45.6188  131.7328 O   0  0  0  0  0  0  0  0  0  0  0  0
    8.8131   47.4182  131.7104 C   0  0  0  0  0  0  0  0  0  0  0  0
    9.7613   48.1318  132.4570 C   0  0  0  0  0  0  0  0  0  0  0  0
   10.4850   49.2053  131.9060 O   0  0  0  0  0  0  0  0  0  0  0  0
   10.0075   47.7999  133.7681 C   0  0  0  0  0  0  0  0  0  0  0  0
    6.8747   45.6211  130.8184 H   0  0  0  0  0  0  0  0  0  0  0  0
   11.1498   49.6945  132.4515 H   0  0  0  0  0  0  0  0  0  0  0  0
    9.6577   46.4546  135.8305 C   0  0  0  0  0  0  0  0  0  0  0  0
    9.7586   47.3995  136.6236 O   0  0  0  0  0  0  0  0  0  0  0  0
    9.8114   45.2091  136.2294 O   0  0  0  0  0  0  0  0  0  0  0  0
   10.7207   44.2332  136.3984 C   0  0  0  0  0  0  0  0  0  0  0  0
   11.3028   44.7855  134.1097 C   0  0  0  0  0  0  0  0  0  0  0  0
   12.7243   45.2455  133.8938 C   0  0  0  0  0  0  0  0  0  0  0  0
   13.6417   44.2483  134.5144 C   0  0  0  0  0  0  0  0  0  0  0  0
   12.7862   43.2835  135.3244 C   0  0  0  0  0  0  0  0  0  0  0  0
   11.4014   43.7061  135.1933 C   0  0  0  0  0  0  0  0  0  0  0  0
   12.0570   45.6445  131.6315 O   0  0  0  0  0  0  0  0  0  0  0  0
   11.1475   44.7642  131.6508 C   0  0  0  0  0  0  0  0  0  0  0  0
   10.7090   44.2773  132.8887 N   0  0  0  0  0  0  0  0  0  0  0  0
    9.9513   43.5471  132.9303 H   0  0  0  0  0  0  0  0  0  0  0  0
   10.6098   44.3076  130.3988 C   0  0  0  0  0  0  0  0  0  0  0  0
   11.1113   44.7765  129.2100 C   0  0  0  0  0  0  0  0  0  0  0  0
   10.5950   44.3411  127.9870 C   0  0  0  0  0  0  0  0  0  0  0  0
    9.5690   43.4285  127.9752 C   0  0  0  0  0  0  0  0  0  0  0  0
    9.0390   42.9803  126.7630 O   0  0  0  0  0  0  0  0  0  0  0  0
    9.0665   42.9585  129.1709 C   0  0  0  0  0  0  0  0  0  0  0  0
    9.5688   43.3818  130.3803 C   0  0  0  0  0  0  0  0  0  0  0  0
    9.4053   42.1738  126.2924 H   0  0  0  0  0  0  0  0  0  0  0  0
    8.5009   47.9206  130.4124 C   0  0  0  0  0  0  0  0  0  0  0  0
    9.5637   48.0383  129.6491 O   0  0  0  0  0  0  0  0  0  0  0  0
    7.2604   48.3009  129.7884 C   0  0  0  0  0  0  0  0  0  0  0  0
    6.6199   47.2322  129.1094 C   0  0  0  0  0  0  0  0  0  0  0  0
    7.2055   45.9741  129.1148 O   0  0  0  0  0  0  0  0  0  0  0  0
    5.4427   47.3946  128.4470 C   0  0  0  0  0  0  0  0  0  0  0  0
    4.8890   48.6510  128.4604 C   0  0  0  0  0  0  0  0  0  0  0  0
    5.4814   49.6944  129.0989 C   0  0  0  0  0  0  0  0  0  0  0  0
    6.7186   49.5381  129.7937 C   0  0  0  0  0  0  0  0  0  0  0  0
    6.7416   45.2255  128.6306 H   0  0  0  0  0  0  0  0  0  0  0  0
    7.3655   50.7509  130.2411 C   0  0  0  0  0  0  0  0  0  0  0  0
    6.8191   51.8609  129.9201 O   0  0  0  0  0  0  0  0  0  0  0  0
    8.5023   50.8593  130.9605 O   0  0  0  0  0  0  0  0  0  0  0  0
    9.0642   51.6770  131.0901 H   0  0  0  0  0  0  0  0  0  0  0  0
 20 21  2  0  0  0
 21 22  1  0  0  0
 22 15  1  0  0  0
 15 16  1  0  0  0
 16 17  1  0  0  0
 17 18  1  0  0  0
 18 19  1  0  0  0
 19 14  1  0  0  0
 14 13  1  0  0  0
 13 11  1  0  0  0
 11 12  2  0  0  0
 11  1  1  0  0  0
  1  2  2  0  0  0
  2  3  1  0  0  0
  3  4  1  0  0  0
  3  5  2  0  0  0
  5 32  1  0  0  0
 32 33  2  0  0  0
 32 34  1  0  0  0
 34 35  2  0  0  0
 35 36  1  0  0  0
 35 37  1  0  0  0
 37 38  2  0  0  0
 38 39  1  0  0  0
 39 40  2  0  0  0
 40 42  1  0  0  0
 42 43  2  0  0  0
 42 44  1  0  0  0
  5  6  1  0  0  0
  6  7  1  0  0  0
  6  8  2  0  0  0
 21 24  1  0  0  0
 24 25  2  0  0  0
 25 26  1  0  0  0
 26 27  2  0  0  0
 27 28  1  0  0  0
 27 29  1  0  0  0
 29 30  2  0  0  0
 19 15  1  0  0  0
  8  1  1  0  0  0
 30 24  1  0  0  0
 40 34  1  0  0  0
 22 23  1  0  0  0
  4  9  1  0  0  0
 36 41  1  0  0  0
 44 45  1  0  0  0
  7 10  1  0  0  0
 28 31  1  0  0  0
M  END
> <minimizedAffinity>
0.98110

> <CNNscore>
0.3159798384

> <CNNaffinity>
7.0679078102

> <CNN_VS>
2.2333164215

> <CNNaffinity_variance>
0.7087262869

$$$$
[H]OC(=O)C([H])([H])C([H])([H])c1c2c(n([H])c1C([H])=C1C(=O)N([H])c3c([H])c([H])c(S(=O)(=O)N([H])C([H])([H])[H])c([H])c31)C([H])([H])C([H])([H])C([H])([H])C2=O


 35 38  0  0  0  0  0  0  0  0999 V2000
   10.0326   44.7038  128.1037 C   0  0  0  0  0  0  0  0  0  0  0  0
   10.3526   45.7100  127.2176 C   0  0  0  0  0  0  0  0  0  0  0  0
   10.3232   47.0299  127.5970 C   0  0  0  0  0  0  0  0  0  0  0  0
    9.9685   47.4126  128.8968 C   0  0  0  0  0  0  0  0  0  0  0  0
    9.6480   46.4123  129.7859 C   0  0  0  0  0  0  0  0  0  0  0  0
    9.6883   45.0833  129.3663 C   0  0  0  0  0  0  0  0  0  0  0  0
    9.3041   46.9837  131.1046 C   0  0  0  0  0  0  0  0  0  0  0  0
    8.9794   46.3064  132.1757 C   0  0  0  0  0  0  0  0  0  0  0  0
    9.4564   48.4151  130.8963 C   0  0  0  0  0  0  0  0  0  0  0  0
    9.2736   49.3279  131.7419 O   0  0  0  0  0  0  0  0  0  0  0  0
    9.8635   48.6662  129.5386 N   0  0  0  0  0  0  0  0  0  0  0  0
   10.0504   49.5836  129.0932 H   0  0  0  0  0  0  0  0  0  0  0  0
    8.6343   46.8400  133.4785 C   0  0  0  0  0  0  0  0  0  0  0  0
    7.6278   47.5906  133.9216 N   0  0  0  0  0  0  0  0  0  0  0  0
    7.7553   47.8556  135.2361 C   0  0  0  0  0  0  0  0  0  0  0  0
    8.9068   47.2480  135.6887 C   0  0  0  0  0  0  0  0  0  0  0  0
    9.4510   46.6167  134.5923 C   0  0  0  0  0  0  0  0  0  0  0  0
    9.2541   47.3973  137.0907 C   0  0  0  0  0  0  0  0  0  0  0  0
    9.9256   46.4810  137.6243 O   0  0  0  0  0  0  0  0  0  0  0  0
    8.8446   48.5824  137.8954 C   0  0  0  0  0  0  0  0  0  0  0  0
    7.9747   49.4840  137.0085 C   0  0  0  0  0  0  0  0  0  0  0  0
    6.9618   48.6205  136.2463 C   0  0  0  0  0  0  0  0  0  0  0  0
    6.8304   47.9309  133.3764 H   0  0  0  0  0  0  0  0  0  0  0  0
   10.6902   45.8401  134.6312 C   0  0  0  0  0  0  0  0  0  0  0  0
   10.8628   44.8944  133.4641 C   0  0  0  0  0  0  0  0  0  0  0  0
   11.7681   43.8135  133.9092 C   0  0  0  0  0  0  0  0  0  0  0  0
   12.6601   43.3702  133.1616 O   0  0  0  0  0  0  0  0  0  0  0  0
   11.6234   43.2851  135.1761 O   0  0  0  0  0  0  0  0  0  0  0  0
   10.7732   42.8540  135.5140 H   0  0  0  0  0  0  0  0  0  0  0  0
   10.0691   43.0222  127.6557 S   0  0  0  0  0  0  0  0  0  0  0  0
   11.4197   42.7510  127.0545 O   0  0  0  0  0  0  0  0  0  0  0  0
    9.0360   42.7133  126.6319 O   0  0  0  0  0  0  0  0  0  0  0  0
    9.1293   42.5859  130.0744 C   0  0  0  0  0  0  0  0  0  0  0  0
    9.8771   41.9669  128.9958 N   0  0  0  0  0  0  0  0  0  0  0  0
   10.7411   41.5172  129.3056 H   0  0  0  0  0  0  0  0  0  0  0  0
 33 34  1  0  0  0
 34 30  1  0  0  0
 30 31  2  0  0  0
 30 32  2  0  0  0
 30  1  1  0  0  0
  1  2  2  0  0  0
  2  3  1  0  0  0
  3  4  2  0  0  0
  4  5  1  0  0  0
  5  6  2  0  0  0
  5  7  1  0  0  0
  7  8  2  0  0  0
  8 13  1  0  0  0
 13 14  1  0  0  0
 14 15  1  0  0  0
 15 16  2  0  0  0
 16 17  1  0  0  0
 17 24  1  0  0  0
 24 25  1  0  0  0
 25 26  1  0  0  0
 26 27  2  0  0  0
 26 28  1  0  0  0
 16 18  1  0  0  0
 18 19  2  0  0  0
 18 20  1  0  0  0
 20 21  1  0  0  0
 21 22  1  0  0  0
  7  9  1  0  0  0
  9 10  2  0  0  0
  9 11  1  0  0  0
  6  1  1  0  0  0
 17 13  2  0  0  0
 11  4  1  0  0  0
 22 15  1  0  0  0
 34 35  1  0  0  0
 14 23  1  0  0  0
 28 29  1  0  0  0
 11 12  1  0  0  0
M  END
> <minimizedAffinity>
21.88014

> <CNNscore>
0.5013014078

> <CNNaffinity>
7.1743688583

> <CNN_VS>
3.5965211391

> <CNNaffinity_variance>
0.9745561481

$$$$
[H]OC(=O)C([H])([H])C([H])([H])c1c2c(n([H])c1C([H])=C1C(=O)N([H])c3c([H])c([H])c(S(=O)(=O)N([H])C([H])([H])[H])c([H])c31)C([H])([H])C([H])([H])C([H])([H])C2=O


 35 38  0  0  0  0  0  0  0  0999 V2000
   10.1939   41.9875  127.5481 C   0  0  0  0  0  0  0  0  0  0  0  0
   10.4806   42.8011  126.4729 C   0  0  0  0  0  0  0  0  0  0  0  0
   10.6647   44.1531  126.6313 C   0  0  0  0  0  0  0  0  0  0  0  0
   10.5703   44.7648  127.8877 C   0  0  0  0  0  0  0  0  0  0  0  0
   10.2842   43.9575  128.9650 C   0  0  0  0  0  0  0  0  0  0  0  0
   10.1033   42.5893  128.7673 C   0  0  0  0  0  0  0  0  0  0  0  0
   10.2252   44.7554  130.2074 C   0  0  0  0  0  0  0  0  0  0  0  0
   10.0014   44.2915  131.4099 C   0  0  0  0  0  0  0  0  0  0  0  0
   10.5055   46.1067  129.7480 C   0  0  0  0  0  0  0  0  0  0  0  0
   10.5675   47.1484  130.4499 O   0  0  0  0  0  0  0  0  0  0  0  0
   10.7149   46.1003  128.3238 N   0  0  0  0  0  0  0  0  0  0  0  0
   10.9319   46.9089  127.7123 H   0  0  0  0  0  0  0  0  0  0  0  0
    9.9342   45.0502  132.6432 C   0  0  0  0  0  0  0  0  0  0  0  0
   10.4698   44.8818  133.8504 N   0  0  0  0  0  0  0  0  0  0  0  0
   10.0902   45.8590  134.6962 C   0  0  0  0  0  0  0  0  0  0  0  0
    9.2596   46.7215  134.0133 C   0  0  0  0  0  0  0  0  0  0  0  0
    9.1651   46.2152  132.7361 C   0  0  0  0  0  0  0  0  0  0  0  0
    8.7211   47.8641  134.7295 C   0  0  0  0  0  0  0  0  0  0  0  0
    8.4430   48.8902  134.0624 O   0  0  0  0  0  0  0  0  0  0  0  0
    8.4943   47.8522  136.2020 C   0  0  0  0  0  0  0  0  0  0  0  0
    8.9981   46.5104  136.7514 C   0  0  0  0  0  0  0  0  0  0  0  0
   10.3623   46.1873  136.1291 C   0  0  0  0  0  0  0  0  0  0  0  0
   11.1059   44.1332  134.1400 H   0  0  0  0  0  0  0  0  0  0  0  0
    8.3752   46.8334  131.6710 C   0  0  0  0  0  0  0  0  0  0  0  0
    7.1672   46.0269  131.2509 C   0  0  0  0  0  0  0  0  0  0  0  0
    6.6742   46.6082  129.9840 C   0  0  0  0  0  0  0  0  0  0  0  0
    5.4602   46.8154  129.7986 O   0  0  0  0  0  0  0  0  0  0  0  0
    7.5745   46.9275  128.9877 O   0  0  0  0  0  0  0  0  0  0  0  0
    8.2014   46.2600  128.5584 H   0  0  0  0  0  0  0  0  0  0  0  0
    9.9641   40.2702  127.3811 S   0  0  0  0  0  0  0  0  0  0  0  0
   11.2732   39.6882  126.9265 O   0  0  0  0  0  0  0  0  0  0  0  0
    8.9371   39.9601  126.3515 O   0  0  0  0  0  0  0  0  0  0  0  0
    9.1320   40.4589  129.8702 C   0  0  0  0  0  0  0  0  0  0  0  0
    9.5410   39.5035  128.8574 N   0  0  0  0  0  0  0  0  0  0  0  0
   10.2280   38.8248  129.1920 H   0  0  0  0  0  0  0  0  0  0  0  0
 33 34  1  0  0  0
 34 30  1  0  0  0
 30 31  2  0  0  0
 30 32  2  0  0  0
 30  1  1  0  0  0
  1  2  2  0  0  0
  2  3  1  0  0  0
  3  4  2  0  0  0
  4  5  1  0  0  0
  5  6  2  0  0  0
  5  7  1  0  0  0
  7  8  2  0  0  0
  8 13  1  0  0  0
 13 14  1  0  0  0
 14 15  1  0  0  0
 15 16  2  0  0  0
 16 17  1  0  0  0
 17 24  1  0  0  0
 24 25  1  0  0  0
 25 26  1  0  0  0
 26 27  2  0  0  0
 26 28  1  0  0  0
 16 18  1  0  0  0
 18 19  2  0  0  0
 18 20  1  0  0  0
 20 21  1  0  0  0
 21 22  1  0  0  0
  7  9  1  0  0  0
  9 10  2  0  0  0
  9 11  1  0  0  0
  6  1  1  0  0  0
 17 13  2  0  0  0
 11  4  1  0  0  0
 22 15  1  0  0  0
 34 35  1  0  0  0
 14 23  1  0  0  0
 28 29  1  0  0  0
 11 12  1  0  0  0
M  END
> <minimizedAffinity>
25.32936

> <CNNscore>
0.3890126050

> <CNNaffinity>
6.6210265160

> <CNN_VS>
2.5756628513

> <CNNaffinity_variance>
1.3081519604

$$$$
[H]OC(=O)C([H])([H])C([H])([H])c1c2c(n([H])c1C([H])=C1C(=O)N([H])c3c([H])c([H])c(S(=O)(=O)N([H])C([H])([H])[H])c([H])c31)C([H])([H])C([H])([H])C([H])([H])C2=O


 35 38  0  0  0  0  0  0  0  0999 V2000
   12.3986   44.2065  132.4324 C   0  0  0  0  0  0  0  0  0  0  0  0
   13.2412   43.8104  131.4160 C   0  0  0  0  0  0  0  0  0  0  0  0
   12.9383   44.0625  130.1001 C   0  0  0  0  0  0  0  0  0  0  0  0
   11.7640   44.7312  129.7319 C   0  0  0  0  0  0  0  0  0  0  0  0
   10.9188   45.1290  130.7425 C   0  0  0  0  0  0  0  0  0  0  0  0
   11.2579   44.8562  132.0670 C   0  0  0  0  0  0  0  0  0  0  0  0
    9.7368   45.8193  130.1858 C   0  0  0  0  0  0  0  0  0  0  0  0
    8.7564   46.3439  130.8751 C   0  0  0  0  0  0  0  0  0  0  0  0
    9.9769   45.7851  128.7517 C   0  0  0  0  0  0  0  0  0  0  0  0
    9.2400   46.2564  127.8482 O   0  0  0  0  0  0  0  0  0  0  0  0
   11.2227   45.1148  128.4852 N   0  0  0  0  0  0  0  0  0  0  0  0
   11.6604   44.9356  127.5626 H   0  0  0  0  0  0  0  0  0  0  0  0
    7.5852   47.0220  130.3561 C   0  0  0  0  0  0  0  0  0  0  0  0
    6.6598   46.6904  129.4581 N   0  0  0  0  0  0  0  0  0  0  0  0
    5.7625   47.6809  129.2898 C   0  0  0  0  0  0  0  0  0  0  0  0
    6.1109   48.7240  130.1208 C   0  0  0  0  0  0  0  0  0  0  0  0
    7.2454   48.3103  130.7830 C   0  0  0  0  0  0  0  0  0  0  0  0
    5.2793   49.9143  130.1109 C   0  0  0  0  0  0  0  0  0  0  0  0
    5.2325   50.5998  131.1613 O   0  0  0  0  0  0  0  0  0  0  0  0
    4.4976   50.3353  128.9146 C   0  0  0  0  0  0  0  0  0  0  0  0
    4.6844   49.2714  127.8239 C   0  0  0  0  0  0  0  0  0  0  0  0
    4.5438   47.8767  128.4463 C   0  0  0  0  0  0  0  0  0  0  0  0
    6.5886   45.8044  128.9495 H   0  0  0  0  0  0  0  0  0  0  0  0
    7.9517   49.1220  131.7743 C   0  0  0  0  0  0  0  0  0  0  0  0
    8.8185   50.2081  131.1783 C   0  0  0  0  0  0  0  0  0  0  0  0
    9.1538   49.7910  129.8001 C   0  0  0  0  0  0  0  0  0  0  0  0
   10.1907   49.1459  129.5555 O   0  0  0  0  0  0  0  0  0  0  0  0
    8.3033   50.1217  128.7646 O   0  0  0  0  0  0  0  0  0  0  0  0
    8.0467   51.0705  128.5261 H   0  0  0  0  0  0  0  0  0  0  0  0
   12.7587   43.9097  134.1093 S   0  0  0  0  0  0  0  0  0  0  0  0
   13.3029   45.1890  134.6807 O   0  0  0  0  0  0  0  0  0  0  0  0
   13.7972   42.8564  134.2607 O   0  0  0  0  0  0  0  0  0  0  0  0
   10.4748   44.6042  135.2161 C   0  0  0  0  0  0  0  0  0  0  0  0
   11.3732   43.4803  135.0270 N   0  0  0  0  0  0  0  0  0  0  0  0
   11.5797   42.9747  135.8909 H   0  0  0  0  0  0  0  0  0  0  0  0
 33 34  1  0  0  0
 34 30  1  0  0  0
 30 31  2  0  0  0
 30 32  2  0  0  0
 30  1  1  0  0  0
  1  2  2  0  0  0
  2  3  1  0  0  0
  3  4  2  0  0  0
  4  5  1  0  0  0
  5  6  2  0  0  0
  5  7  1  0  0  0
  7  8  2  0  0  0
  8 13  1  0  0  0
 13 14  1  0  0  0
 14 15  1  0  0  0
 15 16  2  0  0  0
 16 17  1  0  0  0
 17 24  1  0  0  0
 24 25  1  0  0  0
 25 26  1  0  0  0
 26 27  2  0  0  0
 26 28  1  0  0  0
 16 18  1  0  0  0
 18 19  2  0  0  0
 18 20  1  0  0  0
 20 21  1  0  0  0
 21 22  1  0  0  0
  7  9  1  0  0  0
  9 10  2  0  0  0
  9 11  1  0  0  0
  6  1  1  0  0  0
 17 13  2  0  0  0
 11  4  1  0  0  0
 22 15  1  0  0  0
 34 35  1  0  0  0
 14 23  1  0  0  0
 28 29  1  0  0  0
 11 12  1  0  0  0
M  END
> <minimizedAffinity>
9.86118

> <CNNscore>
0.3866394460

> <CNNaffinity>
6.9818410873

> <CNN_VS>
2.6994552612

> <CNNaffinity_variance>
0.4414456487

$$$$
[H]OC(=O)C([H])([H])C([H])([H])c1c2c(n([H])c1C([H])=C1C(=O)N([H])c3c([H])c([H])c(S(=O)(=O)N([H])C([H])([H])[H])c([H])c31)C([H])([H])C([H])([H])C([H])([H])C2=O


 35 38  0  0  0  0  0  0  0  0999 V2000
    9.7120   41.9671  129.2086 C   0  0  0  0  0  0  0  0  0  0  0  0
   10.1117   41.9382  127.8897 C   0  0  0  0  0  0  0  0  0  0  0  0
   10.5028   43.0825  127.2383 C   0  0  0  0  0  0  0  0  0  0  0  0
   10.5137   44.3265  127.8817 C   0  0  0  0  0  0  0  0  0  0  0  0
   10.1155   44.3616  129.1986 C   0  0  0  0  0  0  0  0  0  0  0  0
    9.7247   43.1807  129.8282 C   0  0  0  0  0  0  0  0  0  0  0  0
   10.1899   45.7407  129.7243 C   0  0  0  0  0  0  0  0  0  0  0  0
    9.9070   46.1149  130.9456 C   0  0  0  0  0  0  0  0  0  0  0  0
   10.6710   46.5052  128.5845 C   0  0  0  0  0  0  0  0  0  0  0  0
   10.8981   47.7415  128.5422 O   0  0  0  0  0  0  0  0  0  0  0  0
   10.8655   45.6277  127.4600 N   0  0  0  0  0  0  0  0  0  0  0  0
   11.1993   45.8791  126.5112 H   0  0  0  0  0  0  0  0  0  0  0  0
    9.9673   47.4584  131.4863 C   0  0  0  0  0  0  0  0  0  0  0  0
   10.6864   48.0228  132.4543 N   0  0  0  0  0  0  0  0  0  0  0  0
   10.3650   49.3216  132.6103 C   0  0  0  0  0  0  0  0  0  0  0  0
    9.3814   49.6351  131.6969 C   0  0  0  0  0  0  0  0  0  0  0  0
    9.1366   48.4733  130.9990 C   0  0  0  0  0  0  0  0  0  0  0  0
    8.8721   50.9948  131.6788 C   0  0  0  0  0  0  0  0  0  0  0  0
    8.4236   51.4334  130.5917 O   0  0  0  0  0  0  0  0  0  0  0  0
    8.8670   51.8643  132.8886 C   0  0  0  0  0  0  0  0  0  0  0  0
    9.5438   51.0953  134.0318 C   0  0  0  0  0  0  0  0  0  0  0  0
   10.8210   50.4273  133.5074 C   0  0  0  0  0  0  0  0  0  0  0  0
   11.4116   47.5736  133.0209 H   0  0  0  0  0  0  0  0  0  0  0  0
    8.1547   48.3625  129.9202 C   0  0  0  0  0  0  0  0  0  0  0  0
    6.8607   47.6959  130.3295 C   0  0  0  0  0  0  0  0  0  0  0  0
    6.0649   47.4971  129.0994 C   0  0  0  0  0  0  0  0  0  0  0  0
    6.4224   47.9899  128.0129 O   0  0  0  0  0  0  0  0  0  0  0  0
    4.9042   46.7520  129.1545 O   0  0  0  0  0  0  0  0  0  0  0  0
    4.1186   46.9745  129.7514 H   0  0  0  0  0  0  0  0  0  0  0  0
    9.2194   40.5333  130.0639 S   0  0  0  0  0  0  0  0  0  0  0  0
   10.2186   40.3058  131.1635 O   0  0  0  0  0  0  0  0  0  0  0  0
    9.2312   39.3423  129.1738 O   0  0  0  0  0  0  0  0  0  0  0  0
    7.4913   41.9802  131.4219 C   0  0  0  0  0  0  0  0  0  0  0  0
    7.6727   40.6852  130.7926 N   0  0  0  0  0  0  0  0  0  0  0  0
    7.4106   39.9007  131.3931 H   0  0  0  0  0  0  0  0  0  0  0  0
 33 34  1  0  0  0
 34 30  1  0  0  0
 30 31  2  0  0  0
 30 32  2  0  0  0
 30  1  1  0  0  0
  1  2  2  0  0  0
  2  3  1  0  0  0
  3  4  2  0  0  0
  4  5  1  0  0  0
  5  6  2  0  0  0
  5  7  1  0  0  0
  7  8  2  0  0  0
  8 13  1  0  0  0
 13 14  1  0  0  0
 14 15  1  0  0  0
 15 16  2  0  0  0
 16 17  1  0  0  0
 17 24  1  0  0  0
 24 25  1  0  0  0
 25 26  1  0  0  0
 26 27  2  0  0  0
 26 28  1  0  0  0
 16 18  1  0  0  0
 18 19  2  0  0  0
 18 20  1  0  0  0
 20 21  1  0  0  0
 21 22  1  0  0  0
  7  9  1  0  0  0
  9 10  2  0  0  0
  9 11  1  0  0  0
  6  1  1  0  0  0
 17 13  2  0  0  0
 11  4  1  0  0  0
 22 15  1  0  0  0
 34 35  1  0  0  0
 14 23  1  0  0  0
 28 29  1  0  0  0
 11 12  1  0  0  0
M  END
> <minimizedAffinity>
22.53068

> <CNNscore>
0.3832382560

> <CNNaffinity>
6.7937841415

> <CNN_VS>
2.6036379337

> <CNNaffinity_variance>
1.3813146353

$$$$
[H]OC(=O)C([H])([H])C([H])([H])c1c2c(n([H])c1C([H])=C1C(=O)N([H])c3c([H])c([H])c(S(=O)(=O)N([H])C([H])([H])[H])c([H])c31)C([H])([H])C([H])([H])C([H])([H])C2=O


 35 38  0  0  0  0  0  0  0  0999 V2000
    9.5638   41.4907  129.1249 C   0  0  0  0  0  0  0  0  0  0  0  0
   10.3537   41.4055  127.9985 C   0  0  0  0  0  0  0  0  0  0  0  0
   10.8061   42.5335  127.3583 C   0  0  0  0  0  0  0  0  0  0  0  0
   10.4873   43.8171  127.8190 C   0  0  0  0  0  0  0  0  0  0  0  0
    9.6989   43.9084  128.9433 C   0  0  0  0  0  0  0  0  0  0  0  0
    9.2573   42.7425  129.5674 C   0  0  0  0  0  0  0  0  0  0  0  0
    9.4624   45.3241  129.2950 C   0  0  0  0  0  0  0  0  0  0  0  0
    8.7773   45.7579  130.3216 C   0  0  0  0  0  0  0  0  0  0  0  0
   10.1910   46.0483  128.2654 C   0  0  0  0  0  0  0  0  0  0  0  0
   10.2899   47.2960  128.1421 O   0  0  0  0  0  0  0  0  0  0  0  0
   10.8149   45.1139  127.3655 N   0  0  0  0  0  0  0  0  0  0  0  0
   11.3985   45.3275  126.5357 H   0  0  0  0  0  0  0  0  0  0  0  0
    8.5266   47.1378  130.6877 C   0  0  0  0  0  0  0  0  0  0  0  0
    7.6460   48.0473  130.2754 N   0  0  0  0  0  0  0  0  0  0  0  0
    7.8231   49.2234  130.9079 C   0  0  0  0  0  0  0  0  0  0  0  0
    8.8762   49.0861  131.7866 C   0  0  0  0  0  0  0  0  0  0  0  0
    9.3114   47.7869  131.6469 C   0  0  0  0  0  0  0  0  0  0  0  0
    9.2544   50.2369  132.5871 C   0  0  0  0  0  0  0  0  0  0  0  0
    9.7880   50.0196  133.7022 O   0  0  0  0  0  0  0  0  0  0  0  0
    9.0317   51.6377  132.1313 C   0  0  0  0  0  0  0  0  0  0  0  0
    8.2965   51.5902  130.7847 C   0  0  0  0  0  0  0  0  0  0  0  0
    7.1603   50.5628  130.8630 C   0  0  0  0  0  0  0  0  0  0  0  0
    6.9028   47.9120  129.5839 H   0  0  0  0  0  0  0  0  0  0  0  0
   10.4226   47.2139  132.4066 C   0  0  0  0  0  0  0  0  0  0  0  0
   11.5663   46.7200  131.5496 C   0  0  0  0  0  0  0  0  0  0  0  0
   11.9026   45.3575  132.0147 C   0  0  0  0  0  0  0  0  0  0  0  0
   12.9196   44.7679  131.6032 O   0  0  0  0  0  0  0  0  0  0  0  0
   11.0754   44.7259  132.9213 O   0  0  0  0  0  0  0  0  0  0  0  0
   10.0949   44.5402  132.7566 H   0  0  0  0  0  0  0  0  0  0  0  0
    8.9824   40.0804  129.9633 S   0  0  0  0  0  0  0  0  0  0  0  0
   10.0965   39.5991  130.8500 O   0  0  0  0  0  0  0  0  0  0  0  0
    8.6425   38.9886  129.0128 O   0  0  0  0  0  0  0  0  0  0  0  0
    7.4825   41.8240  131.2415 C   0  0  0  0  0  0  0  0  0  0  0  0
    7.6272   40.4068  130.9649 N   0  0  0  0  0  0  0  0  0  0  0  0
    7.5697   39.8212  131.8006 H   0  0  0  0  0  0  0  0  0  0  0  0
 33 34  1  0  0  0
 34 30  1  0  0  0
 30 31  2  0  0  0
 30 32  2  0  0  0
 30  1  1  0  0  0
  1  2  2  0  0  0
  2  3  1  0  0  0
  3  4  2  0  0  0
  4  5  1  0  0  0
  5  6  2  0  0  0
  5  7  1  0  0  0
  7  8  2  0  0  0
  8 13  1  0  0  0
 13 14  1  0  0  0
 14 15  1  0  0  0
 15 16  2  0  0  0
 16 17  1  0  0  0
 17 24  1  0  0  0
 24 25  1  0  0  0
 25 26  1  0  0  0
 26 27  2  0  0  0
 26 28  1  0  0  0
 16 18  1  0  0  0
 18 19  2  0  0  0
 18 20  1  0  0  0
 20 21  1  0  0  0
 21 22  1  0  0  0
  7  9  1  0  0  0
  9 10  2  0  0  0
  9 11  1  0  0  0
  6  1  1  0  0  0
 17 13  2  0  0  0
 11  4  1  0  0  0
 22 15  1  0  0  0
 34 35  1  0  0  0
 14 23  1  0  0  0
 28 29  1  0  0  0
 11 12  1  0  0  0
M  END
> <minimizedAffinity>
22.81949

> <CNNscore>
0.3775557280

> <CNNaffinity>
6.7444748878

> <CNN_VS>
2.5464150906

> <CNNaffinity_variance>
0.9783006907

$$$$
[H]OC(=O)C([H])([H])C([H])([H])c1c2c(n([H])c1C([H])=C1C(=O)N([H])c3c([H])c([H])c(S(=O)(=O)N([H])C([H])([H])[H])c([H])c31)C([H])([H])C([H])([H])C([H])([H])C2=O


 35 38  0  0  0  0  0  0  0  0999 V2000
   10.3747   42.7975  132.5324 C   0  0  0  0  0  0  0  0  0  0  0  0
   11.1938   42.1851  131.6082 C   0  0  0  0  0  0  0  0  0  0  0  0
   11.5532   42.8188  130.4437 C   0  0  0  0  0  0  0  0  0  0  0  0
   11.1060   44.1116  130.1430 C   0  0  0  0  0  0  0  0  0  0  0  0
   10.2878   44.7281  131.0620 C   0  0  0  0  0  0  0  0  0  0  0  0
    9.9432   44.0549  132.2332 C   0  0  0  0  0  0  0  0  0  0  0  0
    9.9127   46.0791  130.5954 C   0  0  0  0  0  0  0  0  0  0  0  0
    9.1676   46.9376  131.2431 C   0  0  0  0  0  0  0  0  0  0  0  0
   10.5932   46.1892  129.3148 C   0  0  0  0  0  0  0  0  0  0  0  0
   10.5781   47.1720  128.5302 O   0  0  0  0  0  0  0  0  0  0  0  0
   11.3213   44.9764  129.0475 N   0  0  0  0  0  0  0  0  0  0  0  0
   11.9006   44.7560  128.2164 H   0  0  0  0  0  0  0  0  0  0  0  0
    8.7813   48.2653  130.8084 C   0  0  0  0  0  0  0  0  0  0  0  0
    8.9509   49.4813  131.3235 N   0  0  0  0  0  0  0  0  0  0  0  0
    8.3805   50.4254  130.5504 C   0  0  0  0  0  0  0  0  0  0  0  0
    7.8029   49.8026  129.4648 C   0  0  0  0  0  0  0  0  0  0  0  0
    8.0545   48.4585  129.6286 C   0  0  0  0  0  0  0  0  0  0  0  0
    7.1218   50.6286  128.4840 C   0  0  0  0  0  0  0  0  0  0  0  0
    7.0749   50.2089  127.3021 O   0  0  0  0  0  0  0  0  0  0  0  0
    6.4906   51.9320  128.8343 C   0  0  0  0  0  0  0  0  0  0  0  0
    6.7769   52.2181  130.3149 C   0  0  0  0  0  0  0  0  0  0  0  0
    8.2498   51.9133  130.6149 C   0  0  0  0  0  0  0  0  0  0  0  0
    9.4560   49.7184  132.1824 H   0  0  0  0  0  0  0  0  0  0  0  0
    7.6155   47.4270  128.6887 C   0  0  0  0  0  0  0  0  0  0  0  0
    6.1191   47.3826  128.4758 C   0  0  0  0  0  0  0  0  0  0  0  0
    5.5326   46.6950  129.6459 C   0  0  0  0  0  0  0  0  0  0  0  0
    6.2543   46.1561  130.5061 O   0  0  0  0  0  0  0  0  0  0  0  0
    4.1606   46.6487  129.7891 O   0  0  0  0  0  0  0  0  0  0  0  0
    3.5353   46.2423  129.1059 H   0  0  0  0  0  0  0  0  0  0  0  0
    9.9089   42.0244  134.0207 S   0  0  0  0  0  0  0  0  0  0  0  0
   10.2445   40.5653  133.8882 O   0  0  0  0  0  0  0  0  0  0  0  0
    8.4457   42.1435  134.2565 O   0  0  0  0  0  0  0  0  0  0  0  0
   11.3632   43.9213  135.1210 C   0  0  0  0  0  0  0  0  0  0  0  0
   10.7573   42.6293  135.3848 N   0  0  0  0  0  0  0  0  0  0  0  0
   11.3987   41.9590  135.8137 H   0  0  0  0  0  0  0  0  0  0  0  0
 33 34  1  0  0  0
 34 30  1  0  0  0
 30 31  2  0  0  0
 30 32  2  0  0  0
 30  1  1  0  0  0
  1  2  2  0  0  0
  2  3  1  0  0  0
  3  4  2  0  0  0
  4  5  1  0  0  0
  5  6  2  0  0  0
  5  7  1  0  0  0
  7  8  2  0  0  0
  8 13  1  0  0  0
 13 14  1  0  0  0
 14 15  1  0  0  0
 15 16  2  0  0  0
 16 17  1  0  0  0
 17 24  1  0  0  0
 24 25  1  0  0  0
 25 26  1  0  0  0
 26 27  2  0  0  0
 26 28  1  0  0  0
 16 18  1  0  0  0
 18 19  2  0  0  0
 18 20  1  0  0  0
 20 21  1  0  0  0
 21 22  1  0  0  0
  7  9  1  0  0  0
  9 10  2  0  0  0
  9 11  1  0  0  0
  6  1  1  0  0  0
 17 13  2  0  0  0
 11  4  1  0  0  0
 22 15  1  0  0  0
 34 35  1  0  0  0
 14 23  1  0  0  0
 28 29  1  0  0  0
 11 12  1  0  0  0
M  END
> <minimizedAffinity>
12.78278

> <CNNscore>
0.3580816984

> <CNNaffinity>
6.9206800461

> <CNN_VS>
2.4781689644

> <CNNaffinity_variance>
1.0484993458

$$$$
[H]OC(=O)C([H])([H])C([H])([H])c1c2c(n([H])c1C([H])=C1C(=O)N([H])c3c([H])c([H])c(S(=O)(=O)N([H])C([H])([H])[H])c([H])c31)C([H])([H])C([H])([H])C([H])([H])C2=O


 35 38  0  0  0  0  0  0  0  0999 V2000
    9.3266   46.4097  127.7931 C   0  0  0  0  0  0  0  0  0  0  0  0
    8.7155   47.6251  127.5705 C   0  0  0  0  0  0  0  0  0  0  0  0
    8.2824   48.4067  128.6138 C   0  0  0  0  0  0  0  0  0  0  0  0
    8.4412   48.0065  129.9465 C   0  0  0  0  0  0  0  0  0  0  0  0
    9.0506   46.7938  130.1749 C   0  0  0  0  0  0  0  0  0  0  0  0
    9.4776   46.0265  129.0920 C   0  0  0  0  0  0  0  0  0  0  0  0
    9.1427   46.5269  131.6254 C   0  0  0  0  0  0  0  0  0  0  0  0
    9.6895   45.4765  132.1814 C   0  0  0  0  0  0  0  0  0  0  0  0
    8.5276   47.7035  132.2194 C   0  0  0  0  0  0  0  0  0  0  0  0
    8.3729   47.9412  133.4447 O   0  0  0  0  0  0  0  0  0  0  0  0
    8.1006   48.6035  131.1802 N   0  0  0  0  0  0  0  0  0  0  0  0
    7.6307   49.5210  131.2911 H   0  0  0  0  0  0  0  0  0  0  0  0
    9.7900   45.1877  133.5982 C   0  0  0  0  0  0  0  0  0  0  0  0
    9.0830   45.5665  134.6609 N   0  0  0  0  0  0  0  0  0  0  0  0
    9.5867   45.0455  135.7964 C   0  0  0  0  0  0  0  0  0  0  0  0
   10.6854   44.2800  135.4692 C   0  0  0  0  0  0  0  0  0  0  0  0
   10.8087   44.3706  134.1004 C   0  0  0  0  0  0  0  0  0  0  0  0
   11.3991   43.6126  136.5431 C   0  0  0  0  0  0  0  0  0  0  0  0
   12.0064   42.5499  136.2654 O   0  0  0  0  0  0  0  0  0  0  0  0
   11.4301   44.1429  137.9350 C   0  0  0  0  0  0  0  0  0  0  0  0
   10.5418   45.3936  137.9890 C   0  0  0  0  0  0  0  0  0  0  0  0
    9.2289   45.1158  137.2462 C   0  0  0  0  0  0  0  0  0  0  0  0
    8.2487   46.1605  134.6623 H   0  0  0  0  0  0  0  0  0  0  0  0
   11.8547   43.6974  133.3304 C   0  0  0  0  0  0  0  0  0  0  0  0
   11.5283   43.5264  131.8639 C   0  0  0  0  0  0  0  0  0  0  0  0
   10.6594   42.3359  131.7469 C   0  0  0  0  0  0  0  0  0  0  0  0
    9.5123   42.4189  131.2690 O   0  0  0  0  0  0  0  0  0  0  0  0
   11.1266   41.1095  132.1746 O   0  0  0  0  0  0  0  0  0  0  0  0
   11.4339   40.9210  133.1195 H   0  0  0  0  0  0  0  0  0  0  0  0
    9.8942   45.4010  126.4931 S   0  0  0  0  0  0  0  0  0  0  0  0
   10.2670   46.3094  125.3552 O   0  0  0  0  0  0  0  0  0  0  0  0
    8.8280   44.4791  126.0195 O   0  0  0  0  0  0  0  0  0  0  0  0
   11.1002   43.7304  128.1297 C   0  0  0  0  0  0  0  0  0  0  0  0
   11.2898   44.4925  126.9095 N   0  0  0  0  0  0  0  0  0  0  0  0
   12.1608   45.0272  126.8949 H   0  0  0  0  0  0  0  0  0  0  0  0
 33 34  1  0  0  0
 34 30  1  0  0  0
 30 31  2  0  0  0
 30 32  2  0  0  0
 30  1  1  0  0  0
  1  2  2  0  0  0
  2  3  1  0  0  0
  3  4  2  0  0  0
  4  5  1  0  0  0
  5  6  2  0  0  0
  5  7  1  0  0  0
  7  8  2  0  0  0
  8 13  1  0  0  0
 13 14  1  0  0  0
 14 15  1  0  0  0
 15 16  2  0  0  0
 16 17  1  0  0  0
 17 24  1  0  0  0
 24 25  1  0  0  0
 25 26  1  0  0  0
 26 27  2  0  0  0
 26 28  1  0  0  0
 16 18  1  0  0  0
 18 19  2  0  0  0
 18 20  1  0  0  0
 20 21  1  0  0  0
 21 22  1  0  0  0
  7  9  1  0  0  0
  9 10  2  0  0  0
  9 11  1  0  0  0
  6  1  1  0  0  0
 17 13  2  0  0  0
 11  4  1  0  0  0
 22 15  1  0  0  0
 34 35  1  0  0  0
 14 23  1  0  0  0
 28 29  1  0  0  0
 11 12  1  0  0  0
M  END
> <minimizedAffinity>
26.22792

> <CNNscore>
0.3510361910

> <CNNaffinity>
6.9260549545

> <CNN_VS>
2.4312958717

> <CNNaffinity_variance>
0.7774848938

$$$$
[H]OC(=O)C([H])([H])C([H])([H])c1c2c(n([H])c1C([H])=C1C(=O)N([H])c3c([H])c([H])c(S(=O)(=O)N([H])C([H])([H])[H])c([H])c31)C([H])([H])C([H])([H])C([H])([H])C2=O


 35 38  0  0  0  0  0  0  0  0999 V2000
    7.3766   50.0557  130.5356 C   0  0  0  0  0  0  0  0  0  0  0  0
    8.2486   50.9112  131.1743 C   0  0  0  0  0  0  0  0  0  0  0  0
    9.4420   50.4620  131.6849 C   0  0  0  0  0  0  0  0  0  0  0  0
    9.8266   49.1193  131.5802 C   0  0  0  0  0  0  0  0  0  0  0  0
    8.9600   48.2604  130.9436 C   0  0  0  0  0  0  0  0  0  0  0  0
    7.7570   48.7509  130.4376 C   0  0  0  0  0  0  0  0  0  0  0  0
    9.5163   46.8917  130.9159 C   0  0  0  0  0  0  0  0  0  0  0  0
    8.9582   45.8453  130.3636 C   0  0  0  0  0  0  0  0  0  0  0  0
   10.7922   47.0378  131.5985 C   0  0  0  0  0  0  0  0  0  0  0  0
   11.6399   46.1361  131.8223 O   0  0  0  0  0  0  0  0  0  0  0  0
   10.9715   48.4080  132.0019 N   0  0  0  0  0  0  0  0  0  0  0  0
   11.7785   48.8189  132.5067 H   0  0  0  0  0  0  0  0  0  0  0  0
    9.4785   44.4929  130.3250 C   0  0  0  0  0  0  0  0  0  0  0  0
    9.4705   43.5364  129.3988 N   0  0  0  0  0  0  0  0  0  0  0  0
   10.0716   42.4166  129.8450 C   0  0  0  0  0  0  0  0  0  0  0  0
   10.5017   42.6428  131.1349 C   0  0  0  0  0  0  0  0  0  0  0  0
   10.1311   43.9360  131.4302 C   0  0  0  0  0  0  0  0  0  0  0  0
   11.1854   41.5652  131.8276 C   0  0  0  0  0  0  0  0  0  0  0  0
   12.0172   41.8788  132.7136 O   0  0  0  0  0  0  0  0  0  0  0  0
   10.9320   40.1291  131.5225 C   0  0  0  0  0  0  0  0  0  0  0  0
    9.9399   40.0575  130.3533 C   0  0  0  0  0  0  0  0  0  0  0  0
   10.3550   41.0645  129.2734 C   0  0  0  0  0  0  0  0  0  0  0  0
    9.0854   43.6028  128.4521 H   0  0  0  0  0  0  0  0  0  0  0  0
   10.4013   44.5885  132.7114 C   0  0  0  0  0  0  0  0  0  0  0  0
    9.3888   44.2745  133.7896 C   0  0  0  0  0  0  0  0  0  0  0  0
    8.7978   45.5595  134.2201 C   0  0  0  0  0  0  0  0  0  0  0  0
    7.7185   45.9636  133.7480 O   0  0  0  0  0  0  0  0  0  0  0  0
    9.4531   46.3265  135.1622 O   0  0  0  0  0  0  0  0  0  0  0  0
   10.3943   46.6784  135.0479 H   0  0  0  0  0  0  0  0  0  0  0  0
    5.8616   50.5962  129.8704 S   0  0  0  0  0  0  0  0  0  0  0  0
    6.1756   51.6565  128.8524 O   0  0  0  0  0  0  0  0  0  0  0  0
    4.9969   51.2015  130.9177 O   0  0  0  0  0  0  0  0  0  0  0  0
    5.7707   48.1236  128.9752 C   0  0  0  0  0  0  0  0  0  0  0  0
    4.9977   49.3481  129.0691 N   0  0  0  0  0  0  0  0  0  0  0  0
    4.5736   49.6306  128.1831 H   0  0  0  0  0  0  0  0  0  0  0  0
 33 34  1  0  0  0
 34 30  1  0  0  0
 30 31  2  0  0  0
 30 32  2  0  0  0
 30  1  1  0  0  0
  1  2  2  0  0  0
  2  3  1  0  0  0
  3  4  2  0  0  0
  4  5  1  0  0  0
  5  6  2  0  0  0
  5  7  1  0  0  0
  7  8  2  0  0  0
  8 13  1  0  0  0
 13 14  1  0  0  0
 14 15  1  0  0  0
 15 16  2  0  0  0
 16 17  1  0  0  0
 17 24  1  0  0  0
 24 25  1  0  0  0
 25 26  1  0  0  0
 26 27  2  0  0  0
 26 28  1  0  0  0
 16 18  1  0  0  0
 18 19  2  0  0  0
 18 20  1  0  0  0
 20 21  1  0  0  0
 21 22  1  0  0  0
  7  9  1  0  0  0
  9 10  2  0  0  0
  9 11  1  0  0  0
  6  1  1  0  0  0
 17 13  2  0  0  0
 11  4  1  0  0  0
 22 15  1  0  0  0
 34 35  1  0  0  0
 14 23  1  0  0  0
 28 29  1  0  0  0
 11 12  1  0  0  0
M  END
> <minimizedAffinity>
6.30617

> <CNNscore>
0.3496564329

> <CNNaffinity>
7.1746926308

> <CNN_VS>
2.5086774826

> <CNNaffinity_variance>
0.4936939776

$$$$
[H]OC(=O)C([H])([H])C([H])([H])c1c2c(n([H])c1C([H])=C1C(=O)N([H])c3c([H])c([H])c(S(=O)(=O)N([H])C([H])([H])[H])c([H])c31)C([H])([H])C([H])([H])C([H])([H])C2=O


 35 38  0  0  0  0  0  0  0  0999 V2000
    9.6722   44.5997  129.2978 C   0  0  0  0  0  0  0  0  0  0  0  0
    8.6721   44.4964  128.3549 C   0  0  0  0  0  0  0  0  0  0  0  0
    7.7080   45.4667  128.2292 C   0  0  0  0  0  0  0  0  0  0  0  0
    7.6970   46.6016  129.0500 C   0  0  0  0  0  0  0  0  0  0  0  0
    8.6931   46.7102  129.9934 C   0  0  0  0  0  0  0  0  0  0  0  0
    9.6553   45.7061  130.0930 C   0  0  0  0  0  0  0  0  0  0  0  0
    8.5384   47.9598  130.7667 C   0  0  0  0  0  0  0  0  0  0  0  0
    9.3314   48.3786  131.7192 C   0  0  0  0  0  0  0  0  0  0  0  0
    7.3546   48.5687  130.1807 C   0  0  0  0  0  0  0  0  0  0  0  0
    6.8227   49.6603  130.5079 O   0  0  0  0  0  0  0  0  0  0  0  0
    6.8469   47.7265  129.1294 N   0  0  0  0  0  0  0  0  0  0  0  0
    6.0172   47.8926  128.5303 H   0  0  0  0  0  0  0  0  0  0  0  0
    9.2016   49.5958  132.4955 C   0  0  0  0  0  0  0  0  0  0  0  0
    9.5635   50.8591  132.2820 N   0  0  0  0  0  0  0  0  0  0  0  0
    9.2431   51.6446  133.3283 C   0  0  0  0  0  0  0  0  0  0  0  0
    8.6358   50.8608  134.2858 C   0  0  0  0  0  0  0  0  0  0  0  0
    8.6116   49.5865  133.7640 C   0  0  0  0  0  0  0  0  0  0  0  0
    8.1993   51.4973  135.5157 C   0  0  0  0  0  0  0  0  0  0  0  0
    7.2260   50.9863  136.1214 O   0  0  0  0  0  0  0  0  0  0  0  0
    8.8606   52.7135  136.0665 C   0  0  0  0  0  0  0  0  0  0  0  0
    9.9516   53.1518  135.0797 C   0  0  0  0  0  0  0  0  0  0  0  0
    9.3956   53.0964  133.6513 C   0  0  0  0  0  0  0  0  0  0  0  0
   10.0130   51.2346  131.4418 H   0  0  0  0  0  0  0  0  0  0  0  0
    8.0435   48.4318  134.4600 C   0  0  0  0  0  0  0  0  0  0  0  0
    9.0339   47.6823  135.3223 C   0  0  0  0  0  0  0  0  0  0  0  0
    9.4018   46.4500  134.5928 C   0  0  0  0  0  0  0  0  0  0  0  0
   10.5880   46.0803  134.5079 O   0  0  0  0  0  0  0  0  0  0  0  0
    8.4136   45.6945  133.9945 O   0  0  0  0  0  0  0  0  0  0  0  0
    7.7823   46.0486  133.2881 H   0  0  0  0  0  0  0  0  0  0  0  0
   10.9128   43.3916  129.4755 S   0  0  0  0  0  0  0  0  0  0  0  0
   12.2048   44.1151  129.7333 O   0  0  0  0  0  0  0  0  0  0  0  0
   11.0701   42.5917  128.2320 O   0  0  0  0  0  0  0  0  0  0  0  0
   11.3353   42.7688  131.9969 C   0  0  0  0  0  0  0  0  0  0  0  0
   10.6363   42.3365  130.8009 N   0  0  0  0  0  0  0  0  0  0  0  0
   10.7707   41.3462  130.5867 H   0  0  0  0  0  0  0  0  0  0  0  0
 33 34  1  0  0  0
 34 30  1  0  0  0
 30 31  2  0  0  0
 30 32  2  0  0  0
 30  1  1  0  0  0
  1  2  2  0  0  0
  2  3  1  0  0  0
  3  4  2  0  0  0
  4  5  1  0  0  0
  5  6  2  0  0  0
  5  7  1  0  0  0
  7  8  2  0  0  0
  8 13  1  0  0  0
 13 14  1  0  0  0
 14 15  1  0  0  0
 15 16  2  0  0  0
 16 17  1  0  0  0
 17 24  1  0  0  0
 24 25  1  0  0  0
 25 26  1  0  0  0
 26 27  2  0  0  0
 26 28  1  0  0  0
 16 18  1  0  0  0
 18 19  2  0  0  0
 18 20  1  0  0  0
 20 21  1  0  0  0
 21 22  1  0  0  0
  7  9  1  0  0  0
  9 10  2  0  0  0
  9 11  1  0  0  0
  6  1  1  0  0  0
 17 13  2  0  0  0
 11  4  1  0  0  0
 22 15  1  0  0  0
 34 35  1  0  0  0
 14 23  1  0  0  0
 28 29  1  0  0  0
 11 12  1  0  0  0
M  END
> <minimizedAffinity>
29.14574

> <CNNscore>
0.3438207805

> <CNNaffinity>
6.8349747658

> <CNN_VS>
2.3500063419

> <CNNaffinity_variance>
0.6628531218

$$$$
[H]c1nc(OC([H])([H])[H])c(N([H])S(=O)(=O)c2c([H])c([H])c(F)c([H])c2F)c([H])c1-c1nc([H])c2nc(N([H])[H])c(-c3c([H])c([H])c([H])c([H])c3[H])c([H])c2c1[H]


 40 44  0  0  0  0  0  0  0  0999 V2000
   13.2652   44.3393  129.8520 C   0  0  0  0  0  0  0  0  0  0  0  0
   12.9371   44.9536  128.7064 N   0  0  0  0  0  0  0  0  0  0  0  0
   11.8124   45.7236  128.5688 C   0  0  0  0  0  0  0  0  0  0  0  0
   10.9513   45.9047  129.6216 C   0  0  0  0  0  0  0  0  0  0  0  0
   11.2835   45.2731  130.8085 C   0  0  0  0  0  0  0  0  0  0  0  0
   12.4309   44.4927  130.9350 C   0  0  0  0  0  0  0  0  0  0  0  0
    9.7323   46.7165  129.5368 C   0  0  0  0  0  0  0  0  0  0  0  0
    8.5014   46.1759  129.7000 C   0  0  0  0  0  0  0  0  0  0  0  0
    7.3434   46.9606  129.6171 C   0  0  0  0  0  0  0  0  0  0  0  0
    6.1003   46.3874  129.7868 C   0  0  0  0  0  0  0  0  0  0  0  0
    4.9788   47.2161  129.6939 C   0  0  0  0  0  0  0  0  0  0  0  0
    5.1419   48.5696  129.4380 C   0  0  0  0  0  0  0  0  0  0  0  0
    3.9693   49.3650  129.3623 N   0  0  0  0  0  0  0  0  0  0  0  0
    6.3765   49.1051  129.2753 N   0  0  0  0  0  0  0  0  0  0  0  0
    7.4571   48.3114  129.3639 C   0  0  0  0  0  0  0  0  0  0  0  0
    8.7371   48.8362  129.2009 C   0  0  0  0  0  0  0  0  0  0  0  0
    9.8162   48.0521  129.2879 N   0  0  0  0  0  0  0  0  0  0  0  0
    3.2390   49.2250  130.0867 H   0  0  0  0  0  0  0  0  0  0  0  0
    3.8358   50.0601  128.6197 H   0  0  0  0  0  0  0  0  0  0  0  0
    3.6916   46.6092  129.8636 C   0  0  0  0  0  0  0  0  0  0  0  0
    3.1007   46.5379  131.1029 C   0  0  0  0  0  0  0  0  0  0  0  0
    1.8771   45.9580  131.2988 C   0  0  0  0  0  0  0  0  0  0  0  0
    1.2000   45.4226  130.2315 C   0  0  0  0  0  0  0  0  0  0  0  0
    1.7575   45.4735  128.9730 C   0  0  0  0  0  0  0  0  0  0  0  0
    3.0018   46.0688  128.8056 C   0  0  0  0  0  0  0  0  0  0  0  0
   15.3995   43.5484  128.9244 C   0  0  0  0  0  0  0  0  0  0  0  0
   14.4353   43.5619  129.9280 O   0  0  0  0  0  0  0  0  0  0  0  0
   12.7687   43.8419  132.1464 N   0  0  0  0  0  0  0  0  0  0  0  0
   13.7656   43.4936  132.2387 H   0  0  0  0  0  0  0  0  0  0  0  0
   11.6575   43.5930  133.4485 S   0  0  0  0  0  0  0  0  0  0  0  0
   10.8642   42.3304  133.1959 O   0  0  0  0  0  0  0  0  0  0  0  0
   12.4384   43.3480  134.7057 O   0  0  0  0  0  0  0  0  0  0  0  0
   10.5934   44.9336  133.6934 C   0  0  0  0  0  0  0  0  0  0  0  0
    9.2278   44.7752  133.6700 C   0  0  0  0  0  0  0  0  0  0  0  0
    8.4145   45.8724  133.8763 C   0  0  0  0  0  0  0  0  0  0  0  0
    8.9514   47.1174  134.1042 C   0  0  0  0  0  0  0  0  0  0  0  0
    8.1611   48.2160  134.3107 F   0  0  0  0  0  0  0  0  0  0  0  0
   10.3275   47.2990  134.1319 C   0  0  0  0  0  0  0  0  0  0  0  0
   11.1121   46.1840  133.9224 C   0  0  0  0  0  0  0  0  0  0  0  0
   12.4589   46.3222  133.9421 F   0  0  0  0  0  0  0  0  0  0  0  0
 26 27  1  0  0  0
 27  1  1  0  0  0
  1  2  2  0  0  0
  2  3  1  0  0  0
  3  4  2  0  0  0
  4  7  1  0  0  0
  7  8  2  0  0  0
  8  9  1  0  0  0
  9 10  2  0  0  0
 10 11  1  0  0  0
 11 20  1  0  0  0
 20 21  2  0  0  0
 21 22  1  0  0  0
 22 23  2  0  0  0
 23 24  1  0  0  0
 24 25  2  0  0  0
 11 12  2  0  0  0
 12 13  1  0  0  0
 12 14  1  0  0  0
 14 15  2  0  0  0
 15 16  1  0  0  0
 16 17  2  0  0  0
  4  5  1  0  0  0
  5  6  2  0  0  0
  6 28  1  0  0  0
 28 30  1  0  0  0
 30 31  2  0  0  0
 30 32  2  0  0  0
 30 33  1  0  0  0
 33 34  2  0  0  0
 34 35  1  0  0  0
 35 36  2  0  0  0
 36 37  1  0  0  0
 36 38  1  0  0  0
 38 39  2  0  0  0
 39 40  1  0  0  0
  6  1  1  0  0  0
 39 33  1  0  0  0
 17  7  1  0  0  0
 15  9  1  0  0  0
 25 20  1  0  0  0
 13 18  1  0  0  0
 13 19  1  0  0  0
 28 29  1  0  0  0
M  END
> <minimizedAffinity>
12.89480

> <CNNscore>
0.5307954550

> <CNNaffinity>
8.4028978348

> <CNN_VS>
4.4602198601

> <CNNaffinity_variance>
0.4662646651

$$$$
[H]c1nc(OC([H])([H])[H])c(N([H])S(=O)(=O)c2c([H])c([H])c(F)c([H])c2F)c([H])c1-c1nc([H])c2nc(N([H])[H])c(-c3c([H])c([H])c([H])c([H])c3[H])c([H])c2c1[H]


 40 44  0  0  0  0  0  0  0  0999 V2000
   11.3306   41.3365  131.7866 C   0  0  0  0  0  0  0  0  0  0  0  0
   10.5225   41.1536  130.7326 N   0  0  0  0  0  0  0  0  0  0  0  0
   10.0367   42.1878  129.9770 C   0  0  0  0  0  0  0  0  0  0  0  0
   10.3629   43.4876  130.2720 C   0  0  0  0  0  0  0  0  0  0  0  0
   11.1972   43.6847  131.3597 C   0  0  0  0  0  0  0  0  0  0  0  0
   11.6845   42.6235  132.1198 C   0  0  0  0  0  0  0  0  0  0  0  0
    9.8750   44.6368  129.5016 C   0  0  0  0  0  0  0  0  0  0  0  0
    9.0012   45.5289  130.0256 C   0  0  0  0  0  0  0  0  0  0  0  0
    8.5416   46.6234  129.2809 C   0  0  0  0  0  0  0  0  0  0  0  0
    7.6514   47.5188  129.8361 C   0  0  0  0  0  0  0  0  0  0  0  0
    7.2256   48.5923  129.0492 C   0  0  0  0  0  0  0  0  0  0  0  0
    7.7010   48.7273  127.7531 C   0  0  0  0  0  0  0  0  0  0  0  0
    7.2416   49.8403  127.0024 N   0  0  0  0  0  0  0  0  0  0  0  0
    8.5755   47.8311  127.2338 N   0  0  0  0  0  0  0  0  0  0  0  0
    8.9870   46.7976  127.9875 C   0  0  0  0  0  0  0  0  0  0  0  0
    9.8852   45.8626  127.4783 C   0  0  0  0  0  0  0  0  0  0  0  0
   10.2987   44.8323  128.2229 N   0  0  0  0  0  0  0  0  0  0  0  0
    7.2173   50.7663  127.4710 H   0  0  0  0  0  0  0  0  0  0  0  0
    6.9402   49.7456  126.0263 H   0  0  0  0  0  0  0  0  0  0  0  0
    6.2943   49.5123  129.6326 C   0  0  0  0  0  0  0  0  0  0  0  0
    6.7289   50.5753  130.3884 C   0  0  0  0  0  0  0  0  0  0  0  0
    5.8651   51.4658  130.9651 C   0  0  0  0  0  0  0  0  0  0  0  0
    4.5122   51.3085  130.7941 C   0  0  0  0  0  0  0  0  0  0  0  0
    4.0358   50.2561  130.0439 C   0  0  0  0  0  0  0  0  0  0  0  0
    4.9378   49.3681  129.4709 C   0  0  0  0  0  0  0  0  0  0  0  0
   11.6358   38.9169  132.0923 C   0  0  0  0  0  0  0  0  0  0  0  0
   11.7955   40.2310  132.5221 O   0  0  0  0  0  0  0  0  0  0  0  0
   12.5332   42.8241  133.2354 N   0  0  0  0  0  0  0  0  0  0  0  0
   13.3816   42.1928  133.3088 H   0  0  0  0  0  0  0  0  0  0  0  0
   12.2554   44.0195  134.4544 S   0  0  0  0  0  0  0  0  0  0  0  0
   11.8198   43.3395  135.7332 O   0  0  0  0  0  0  0  0  0  0  0  0
   13.5565   44.6975  134.7673 O   0  0  0  0  0  0  0  0  0  0  0  0
   11.0946   45.2100  133.9803 C   0  0  0  0  0  0  0  0  0  0  0  0
   11.4763   46.4901  133.6549 C   0  0  0  0  0  0  0  0  0  0  0  0
   10.5165   47.4080  133.2757 C   0  0  0  0  0  0  0  0  0  0  0  0
    9.1877   47.0591  133.2197 C   0  0  0  0  0  0  0  0  0  0  0  0
    8.2227   47.9553  132.8462 F   0  0  0  0  0  0  0  0  0  0  0  0
    8.7811   45.7720  133.5442 C   0  0  0  0  0  0  0  0  0  0  0  0
    9.7635   44.8790  133.9188 C   0  0  0  0  0  0  0  0  0  0  0  0
    9.4049   43.6142  134.2426 F   0  0  0  0  0  0  0  0  0  0  0  0
 26 27  1  0  0  0
 27  1  1  0  0  0
  1  2  2  0  0  0
  2  3  1  0  0  0
  3  4  2  0  0  0
  4  7  1  0  0  0
  7  8  2  0  0  0
  8  9  1  0  0  0
  9 10  2  0  0  0
 10 11  1  0  0  0
 11 20  1  0  0  0
 20 21  2  0  0  0
 21 22  1  0  0  0
 22 23  2  0  0  0
 23 24  1  0  0  0
 24 25  2  0  0  0
 11 12  2  0  0  0
 12 13  1  0  0  0
 12 14  1  0  0  0
 14 15  2  0  0  0
 15 16  1  0  0  0
 16 17  2  0  0  0
  4  5  1  0  0  0
  5  6  2  0  0  0
  6 28  1  0  0  0
 28 30  1  0  0  0
 30 31  2  0  0  0
 30 32  2  0  0  0
 30 33  1  0  0  0
 33 34  2  0  0  0
 34 35  1  0  0  0
 35 36  2  0  0  0
 36 37  1  0  0  0
 36 38  1  0  0  0
 38 39  2  0  0  0
 39 40  1  0  0  0
  6  1  1  0  0  0
 39 33  1  0  0  0
 17  7  1  0  0  0
 15  9  1  0  0  0
 25 20  1  0  0  0
 13 18  1  0  0  0
 13 19  1  0  0  0
 28 29  1  0  0  0
M  END
> <minimizedAffinity>
19.53254

> <CNNscore>
0.4113878906

> <CNNaffinity>
8.0945644379

> <CNN_VS>
3.3300058842

> <CNNaffinity_variance>
0.4854940474

$$$$
[H]c1nc(OC([H])([H])[H])c(N([H])S(=O)(=O)c2c([H])c([H])c(F)c([H])c2F)c([H])c1-c1nc([H])c2nc(N([H])[H])c(-c3c([H])c([H])c([H])c([H])c3[H])c([H])c2c1[H]


 40 44  0  0  0  0  0  0  0  0999 V2000
   11.3080   43.8613  135.5284 C   0  0  0  0  0  0  0  0  0  0  0  0
   10.8590   44.9457  136.1762 N   0  0  0  0  0  0  0  0  0  0  0  0
   10.4435   46.0807  135.5315 C   0  0  0  0  0  0  0  0  0  0  0  0
   10.4690   46.1604  134.1619 C   0  0  0  0  0  0  0  0  0  0  0  0
   10.9318   45.0441  133.4855 C   0  0  0  0  0  0  0  0  0  0  0  0
   11.3512   43.8957  134.1538 C   0  0  0  0  0  0  0  0  0  0  0  0
   10.0379   47.3469  133.4144 C   0  0  0  0  0  0  0  0  0  0  0  0
    8.9803   47.3134  132.5693 C   0  0  0  0  0  0  0  0  0  0  0  0
    8.5769   48.4527  131.8602 C   0  0  0  0  0  0  0  0  0  0  0  0
    7.4963   48.3941  131.0049 C   0  0  0  0  0  0  0  0  0  0  0  0
    7.1371   49.5597  130.3227 C   0  0  0  0  0  0  0  0  0  0  0  0
    7.8635   50.7248  130.5200 C   0  0  0  0  0  0  0  0  0  0  0  0
    7.4494   51.8802  129.8080 N   0  0  0  0  0  0  0  0  0  0  0  0
    8.9214   50.7524  131.3671 N   0  0  0  0  0  0  0  0  0  0  0  0
    9.2699   49.6336  132.0247 C   0  0  0  0  0  0  0  0  0  0  0  0
   10.3527   49.6347  132.9009 C   0  0  0  0  0  0  0  0  0  0  0  0
   10.7043   48.5251  133.5583 N   0  0  0  0  0  0  0  0  0  0  0  0
    6.4341   52.0944  129.7770 H   0  0  0  0  0  0  0  0  0  0  0  0
    8.1227   52.4924  129.3345 H   0  0  0  0  0  0  0  0  0  0  0  0
    6.0181   49.4861  129.4302 C   0  0  0  0  0  0  0  0  0  0  0  0
    4.9011   50.2621  129.6304 C   0  0  0  0  0  0  0  0  0  0  0  0
    3.8140   50.2089  128.8013 C   0  0  0  0  0  0  0  0  0  0  0  0
    3.8205   49.3560  127.7258 C   0  0  0  0  0  0  0  0  0  0  0  0
    4.9206   48.5612  127.4902 C   0  0  0  0  0  0  0  0  0  0  0  0
    6.0094   48.6374  128.3500 C   0  0  0  0  0  0  0  0  0  0  0  0
   12.2095   42.7950  137.5512 C   0  0  0  0  0  0  0  0  0  0  0  0
   11.7203   42.7261  136.2500 O   0  0  0  0  0  0  0  0  0  0  0  0
   11.8298   42.7556  133.4636 N   0  0  0  0  0  0  0  0  0  0  0  0
   12.7606   42.3610  133.7823 H   0  0  0  0  0  0  0  0  0  0  0  0
   10.9885   41.9978  132.1559 S   0  0  0  0  0  0  0  0  0  0  0  0
   11.6616   40.6857  131.8202 O   0  0  0  0  0  0  0  0  0  0  0  0
    9.6035   41.6484  132.6144 O   0  0  0  0  0  0  0  0  0  0  0  0
   10.8852   42.9983  130.7495 C   0  0  0  0  0  0  0  0  0  0  0  0
    9.7744   42.9796  129.9395 C   0  0  0  0  0  0  0  0  0  0  0  0
    9.7314   43.7996  128.8289 C   0  0  0  0  0  0  0  0  0  0  0  0
   10.7821   44.6322  128.5238 C   0  0  0  0  0  0  0  0  0  0  0  0
   10.7572   45.4517  127.4276 F   0  0  0  0  0  0  0  0  0  0  0  0
   11.9129   44.6664  129.3285 C   0  0  0  0  0  0  0  0  0  0  0  0
   11.9251   43.8358  130.4297 C   0  0  0  0  0  0  0  0  0  0  0  0
   13.0113   43.8417  131.2381 F   0  0  0  0  0  0  0  0  0  0  0  0
 26 27  1  0  0  0
 27  1  1  0  0  0
  1  2  2  0  0  0
  2  3  1  0  0  0
  3  4  2  0  0  0
  4  7  1  0  0  0
  7  8  2  0  0  0
  8  9  1  0  0  0
  9 10  2  0  0  0
 10 11  1  0  0  0
 11 20  1  0  0  0
 20 21  2  0  0  0
 21 22  1  0  0  0
 22 23  2  0  0  0
 23 24  1  0  0  0
 24 25  2  0  0  0
 11 12  2  0  0  0
 12 13  1  0  0  0
 12 14  1  0  0  0
 14 15  2  0  0  0
 15 16  1  0  0  0
 16 17  2  0  0  0
  4  5  1  0  0  0
  5  6  2  0  0  0
  6 28  1  0  0  0
 28 30  1  0  0  0
 30 31  2  0  0  0
 30 32  2  0  0  0
 30 33  1  0  0  0
 33 34  2  0  0  0
 34 35  1  0  0  0
 35 36  2  0  0  0
 36 37  1  0  0  0
 36 38  1  0  0  0
 38 39  2  0  0  0
 39 40  1  0  0  0
  6  1  1  0  0  0
 39 33  1  0  0  0
 17  7  1  0  0  0
 15  9  1  0  0  0
 25 20  1  0  0  0
 13 18  1  0  0  0
 13 19  1  0  0  0
 28 29  1  0  0  0
M  END
> <minimizedAffinity>
13.84057

> <CNNscore>
0.3860728443

> <CNNaffinity>
8.3384943008

> <CNN_VS>
3.2192661762

> <CNNaffinity_variance>
0.5722299218

$$$$
[H]c1nc(OC([H])([H])[H])c(N([H])S(=O)(=O)c2c([H])c([H])c(F)c([H])c2F)c([H])c1-c1nc([H])c2nc(N([H])[H])c(-c3c([H])c([H])c([H])c([H])c3[H])c([H])c2c1[H]


 40 44  0  0  0  0  0  0  0  0999 V2000
    4.2414   48.8608  129.2716 C   0  0  0  0  0  0  0  0  0  0  0  0
    3.9432   47.5606  129.1376 N   0  0  0  0  0  0  0  0  0  0  0  0
    4.8617   46.5617  129.3252 C   0  0  0  0  0  0  0  0  0  0  0  0
    6.1582   46.8539  129.6665 C   0  0  0  0  0  0  0  0  0  0  0  0
    6.4740   48.1950  129.8067 C   0  0  0  0  0  0  0  0  0  0  0  0
    5.5298   49.2012  129.6131 C   0  0  0  0  0  0  0  0  0  0  0  0
    7.1867   45.8299  129.8807 C   0  0  0  0  0  0  0  0  0  0  0  0
    7.8781   45.7439  131.0420 C   0  0  0  0  0  0  0  0  0  0  0  0
    8.8584   44.7617  131.2361 C   0  0  0  0  0  0  0  0  0  0  0  0
    9.5497   44.6939  132.4278 C   0  0  0  0  0  0  0  0  0  0  0  0
   10.5167   43.6948  132.5681 C   0  0  0  0  0  0  0  0  0  0  0  0
   10.7521   42.8127  131.5238 C   0  0  0  0  0  0  0  0  0  0  0  0
   11.7391   41.8132  131.7241 N   0  0  0  0  0  0  0  0  0  0  0  0
   10.0570   42.9036  130.3636 N   0  0  0  0  0  0  0  0  0  0  0  0
    9.1266   43.8631  130.2250 C   0  0  0  0  0  0  0  0  0  0  0  0
    8.3982   43.9785  129.0433 C   0  0  0  0  0  0  0  0  0  0  0  0
    7.4710   44.9307  128.8992 N   0  0  0  0  0  0  0  0  0  0  0  0
   11.7379   41.3028  132.6281 H   0  0  0  0  0  0  0  0  0  0  0  0
   12.4375   41.5928  131.0057 H   0  0  0  0  0  0  0  0  0  0  0  0
   11.2351   43.6383  133.8069 C   0  0  0  0  0  0  0  0  0  0  0  0
   12.5841   43.8991  133.8552 C   0  0  0  0  0  0  0  0  0  0  0  0
   13.2993   43.8455  135.0203 C   0  0  0  0  0  0  0  0  0  0  0  0
   12.6644   43.5211  136.1933 C   0  0  0  0  0  0  0  0  0  0  0  0
   11.3134   43.2524  136.1878 C   0  0  0  0  0  0  0  0  0  0  0  0
   10.6141   43.3148  134.9888 C   0  0  0  0  0  0  0  0  0  0  0  0
    3.1431   50.5658  127.8831 C   0  0  0  0  0  0  0  0  0  0  0  0
    3.2514   49.8388  129.0649 O   0  0  0  0  0  0  0  0  0  0  0  0
    5.8529   50.5730  129.7507 N   0  0  0  0  0  0  0  0  0  0  0  0
    5.0420   51.2430  129.8822 H   0  0  0  0  0  0  0  0  0  0  0  0
    7.4682   51.1908  129.7126 S   0  0  0  0  0  0  0  0  0  0  0  0
    7.9050   51.3633  128.2749 O   0  0  0  0  0  0  0  0  0  0  0  0
    7.4711   52.5647  130.3150 O   0  0  0  0  0  0  0  0  0  0  0  0
    8.5926   50.1937  130.5677 C   0  0  0  0  0  0  0  0  0  0  0  0
    8.9661   50.4834  131.8587 C   0  0  0  0  0  0  0  0  0  0  0  0
    9.8629   49.6566  132.5067 C   0  0  0  0  0  0  0  0  0  0  0  0
   10.3853   48.5505  131.8791 C   0  0  0  0  0  0  0  0  0  0  0  0
   11.2751   47.7199  132.5055 F   0  0  0  0  0  0  0  0  0  0  0  0
   10.0213   48.2401  130.5758 C   0  0  0  0  0  0  0  0  0  0  0  0
    9.1242   49.0852  129.9564 C   0  0  0  0  0  0  0  0  0  0  0  0
    8.7456   48.8146  128.6849 F   0  0  0  0  0  0  0  0  0  0  0  0
 26 27  1  0  0  0
 27  1  1  0  0  0
  1  2  2  0  0  0
  2  3  1  0  0  0
  3  4  2  0  0  0
  4  7  1  0  0  0
  7  8  2  0  0  0
  8  9  1  0  0  0
  9 10  2  0  0  0
 10 11  1  0  0  0
 11 20  1  0  0  0
 20 21  2  0  0  0
 21 22  1  0  0  0
 22 23  2  0  0  0
 23 24  1  0  0  0
 24 25  2  0  0  0
 11 12  2  0  0  0
 12 13  1  0  0  0
 12 14  1  0  0  0
 14 15  2  0  0  0
 15 16  1  0  0  0
 16 17  2  0  0  0
  4  5  1  0  0  0
  5  6  2  0  0  0
  6 28  1  0  0  0
 28 30  1  0  0  0
 30 31  2  0  0  0
 30 32  2  0  0  0
 30 33  1  0  0  0
 33 34  2  0  0  0
 34 35  1  0  0  0
 35 36  2  0  0  0
 36 37  1  0  0  0
 36 38  1  0  0  0
 38 39  2  0  0  0
 39 40  1  0  0  0
  6  1  1  0  0  0
 39 33  1  0  0  0
 17  7  1  0  0  0
 15  9  1  0  0  0
 25 20  1  0  0  0
 13 18  1  0  0  0
 13 19  1  0  0  0
 28 29  1  0  0  0
M  END
> <minimizedAffinity>
17.16823

> <CNNscore>
0.3316078186

> <CNNaffinity>
8.0126018524

> <CNN_VS>
2.6570413113

> <CNNaffinity_variance>
0.4638372064

$$$$
[H]c1nc(OC([H])([H])[H])c(N([H])S(=O)(=O)c2c([H])c([H])c(F)c([H])c2F)c([H])c1-c1nc([H])c2nc(N([H])[H])c(-c3c([H])c([H])c([H])c([H])c3[H])c([H])c2c1[H]


 40 44  0  0  0  0  0  0  0  0999 V2000
    7.2654   51.5329  129.9988 C   0  0  0  0  0  0  0  0  0  0  0  0
    8.3180   51.9254  130.7304 N   0  0  0  0  0  0  0  0  0  0  0  0
    9.0549   51.0636  131.4990 C   0  0  0  0  0  0  0  0  0  0  0  0
    8.7412   49.7289  131.5560 C   0  0  0  0  0  0  0  0  0  0  0  0
    7.6549   49.3157  130.8029 C   0  0  0  0  0  0  0  0  0  0  0  0
    6.9139   50.2031  130.0251 C   0  0  0  0  0  0  0  0  0  0  0  0
    9.4911   48.7573  132.3597 C   0  0  0  0  0  0  0  0  0  0  0  0
    9.4908   47.4353  132.0657 C   0  0  0  0  0  0  0  0  0  0  0  0
   10.2107   46.5158  132.8400 C   0  0  0  0  0  0  0  0  0  0  0  0
   10.1951   45.1739  132.5210 C   0  0  0  0  0  0  0  0  0  0  0  0
   10.9306   44.3006  133.3267 C   0  0  0  0  0  0  0  0  0  0  0  0
   11.6448   44.7969  134.4073 C   0  0  0  0  0  0  0  0  0  0  0  0
   12.3802   43.8663  135.1861 N   0  0  0  0  0  0  0  0  0  0  0  0
   11.6413   46.1211  134.6970 N   0  0  0  0  0  0  0  0  0  0  0  0
   10.9351   46.9639  133.9245 C   0  0  0  0  0  0  0  0  0  0  0  0
   10.9146   48.3292  134.2000 C   0  0  0  0  0  0  0  0  0  0  0  0
   10.2143   49.1729  133.4353 N   0  0  0  0  0  0  0  0  0  0  0  0
   12.9421   43.1506  134.6863 H   0  0  0  0  0  0  0  0  0  0  0  0
   12.3651   43.8898  136.2116 H   0  0  0  0  0  0  0  0  0  0  0  0
   10.9011   42.9074  132.9916 C   0  0  0  0  0  0  0  0  0  0  0  0
   11.7014   42.4024  131.9944 C   0  0  0  0  0  0  0  0  0  0  0  0
   11.6905   41.0795  131.6456 C   0  0  0  0  0  0  0  0  0  0  0  0
   10.8568   40.2100  132.3037 C   0  0  0  0  0  0  0  0  0  0  0  0
   10.0387   40.6761  133.3091 C   0  0  0  0  0  0  0  0  0  0  0  0
   10.0722   42.0249  133.6407 C   0  0  0  0  0  0  0  0  0  0  0  0
    7.0222   52.9730  128.0218 C   0  0  0  0  0  0  0  0  0  0  0  0
    6.5496   52.4688  129.2299 O   0  0  0  0  0  0  0  0  0  0  0  0
    5.7996   49.7829  129.2590 N   0  0  0  0  0  0  0  0  0  0  0  0
    5.1400   50.5409  128.9213 H   0  0  0  0  0  0  0  0  0  0  0  0
    5.4718   48.1317  128.8611 S   0  0  0  0  0  0  0  0  0  0  0  0
    4.2805   47.6508  129.6592 O   0  0  0  0  0  0  0  0  0  0  0  0
    5.0630   48.0574  127.4196 O   0  0  0  0  0  0  0  0  0  0  0  0
    6.8291   47.0926  129.1205 C   0  0  0  0  0  0  0  0  0  0  0  0
    6.7469   46.0059  129.9588 C   0  0  0  0  0  0  0  0  0  0  0  0
    7.8541   45.1986  130.1328 C   0  0  0  0  0  0  0  0  0  0  0  0
    9.0341   45.4668  129.4800 C   0  0  0  0  0  0  0  0  0  0  0  0
   10.1413   44.6780  129.6401 F   0  0  0  0  0  0  0  0  0  0  0  0
    9.1382   46.5589  128.6292 C   0  0  0  0  0  0  0  0  0  0  0  0
    8.0152   47.3453  128.4769 C   0  0  0  0  0  0  0  0  0  0  0  0
    8.0788   48.4194  127.6550 F   0  0  0  0  0  0  0  0  0  0  0  0
 26 27  1  0  0  0
 27  1  1  0  0  0
  1  2  2  0  0  0
  2  3  1  0  0  0
  3  4  2  0  0  0
  4  7  1  0  0  0
  7  8  2  0  0  0
  8  9  1  0  0  0
  9 10  2  0  0  0
 10 11  1  0  0  0
 11 20  1  0  0  0
 20 21  2  0  0  0
 21 22  1  0  0  0
 22 23  2  0  0  0
 23 24  1  0  0  0
 24 25  2  0  0  0
 11 12  2  0  0  0
 12 13  1  0  0  0
 12 14  1  0  0  0
 14 15  2  0  0  0
 15 16  1  0  0  0
 16 17  2  0  0  0
  4  5  1  0  0  0
  5  6  2  0  0  0
  6 28  1  0  0  0
 28 30  1  0  0  0
 30 31  2  0  0  0
 30 32  2  0  0  0
 30 33  1  0  0  0
 33 34  2  0  0  0
 34 35  1  0  0  0
 35 36  2  0  0  0
 36 37  1  0  0  0
 36 38  1  0  0  0
 38 39  2  0  0  0
 39 40  1  0  0  0
  6  1  1  0  0  0
 39 33  1  0  0  0
 17  7  1  0  0  0
 15  9  1  0  0  0
 25 20  1  0  0  0
 13 18  1  0  0  0
 13 19  1  0  0  0
 28 29  1  0  0  0
M  END
> <minimizedAffinity>
12.55901

> <CNNscore>
0.3225650489

> <CNNaffinity>
8.0442323685

> <CNN_VS>
2.5947883129

> <CNNaffinity_variance>
0.7129037380

$$$$
[H]c1nc(OC([H])([H])[H])c(N([H])S(=O)(=O)c2c([H])c([H])c(F)c([H])c2F)c([H])c1-c1nc([H])c2nc(N([H])[H])c(-c3c([H])c([H])c([H])c([H])c3[H])c([H])c2c1[H]


 40 44  0  0  0  0  0  0  0  0999 V2000
    9.2003   46.4174  132.1440 C   0  0  0  0  0  0  0  0  0  0  0  0
    9.6300   47.6623  132.3951 N   0  0  0  0  0  0  0  0  0  0  0  0
    9.1039   48.7701  131.7846 C   0  0  0  0  0  0  0  0  0  0  0  0
    8.0902   48.6524  130.8673 C   0  0  0  0  0  0  0  0  0  0  0  0
    7.6410   47.3694  130.6024 C   0  0  0  0  0  0  0  0  0  0  0  0
    8.1850   46.2511  131.2309 C   0  0  0  0  0  0  0  0  0  0  0  0
    7.4861   49.7994  130.1805 C   0  0  0  0  0  0  0  0  0  0  0  0
    8.0218   50.3182  129.0500 C   0  0  0  0  0  0  0  0  0  0  0  0
    7.4365   51.4140  128.4019 C   0  0  0  0  0  0  0  0  0  0  0  0
    8.0004   51.9252  127.2515 C   0  0  0  0  0  0  0  0  0  0  0  0
    7.3757   53.0188  126.6459 C   0  0  0  0  0  0  0  0  0  0  0  0
    6.2250   53.5524  127.2072 C   0  0  0  0  0  0  0  0  0  0  0  0
    5.6283   54.6569  126.5458 N   0  0  0  0  0  0  0  0  0  0  0  0
    5.6934   53.0291  128.3390 N   0  0  0  0  0  0  0  0  0  0  0  0
    6.2914   51.9776  128.9242 C   0  0  0  0  0  0  0  0  0  0  0  0
    5.7658   51.4207  130.0878 C   0  0  0  0  0  0  0  0  0  0  0  0
    6.3558   50.3746  130.6748 N   0  0  0  0  0  0  0  0  0  0  0  0
    5.5328   54.6116  125.5131 H   0  0  0  0  0  0  0  0  0  0  0  0
    5.2976   55.4800  127.0610 H   0  0  0  0  0  0  0  0  0  0  0  0
    7.9744   53.5475  125.4558 C   0  0  0  0  0  0  0  0  0  0  0  0
    7.3334   53.4606  124.2427 C   0  0  0  0  0  0  0  0  0  0  0  0
    7.8817   53.9482  123.0879 C   0  0  0  0  0  0  0  0  0  0  0  0
    9.1155   54.5488  123.1221 C   0  0  0  0  0  0  0  0  0  0  0  0
    9.7909   54.6557  124.3178 C   0  0  0  0  0  0  0  0  0  0  0  0
    9.2083   54.1509  125.4737 C   0  0  0  0  0  0  0  0  0  0  0  0
   10.5843   45.4590  133.9350 C   0  0  0  0  0  0  0  0  0  0  0  0
    9.7831   45.3209  132.8053 O   0  0  0  0  0  0  0  0  0  0  0  0
    7.7303   44.9383  130.9568 N   0  0  0  0  0  0  0  0  0  0  0  0
    6.6872   44.8150  130.8140 H   0  0  0  0  0  0  0  0  0  0  0  0
    8.7715   43.5611  130.8494 S   0  0  0  0  0  0  0  0  0  0  0  0
    8.8576   42.8912  132.2026 O   0  0  0  0  0  0  0  0  0  0  0  0
    8.1452   42.5565  129.9281 O   0  0  0  0  0  0  0  0  0  0  0  0
   10.3527   43.9538  130.2706 C   0  0  0  0  0  0  0  0  0  0  0  0
   11.4558   43.8593  131.0859 C   0  0  0  0  0  0  0  0  0  0  0  0
   12.7014   44.1772  130.5808 C   0  0  0  0  0  0  0  0  0  0  0  0
   12.8521   44.5857  129.2766 C   0  0  0  0  0  0  0  0  0  0  0  0
   14.0784   44.9048  128.7588 F   0  0  0  0  0  0  0  0  0  0  0  0
   11.7514   44.6878  128.4367 C   0  0  0  0  0  0  0  0  0  0  0  0
   10.5218   44.3633  128.9711 C   0  0  0  0  0  0  0  0  0  0  0  0
    9.4250   44.4508  128.1820 F   0  0  0  0  0  0  0  0  0  0  0  0
 26 27  1  0  0  0
 27  1  1  0  0  0
  1  2  2  0  0  0
  2  3  1  0  0  0
  3  4  2  0  0  0
  4  7  1  0  0  0
  7  8  2  0  0  0
  8  9  1  0  0  0
  9 10  2  0  0  0
 10 11  1  0  0  0
 11 20  1  0  0  0
 20 21  2  0  0  0
 21 22  1  0  0  0
 22 23  2  0  0  0
 23 24  1  0  0  0
 24 25  2  0  0  0
 11 12  2  0  0  0
 12 13  1  0  0  0
 12 14  1  0  0  0
 14 15  2  0  0  0
 15 16  1  0  0  0
 16 17  2  0  0  0
  4  5  1  0  0  0
  5  6  2  0  0  0
  6 28  1  0  0  0
 28 30  1  0  0  0
 30 31  2  0  0  0
 30 32  2  0  0  0
 30 33  1  0  0  0
 33 34  2  0  0  0
 34 35  1  0  0  0
 35 36  2  0  0  0
 36 37  1  0  0  0
 36 38  1  0  0  0
 38 39  2  0  0  0
 39 40  1  0  0  0
  6  1  1  0  0  0
 39 33  1  0  0  0
 17  7  1  0  0  0
 15  9  1  0  0  0
 25 20  1  0  0  0
 13 18  1  0  0  0
 13 19  1  0  0  0
 28 29  1  0  0  0
M  END
> <minimizedAffinity>
9.87191

> <CNNscore>
0.2929975390

> <CNNaffinity>
7.5237779617

> <CNN_VS>
2.2044484615

> <CNNaffinity_variance>
0.1450263858

$$$$
[H]c1nc(OC([H])([H])[H])c(N([H])S(=O)(=O)c2c([H])c([H])c(F)c([H])c2F)c([H])c1-c1nc([H])c2nc(N([H])[H])c(-c3c([H])c([H])c([H])c([H])c3[H])c([H])c2c1[H]


 40 44  0  0  0  0  0  0  0  0999 V2000
   11.8015   41.9696  132.6653 C   0  0  0  0  0  0  0  0  0  0  0  0
   12.1704   42.7094  133.7207 N   0  0  0  0  0  0  0  0  0  0  0  0
   11.8991   44.0481  133.8244 C   0  0  0  0  0  0  0  0  0  0  0  0
   11.2220   44.7072  132.8294 C   0  0  0  0  0  0  0  0  0  0  0  0
   10.8376   43.9497  131.7357 C   0  0  0  0  0  0  0  0  0  0  0  0
   11.1199   42.5883  131.6431 C   0  0  0  0  0  0  0  0  0  0  0  0
   10.9019   46.1380  132.8820 C   0  0  0  0  0  0  0  0  0  0  0  0
    9.9843   46.6955  132.0567 C   0  0  0  0  0  0  0  0  0  0  0  0
    9.6861   48.0634  132.1155 C   0  0  0  0  0  0  0  0  0  0  0  0
    8.7475   48.6086  131.2644 C   0  0  0  0  0  0  0  0  0  0  0  0
    8.4887   49.9782  131.3657 C   0  0  0  0  0  0  0  0  0  0  0  0
    9.1703   50.7403  132.3031 C   0  0  0  0  0  0  0  0  0  0  0  0
    8.8619   52.1239  132.3677 N   0  0  0  0  0  0  0  0  0  0  0  0
   10.0879   50.1769  133.1265 N   0  0  0  0  0  0  0  0  0  0  0  0
   10.3394   48.8603  133.0319 C   0  0  0  0  0  0  0  0  0  0  0  0
   11.2774   48.2563  133.8660 C   0  0  0  0  0  0  0  0  0  0  0  0
   11.5321   46.9471  133.7771 N   0  0  0  0  0  0  0  0  0  0  0  0
    7.8617   52.4008  132.3426 H   0  0  0  0  0  0  0  0  0  0  0  0
    9.5955   52.8376  132.4370 H   0  0  0  0  0  0  0  0  0  0  0  0
    7.5179   50.5363  130.4712 C   0  0  0  0  0  0  0  0  0  0  0  0
    6.1976   50.1583  130.5347 C   0  0  0  0  0  0  0  0  0  0  0  0
    5.2488   50.6664  129.6901 C   0  0  0  0  0  0  0  0  0  0  0  0
    5.6092   51.5877  128.7385 C   0  0  0  0  0  0  0  0  0  0  0  0
    6.9222   51.9928  128.6418 C   0  0  0  0  0  0  0  0  0  0  0  0
    7.8630   51.4587  129.5136 C   0  0  0  0  0  0  0  0  0  0  0  0
   11.3648   39.6792  131.8875 C   0  0  0  0  0  0  0  0  0  0  0  0
   12.1110   40.5979  132.6198 O   0  0  0  0  0  0  0  0  0  0  0  0
   10.7323   41.8139  130.5227 N   0  0  0  0  0  0  0  0  0  0  0  0
   11.2789   40.9228  130.3468 H   0  0  0  0  0  0  0  0  0  0  0  0
    9.4425   42.2448  129.4536 S   0  0  0  0  0  0  0  0  0  0  0  0
    9.6275   41.5324  128.1324 O   0  0  0  0  0  0  0  0  0  0  0  0
    8.1538   41.7318  130.0248 O   0  0  0  0  0  0  0  0  0  0  0  0
    9.3137   43.9509  129.2044 C   0  0  0  0  0  0  0  0  0  0  0  0
    8.1872   44.6445  129.5789 C   0  0  0  0  0  0  0  0  0  0  0  0
    8.1287   46.0080  129.3667 C   0  0  0  0  0  0  0  0  0  0  0  0
    9.1798   46.6790  128.7874 C   0  0  0  0  0  0  0  0  0  0  0  0
    9.1397   48.0298  128.5694 F   0  0  0  0  0  0  0  0  0  0  0  0
   10.3264   45.9976  128.4021 C   0  0  0  0  0  0  0  0  0  0  0  0
   10.3537   44.6370  128.6275 C   0  0  0  0  0  0  0  0  0  0  0  0
   11.4555   43.9386  128.2648 F   0  0  0  0  0  0  0  0  0  0  0  0
 26 27  1  0  0  0
 27  1  1  0  0  0
  1  2  2  0  0  0
  2  3  1  0  0  0
  3  4  2  0  0  0
  4  7  1  0  0  0
  7  8  2  0  0  0
  8  9  1  0  0  0
  9 10  2  0  0  0
 10 11  1  0  0  0
 11 20  1  0  0  0
 20 21  2  0  0  0
 21 22  1  0  0  0
 22 23  2  0  0  0
 23 24  1  0  0  0
 24 25  2  0  0  0
 11 12  2  0  0  0
 12 13  1  0  0  0
 12 14  1  0  0  0
 14 15  2  0  0  0
 15 16  1  0  0  0
 16 17  2  0  0  0
  4  5  1  0  0  0
  5  6  2  0  0  0
  6 28  1  0  0  0
 28 30  1  0  0  0
 30 31  2  0  0  0
 30 32  2  0  0  0
 30 33  1  0  0  0
 33 34  2  0  0  0
 34 35  1  0  0  0
 35 36  2  0  0  0
 36 37  1  0  0  0
 36 38  1  0  0  0
 38 39  2  0  0  0
 39 40  1  0  0  0
  6  1  1  0  0  0
 39 33  1  0  0  0
 17  7  1  0  0  0
 15  9  1  0  0  0
 25 20  1  0  0  0
 13 18  1  0  0  0
 13 19  1  0  0  0
 28 29  1  0  0  0
M  END
> <minimizedAffinity>
14.01054

> <CNNscore>
0.2212590426

> <CNNaffinity>
8.0412530899

> <CNN_VS>
1.7791999578

> <CNNaffinity_variance>
0.4106545448

$$$$
[H]c1nc(OC([H])([H])[H])c(N([H])S(=O)(=O)c2c([H])c([H])c(F)c([H])c2F)c([H])c1-c1nc([H])c2nc(N([H])[H])c(-c3c([H])c([H])c([H])c([H])c3[H])c([H])c2c1[H]


 40 44  0  0  0  0  0  0  0  0999 V2000
    8.8213   44.4673  129.6850 C   0  0  0  0  0  0  0  0  0  0  0  0
    7.5786   44.8510  129.3597 N   0  0  0  0  0  0  0  0  0  0  0  0
    7.2109   46.1653  129.2415 C   0  0  0  0  0  0  0  0  0  0  0  0
    8.1191   47.1713  129.4559 C   0  0  0  0  0  0  0  0  0  0  0  0
    9.4051   46.7829  129.7926 C   0  0  0  0  0  0  0  0  0  0  0  0
    9.7658   45.4420  129.9092 C   0  0  0  0  0  0  0  0  0  0  0  0
    7.7866   48.5959  129.3448 C   0  0  0  0  0  0  0  0  0  0  0  0
    7.9215   49.2721  128.1793 C   0  0  0  0  0  0  0  0  0  0  0  0
    7.6009   50.6329  128.0842 C   0  0  0  0  0  0  0  0  0  0  0  0
    7.7466   51.3005  126.8861 C   0  0  0  0  0  0  0  0  0  0  0  0
    7.4123   52.6569  126.8472 C   0  0  0  0  0  0  0  0  0  0  0  0
    6.9506   53.2855  127.9942 C   0  0  0  0  0  0  0  0  0  0  0  0
    6.6183   54.6615  127.8952 N   0  0  0  0  0  0  0  0  0  0  0  0
    6.8177   52.6036  129.1582 N   0  0  0  0  0  0  0  0  0  0  0  0
    7.1383   51.2993  129.1994 C   0  0  0  0  0  0  0  0  0  0  0  0
    7.0110   50.5753  130.3826 C   0  0  0  0  0  0  0  0  0  0  0  0
    7.3280   49.2775  130.4302 N   0  0  0  0  0  0  0  0  0  0  0  0
    6.0653   54.9702  127.0727 H   0  0  0  0  0  0  0  0  0  0  0  0
    6.9097   55.3396  128.6077 H   0  0  0  0  0  0  0  0  0  0  0  0
    7.5753   53.3433  125.5997 C   0  0  0  0  0  0  0  0  0  0  0  0
    6.4888   53.6597  124.8190 C   0  0  0  0  0  0  0  0  0  0  0  0
    6.6119   54.3070  123.6199 C   0  0  0  0  0  0  0  0  0  0  0  0
    7.8571   54.6611  123.1634 C   0  0  0  0  0  0  0  0  0  0  0  0
    8.9716   54.3620  123.9157 C   0  0  0  0  0  0  0  0  0  0  0  0
    8.8145   53.7039  125.1292 C   0  0  0  0  0  0  0  0  0  0  0  0
    8.3551   42.1995  130.5104 C   0  0  0  0  0  0  0  0  0  0  0  0
    9.1349   43.0998  129.7903 O   0  0  0  0  0  0  0  0  0  0  0  0
   11.0789   45.0436  130.2588 N   0  0  0  0  0  0  0  0  0  0  0  0
   11.7181   44.7574  129.4631 H   0  0  0  0  0  0  0  0  0  0  0  0
   11.6724   45.0011  131.8831 S   0  0  0  0  0  0  0  0  0  0  0  0
   11.8750   43.5630  132.3051 O   0  0  0  0  0  0  0  0  0  0  0  0
   13.0301   45.6383  131.9149 O   0  0  0  0  0  0  0  0  0  0  0  0
   10.6364   45.8164  133.0018 C   0  0  0  0  0  0  0  0  0  0  0  0
   10.9380   47.0740  133.4686 C   0  0  0  0  0  0  0  0  0  0  0  0
   10.0793   47.6912  134.3571 C   0  0  0  0  0  0  0  0  0  0  0  0
    8.9300   47.0660  134.7796 C   0  0  0  0  0  0  0  0  0  0  0  0
    8.0673   47.6622  135.6596 F   0  0  0  0  0  0  0  0  0  0  0  0
    8.6069   45.7963  134.3204 C   0  0  0  0  0  0  0  0  0  0  0  0
    9.4846   45.2070  133.4343 C   0  0  0  0  0  0  0  0  0  0  0  0
    9.2029   43.9688  132.9647 F   0  0  0  0  0  0  0  0  0  0  0  0
 26 27  1  0  0  0
 27  1  1  0  0  0
  1  2  2  0  0  0
  2  3  1  0  0  0
  3  4  2  0  0  0
  4  7  1  0  0  0
  7  8  2  0  0  0
  8  9  1  0  0  0
  9 10  2  0  0  0
 10 11  1  0  0  0
 11 20  1  0  0  0
 20 21  2  0  0  0
 21 22  1  0  0  0
 22 23  2  0  0  0
 23 24  1  0  0  0
 24 25  2  0  0  0
 11 12  2  0  0  0
 12 13  1  0  0  0
 12 14  1  0  0  0
 14 15  2  0  0  0
 15 16  1  0  0  0
 16 17  2  0  0  0
  4  5  1  0  0  0
  5  6  2  0  0  0
  6 28  1  0  0  0
 28 30  1  0  0  0
 30 31  2  0  0  0
 30 32  2  0  0  0
 30 33  1  0  0  0
 33 34  2  0  0  0
 34 35  1  0  0  0
 35 36  2  0  0  0
 36 37  1  0  0  0
 36 38  1  0  0  0
 38 39  2  0  0  0
 39 40  1  0  0  0
  6  1  1  0  0  0
 39 33  1  0  0  0
 17  7  1  0  0  0
 15  9  1  0  0  0
 25 20  1  0  0  0
 13 18  1  0  0  0
 13 19  1  0  0  0
 28 29  1  0  0  0
M  END
> <minimizedAffinity>
7.70467

> <CNNscore>
0.2142719626

> <CNNaffinity>
7.3920631409

> <CNN_VS>
1.5839118958

> <CNNaffinity_variance>
0.1401242763

$$$$
[H]c1nc(OC([H])([H])[H])c(N([H])S(=O)(=O)c2c([H])c([H])c(F)c([H])c2F)c([H])c1-c1nc([H])c2nc(N([H])[H])c(-c3c([H])c([H])c([H])c([H])c3[H])c([H])c2c1[H]


 40 44  0  0  0  0  0  0  0  0999 V2000
   11.1869   45.3235  134.1925 C   0  0  0  0  0  0  0  0  0  0  0  0
   10.9671   46.6456  134.2279 N   0  0  0  0  0  0  0  0  0  0  0  0
   10.0432   47.2695  133.4318 C   0  0  0  0  0  0  0  0  0  0  0  0
    9.2838   46.5526  132.5417 C   0  0  0  0  0  0  0  0  0  0  0  0
    9.5053   45.1862  132.4992 C   0  0  0  0  0  0  0  0  0  0  0  0
   10.4483   44.5642  133.3149 C   0  0  0  0  0  0  0  0  0  0  0  0
    8.2796   47.1625  131.6631 C   0  0  0  0  0  0  0  0  0  0  0  0
    8.4937   48.3514  131.0510 C   0  0  0  0  0  0  0  0  0  0  0  0
    7.5277   48.9250  130.2136 C   0  0  0  0  0  0  0  0  0  0  0  0
    7.7685   50.1372  129.6010 C   0  0  0  0  0  0  0  0  0  0  0  0
    6.7708   50.6637  128.7761 C   0  0  0  0  0  0  0  0  0  0  0  0
    5.5853   49.9660  128.5977 C   0  0  0  0  0  0  0  0  0  0  0  0
    4.6108   50.5435  127.7431 N   0  0  0  0  0  0  0  0  0  0  0  0
    5.3765   48.7764  129.2132 N   0  0  0  0  0  0  0  0  0  0  0  0
    6.3334   48.2671  130.0072 C   0  0  0  0  0  0  0  0  0  0  0  0
    6.1444   47.0466  130.6513 C   0  0  0  0  0  0  0  0  0  0  0  0
    7.0925   46.5343  131.4423 N   0  0  0  0  0  0  0  0  0  0  0  0
    4.9308   50.9392  126.8383 H   0  0  0  0  0  0  0  0  0  0  0  0
    3.6182   50.5749  128.0003 H   0  0  0  0  0  0  0  0  0  0  0  0
    7.0276   51.9276  128.1509 C   0  0  0  0  0  0  0  0  0  0  0  0
    6.8400   53.1059  128.8339 C   0  0  0  0  0  0  0  0  0  0  0  0
    7.0685   54.3280  128.2628 C   0  0  0  0  0  0  0  0  0  0  0  0
    7.5009   54.4002  126.9620 C   0  0  0  0  0  0  0  0  0  0  0  0
    7.7010   53.2425  126.2429 C   0  0  0  0  0  0  0  0  0  0  0  0
    7.4602   52.0163  126.8501 C   0  0  0  0  0  0  0  0  0  0  0  0
   13.3556   44.2288  134.5665 C   0  0  0  0  0  0  0  0  0  0  0  0
   12.1512   44.7437  135.0370 O   0  0  0  0  0  0  0  0  0  0  0  0
   10.6795   43.1679  133.2684 N   0  0  0  0  0  0  0  0  0  0  0  0
   10.4404   42.6157  134.1410 H   0  0  0  0  0  0  0  0  0  0  0  0
   11.3201   42.3430  131.8895 S   0  0  0  0  0  0  0  0  0  0  0  0
   12.7981   42.0966  132.0948 O   0  0  0  0  0  0  0  0  0  0  0  0
   10.6818   40.9883  131.8012 O   0  0  0  0  0  0  0  0  0  0  0  0
   11.0520   43.1944  130.4087 C   0  0  0  0  0  0  0  0  0  0  0  0
   10.0055   42.8705  129.5778 C   0  0  0  0  0  0  0  0  0  0  0  0
    9.8246   43.5806  128.4070 C   0  0  0  0  0  0  0  0  0  0  0  0
   10.6751   44.6045  128.0627 C   0  0  0  0  0  0  0  0  0  0  0  0
   10.5114   45.3191  126.9067 F   0  0  0  0  0  0  0  0  0  0  0  0
   11.7378   44.9477  128.8876 C   0  0  0  0  0  0  0  0  0  0  0  0
   11.8913   44.2197  130.0491 C   0  0  0  0  0  0  0  0  0  0  0  0
   12.9167   44.5256  130.8788 F   0  0  0  0  0  0  0  0  0  0  0  0
 26 27  1  0  0  0
 27  1  1  0  0  0
  1  2  2  0  0  0
  2  3  1  0  0  0
  3  4  2  0  0  0
  4  7  1  0  0  0
  7  8  2  0  0  0
  8  9  1  0  0  0
  9 10  2  0  0  0
 10 11  1  0  0  0
 11 20  1  0  0  0
 20 21  2  0  0  0
 21 22  1  0  0  0
 22 23  2  0  0  0
 23 24  1  0  0  0
 24 25  2  0  0  0
 11 12  2  0  0  0
 12 13  1  0  0  0
 12 14  1  0  0  0
 14 15  2  0  0  0
 15 16  1  0  0  0
 16 17  2  0  0  0
  4  5  1  0  0  0
  5  6  2  0  0  0
  6 28  1  0  0  0
 28 30  1  0  0  0
 30 31  2  0  0  0
 30 32  2  0  0  0
 30 33  1  0  0  0
 33 34  2  0  0  0
 34 35  1  0  0  0
 35 36  2  0  0  0
 36 37  1  0  0  0
 36 38  1  0  0  0
 38 39  2  0  0  0
 39 40  1  0  0  0
  6  1  1  0  0  0
 39 33  1  0  0  0
 17  7  1  0  0  0
 15  9  1  0  0  0
 25 20  1  0  0  0
 13 18  1  0  0  0
 13 19  1  0  0  0
 28 29  1  0  0  0
M  END
> <minimizedAffinity>
11.96754

> <CNNscore>
0.2001065612

> <CNNaffinity>
7.8599119186

> <CNN_VS>
1.5728199482

> <CNNaffinity_variance>
0.2329780757

$$$$
[H]c1c([H])c(S(=O)(=O)C([H])([H])C([H])([H])C([H])([H])C([H])([H])C([H])([H])C([H])([H])[H])c(Cl)c(Cl)c1C(=O)C([H])([H])C([H])([H])N1C([H])([H])C1([H])C([H])([H])[H]


 25 26  0  0  0  0  0  0  0  0999 V2000
   10.6903   45.3206  132.6555 C   0  0  0  0  0  0  0  0  0  0  0  0
   11.0550   45.9562  131.4810 C   0  0  0  0  0  0  0  0  0  0  0  0
   10.6660   47.2437  131.2252 C   0  0  0  0  0  0  0  0  0  0  0  0
    9.9105   47.9557  132.1094 C   0  0  0  0  0  0  0  0  0  0  0  0
    9.5266   47.3319  133.3039 C   0  0  0  0  0  0  0  0  0  0  0  0
    8.5441   48.2435  134.4496 Cl  0  0  0  0  0  0  0  0  0  0  0  0
    9.9216   46.0360  133.5463 C   0  0  0  0  0  0  0  0  0  0  0  0
    9.4306   45.2564  135.0302 Cl  0  0  0  0  0  0  0  0  0  0  0  0
   11.2726   43.7056  132.9929 S   0  0  0  0  0  0  0  0  0  0  0  0
   11.7248   43.7120  134.4545 O   0  0  0  0  0  0  0  0  0  0  0  0
   12.3748   43.3130  132.0934 O   0  0  0  0  0  0  0  0  0  0  0  0
    9.8607   42.6349  132.8454 C   0  0  0  0  0  0  0  0  0  0  0  0
    8.8986   43.0884  131.8044 C   0  0  0  0  0  0  0  0  0  0  0  0
    9.4088   42.5326  130.4650 C   0  0  0  0  0  0  0  0  0  0  0  0
    9.0915   43.5103  129.3685 C   0  0  0  0  0  0  0  0  0  0  0  0
   10.8114   44.7020  128.1539 C   0  0  0  0  0  0  0  0  0  0  0  0
    9.9562   43.4411  128.1628 C   0  0  0  0  0  0  0  0  0  0  0  0
    9.5875   49.3950  131.9149 C   0  0  0  0  0  0  0  0  0  0  0  0
    9.9054   50.2024  132.7399 O   0  0  0  0  0  0  0  0  0  0  0  0
    8.8715   49.6948  130.6773 C   0  0  0  0  0  0  0  0  0  0  0  0
    7.5735   49.0306  130.4381 C   0  0  0  0  0  0  0  0  0  0  0  0
    7.2873   48.3715  129.2506 N   0  0  0  0  0  0  0  0  0  0  0  0
    6.1955   47.7022  128.7284 C   0  0  0  0  0  0  0  0  0  0  0  0
    7.3567   46.8977  129.3161 C   0  0  0  0  0  0  0  0  0  0  0  0
    7.0843   46.2577  130.6427 C   0  0  0  0  0  0  0  0  0  0  0  0
 16 17  1  0  0  0
 17 15  1  0  0  0
 15 14  1  0  0  0
 14 13  1  0  0  0
 13 12  1  0  0  0
 12  9  1  0  0  0
  9 10  2  0  0  0
  9 11  2  0  0  0
  9  1  1  0  0  0
  1  2  2  0  0  0
  2  3  1  0  0  0
  3  4  2  0  0  0
  4 18  1  0  0  0
 18 19  2  0  0  0
 18 20  1  0  0  0
 20 21  1  0  0  0
 21 22  1  0  0  0
 22 23  1  0  0  0
 23 24  1  0  0  0
 24 25  1  0  0  0
  4  5  1  0  0  0
  5  6  1  0  0  0
  5  7  2  0  0  0
  7  8  1  0  0  0
  7  1  1  0  0  0
 24 22  1  0  0  0
M  END
> <minimizedAffinity>
-6.85621

> <CNNscore>
0.5998952389

> <CNNaffinity>
7.9938964844

> <CNN_VS>
4.7955002785

> <CNNaffinity_variance>
0.2941497266

$$$$
[H]c1c([H])c(S(=O)(=O)C([H])([H])C([H])([H])C([H])([H])C([H])([H])C([H])([H])C([H])([H])[H])c(Cl)c(Cl)c1C(=O)C([H])([H])C([H])([H])N1C([H])([H])C1([H])C([H])([H])[H]


 25 26  0  0  0  0  0  0  0  0999 V2000
    7.6530   47.3696  129.6798 C   0  0  0  0  0  0  0  0  0  0  0  0
    7.9278   46.1733  129.0397 C   0  0  0  0  0  0  0  0  0  0  0  0
    9.0545   45.4553  129.3390 C   0  0  0  0  0  0  0  0  0  0  0  0
    9.9496   45.8796  130.2763 C   0  0  0  0  0  0  0  0  0  0  0  0
    9.6941   47.0895  130.9351 C   0  0  0  0  0  0  0  0  0  0  0  0
   10.8500   47.6483  132.1437 Cl  0  0  0  0  0  0  0  0  0  0  0  0
    8.5595   47.8027  130.6216 C   0  0  0  0  0  0  0  0  0  0  0  0
    8.2502   49.3171  131.4350 Cl  0  0  0  0  0  0  0  0  0  0  0  0
    6.1640   48.2222  129.3381 S   0  0  0  0  0  0  0  0  0  0  0  0
    5.8810   48.0068  127.8500 O   0  0  0  0  0  0  0  0  0  0  0  0
    6.2593   49.6589  129.6623 O   0  0  0  0  0  0  0  0  0  0  0  0
    4.8998   47.3960  130.2766 C   0  0  0  0  0  0  0  0  0  0  0  0
    4.1046   46.4408  129.4581 C   0  0  0  0  0  0  0  0  0  0  0  0
    2.6261   46.7175  129.7756 C   0  0  0  0  0  0  0  0  0  0  0  0
    1.8190   45.4800  129.4999 C   0  0  0  0  0  0  0  0  0  0  0  0
    1.1809   44.5137  131.6242 C   0  0  0  0  0  0  0  0  0  0  0  0
    0.6571   45.2464  130.3954 C   0  0  0  0  0  0  0  0  0  0  0  0
   11.1089   45.0553  130.7126 C   0  0  0  0  0  0  0  0  0  0  0  0
   12.0910   45.5793  131.1535 O   0  0  0  0  0  0  0  0  0  0  0  0
   10.9278   43.6155  130.5443 C   0  0  0  0  0  0  0  0  0  0  0  0
   10.6415   42.7988  131.7419 C   0  0  0  0  0  0  0  0  0  0  0  0
    9.6804   43.1642  132.6742 N   0  0  0  0  0  0  0  0  0  0  0  0
    9.2519   44.3508  133.2410 C   0  0  0  0  0  0  0  0  0  0  0  0
   10.1928   43.4394  134.0317 C   0  0  0  0  0  0  0  0  0  0  0  0
   11.6058   43.9233  134.1451 C   0  0  0  0  0  0  0  0  0  0  0  0
 16 17  1  0  0  0
 17 15  1  0  0  0
 15 14  1  0  0  0
 14 13  1  0  0  0
 13 12  1  0  0  0
 12  9  1  0  0  0
  9 10  2  0  0  0
  9 11  2  0  0  0
  9  1  1  0  0  0
  1  2  2  0  0  0
  2  3  1  0  0  0
  3  4  2  0  0  0
  4 18  1  0  0  0
 18 19  2  0  0  0
 18 20  1  0  0  0
 20 21  1  0  0  0
 21 22  1  0  0  0
 22 23  1  0  0  0
 23 24  1  0  0  0
 24 25  1  0  0  0
  4  5  1  0  0  0
  5  6  1  0  0  0
  5  7  2  0  0  0
  7  8  1  0  0  0
  7  1  1  0  0  0
 24 22  1  0  0  0
M  END
> <minimizedAffinity>
3.63496

> <CNNscore>
0.4196116030

> <CNNaffinity>
7.2807898521

> <CNN_VS>
3.0551040173

> <CNNaffinity_variance>
0.3899173737

$$$$
[H]c1c([H])c(S(=O)(=O)C([H])([H])C([H])([H])C([H])([H])C([H])([H])C([H])([H])C([H])([H])[H])c(Cl)c(Cl)c1C(=O)C([H])([H])C([H])([H])N1C([H])([H])C1([H])C([H])([H])[H]


 25 26  0  0  0  0  0  0  0  0999 V2000
   10.9509   45.0751  131.9516 C   0  0  0  0  0  0  0  0  0  0  0  0
    9.7160   45.4852  132.4240 C   0  0  0  0  0  0  0  0  0  0  0  0
    8.7191   45.8578  131.5626 C   0  0  0  0  0  0  0  0  0  0  0  0
    8.8932   45.8392  130.2102 C   0  0  0  0  0  0  0  0  0  0  0  0
   10.1362   45.4307  129.7088 C   0  0  0  0  0  0  0  0  0  0  0  0
   10.3715   45.4101  127.9615 Cl  0  0  0  0  0  0  0  0  0  0  0  0
   11.1305   45.0624  130.5863 C   0  0  0  0  0  0  0  0  0  0  0  0
   12.6831   44.5661  129.9590 Cl  0  0  0  0  0  0  0  0  0  0  0  0
   12.1767   44.5242  133.0718 S   0  0  0  0  0  0  0  0  0  0  0  0
   12.7886   45.7839  133.6879 O   0  0  0  0  0  0  0  0  0  0  0  0
   13.2050   43.6989  132.4087 O   0  0  0  0  0  0  0  0  0  0  0  0
   11.3117   43.6373  134.3474 C   0  0  0  0  0  0  0  0  0  0  0  0
   10.6911   42.3773  133.8551 C   0  0  0  0  0  0  0  0  0  0  0  0
    9.3411   42.7684  133.2325 C   0  0  0  0  0  0  0  0  0  0  0  0
    8.2289   42.1341  134.0196 C   0  0  0  0  0  0  0  0  0  0  0  0
    6.0807   41.0391  134.2198 C   0  0  0  0  0  0  0  0  0  0  0  0
    7.0892   41.6047  133.2276 C   0  0  0  0  0  0  0  0  0  0  0  0
    7.7872   46.1116  129.2531 C   0  0  0  0  0  0  0  0  0  0  0  0
    7.8029   45.6276  128.1581 O   0  0  0  0  0  0  0  0  0  0  0  0
    6.7422   46.9933  129.7675 C   0  0  0  0  0  0  0  0  0  0  0  0
    7.1425   48.1423  130.6060 C   0  0  0  0  0  0  0  0  0  0  0  0
    8.1915   48.9821  130.2583 N   0  0  0  0  0  0  0  0  0  0  0  0
    8.7729   50.1150  130.7981 C   0  0  0  0  0  0  0  0  0  0  0  0
    7.7945   50.2586  129.6306 C   0  0  0  0  0  0  0  0  0  0  0  0
    6.4479   50.8081  129.9888 C   0  0  0  0  0  0  0  0  0  0  0  0
 16 17  1  0  0  0
 17 15  1  0  0  0
 15 14  1  0  0  0
 14 13  1  0  0  0
 13 12  1  0  0  0
 12  9  1  0  0  0
  9 10  2  0  0  0
  9 11  2  0  0  0
  9  1  1  0  0  0
  1  2  2  0  0  0
  2  3  1  0  0  0
  3  4  2  0  0  0
  4 18  1  0  0  0
 18 19  2  0  0  0
 18 20  1  0  0  0
 20 21  1  0  0  0
 21 22  1  0  0  0
 22 23  1  0  0  0
 23 24  1  0  0  0
 24 25  1  0  0  0
  4  5  1  0  0  0
  5  6  1  0  0  0
  5  7  2  0  0  0
  7  8  1  0  0  0
  7  1  1  0  0  0
 24 22  1  0  0  0
M  END
> <minimizedAffinity>
1.14976

> <CNNscore>
0.4090600312

> <CNNaffinity>
7.5817766190

> <CNN_VS>
3.1014018059

> <CNNaffinity_variance>
0.7566334605

$$$$
[H]c1c([H])c(S(=O)(=O)C([H])([H])C([H])([H])C([H])([H])C([H])([H])C([H])([H])C([H])([H])[H])c(Cl)c(Cl)c1C(=O)C([H])([H])C([H])([H])N1C([H])([H])C1([H])C([H])([H])[H]


 25 26  0  0  0  0  0  0  0  0999 V2000
    9.7751   43.9691  131.9466 C   0  0  0  0  0  0  0  0  0  0  0  0
    8.4466   44.3299  132.0935 C   0  0  0  0  0  0  0  0  0  0  0  0
    7.8360   45.1574  131.1897 C   0  0  0  0  0  0  0  0  0  0  0  0
    8.5010   45.6580  130.1095 C   0  0  0  0  0  0  0  0  0  0  0  0
    9.8477   45.3091  129.9418 C   0  0  0  0  0  0  0  0  0  0  0  0
   10.7165   45.9575  128.5512 Cl  0  0  0  0  0  0  0  0  0  0  0  0
   10.4498   44.4794  130.8601 C   0  0  0  0  0  0  0  0  0  0  0  0
   12.1321   44.0567  130.6556 Cl  0  0  0  0  0  0  0  0  0  0  0  0
   10.5047   42.8432  133.0695 S   0  0  0  0  0  0  0  0  0  0  0  0
   11.3640   41.8978  132.2278 O   0  0  0  0  0  0  0  0  0  0  0  0
    9.4939   42.0992  133.8461 O   0  0  0  0  0  0  0  0  0  0  0  0
   11.5801   43.8103  134.1039 C   0  0  0  0  0  0  0  0  0  0  0  0
   11.3983   45.2753  133.9154 C   0  0  0  0  0  0  0  0  0  0  0  0
   10.1741   45.6760  134.7543 C   0  0  0  0  0  0  0  0  0  0  0  0
    9.6585   47.0047  134.2772 C   0  0  0  0  0  0  0  0  0  0  0  0
    9.9537   49.0202  132.9718 C   0  0  0  0  0  0  0  0  0  0  0  0
   10.2678   47.5305  133.0288 C   0  0  0  0  0  0  0  0  0  0  0  0
    7.8263   46.4492  129.0454 C   0  0  0  0  0  0  0  0  0  0  0  0
    8.3346   46.5699  127.9681 O   0  0  0  0  0  0  0  0  0  0  0  0
    6.5491   47.0364  129.4428 C   0  0  0  0  0  0  0  0  0  0  0  0
    6.2824   48.4452  129.0860 C   0  0  0  0  0  0  0  0  0  0  0  0
    7.2958   49.3889  128.9901 N   0  0  0  0  0  0  0  0  0  0  0  0
    8.2337   49.9252  129.8536 C   0  0  0  0  0  0  0  0  0  0  0  0
    6.9676   50.7224  129.5334 C   0  0  0  0  0  0  0  0  0  0  0  0
    5.9543   50.7825  130.6349 C   0  0  0  0  0  0  0  0  0  0  0  0
 16 17  1  0  0  0
 17 15  1  0  0  0
 15 14  1  0  0  0
 14 13  1  0  0  0
 13 12  1  0  0  0
 12  9  1  0  0  0
  9 10  2  0  0  0
  9 11  2  0  0  0
  9  1  1  0  0  0
  1  2  2  0  0  0
  2  3  1  0  0  0
  3  4  2  0  0  0
  4 18  1  0  0  0
 18 19  2  0  0  0
 18 20  1  0  0  0
 20 21  1  0  0  0
 21 22  1  0  0  0
 22 23  1  0  0  0
 23 24  1  0  0  0
 24 25  1  0  0  0
  4  5  1  0  0  0
  5  6  1  0  0  0
  5  7  2  0  0  0
  7  8  1  0  0  0
  7  1  1  0  0  0
 24 22  1  0  0  0
M  END
> <minimizedAffinity>
-5.04041

> <CNNscore>
0.3994130194

> <CNNaffinity>
7.6601042747

> <CNN_VS>
3.0595452785

> <CNNaffinity_variance>
0.3971506953

$$$$
[H]c1c([H])c(S(=O)(=O)C([H])([H])C([H])([H])C([H])([H])C([H])([H])C([H])([H])C([H])([H])[H])c(Cl)c(Cl)c1C(=O)C([H])([H])C([H])([H])N1C([H])([H])C1([H])C([H])([H])[H]


 25 26  0  0  0  0  0  0  0  0999 V2000
   11.1074   44.4627  132.6605 C   0  0  0  0  0  0  0  0  0  0  0  0
   11.9876   45.0997  131.8027 C   0  0  0  0  0  0  0  0  0  0  0  0
   11.7955   45.0738  130.4473 C   0  0  0  0  0  0  0  0  0  0  0  0
   10.7351   44.4276  129.8837 C   0  0  0  0  0  0  0  0  0  0  0  0
    9.8324   43.7729  130.7320 C   0  0  0  0  0  0  0  0  0  0  0  0
    8.4622   42.9296  130.0107 Cl  0  0  0  0  0  0  0  0  0  0  0  0
   10.0399   43.8040  132.0923 C   0  0  0  0  0  0  0  0  0  0  0  0
    8.9203   42.9759  133.1466 Cl  0  0  0  0  0  0  0  0  0  0  0  0
   11.3311   44.5843  134.3914 S   0  0  0  0  0  0  0  0  0  0  0  0
   12.5818   45.4403  134.6008 O   0  0  0  0  0  0  0  0  0  0  0  0
   11.4760   43.2604  135.0274 O   0  0  0  0  0  0  0  0  0  0  0  0
    9.9250   45.4831  135.0052 C   0  0  0  0  0  0  0  0  0  0  0  0
    9.9717   46.9310  134.6644 C   0  0  0  0  0  0  0  0  0  0  0  0
    8.9015   47.1615  133.5852 C   0  0  0  0  0  0  0  0  0  0  0  0
    9.5318   47.8288  132.3952 C   0  0  0  0  0  0  0  0  0  0  0  0
    9.3626   50.0342  131.4147 C   0  0  0  0  0  0  0  0  0  0  0  0
    9.9409   49.2445  132.5822 C   0  0  0  0  0  0  0  0  0  0  0  0
   10.4324   44.4962  128.4286 C   0  0  0  0  0  0  0  0  0  0  0  0
   10.6167   43.5433  127.7276 O   0  0  0  0  0  0  0  0  0  0  0  0
    9.9213   45.7874  127.9748 C   0  0  0  0  0  0  0  0  0  0  0  0
    9.2902   46.6813  128.9677 C   0  0  0  0  0  0  0  0  0  0  0  0
    8.1484   47.4166  128.6811 N   0  0  0  0  0  0  0  0  0  0  0  0
    7.3805   48.3529  129.3493 C   0  0  0  0  0  0  0  0  0  0  0  0
    6.9010   46.9016  129.2810 C   0  0  0  0  0  0  0  0  0  0  0  0
    7.0239   46.1269  130.5571 C   0  0  0  0  0  0  0  0  0  0  0  0
 16 17  1  0  0  0
 17 15  1  0  0  0
 15 14  1  0  0  0
 14 13  1  0  0  0
 13 12  1  0  0  0
 12  9  1  0  0  0
  9 10  2  0  0  0
  9 11  2  0  0  0
  9  1  1  0  0  0
  1  2  2  0  0  0
  2  3  1  0  0  0
  3  4  2  0  0  0
  4 18  1  0  0  0
 18 19  2  0  0  0
 18 20  1  0  0  0
 20 21  1  0  0  0
 21 22  1  0  0  0
 22 23  1  0  0  0
 23 24  1  0  0  0
 24 25  1  0  0  0
  4  5  1  0  0  0
  5  6  1  0  0  0
  5  7  2  0  0  0
  7  8  1  0  0  0
  7  1  1  0  0  0
 24 22  1  0  0  0
M  END
> <minimizedAffinity>
-5.78446

> <CNNscore>
0.3948940039

> <CNNaffinity>
7.5005226135

> <CNN_VS>
2.9619114399

> <CNNaffinity_variance>
0.6246647239

$$$$
[H]c1c([H])c(S(=O)(=O)C([H])([H])C([H])([H])C([H])([H])C([H])([H])C([H])([H])C([H])([H])[H])c(Cl)c(Cl)c1C(=O)C([H])([H])C([H])([H])N1C([H])([H])C1([H])C([H])([H])[H]


 25 26  0  0  0  0  0  0  0  0999 V2000
    9.6175   44.0467  131.3243 C   0  0  0  0  0  0  0  0  0  0  0  0
   10.7167   43.3642  131.8168 C   0  0  0  0  0  0  0  0  0  0  0  0
   11.9492   43.4986  131.2359 C   0  0  0  0  0  0  0  0  0  0  0  0
   12.1510   44.3070  130.1563 C   0  0  0  0  0  0  0  0  0  0  0  0
   11.0523   45.0054  129.6383 C   0  0  0  0  0  0  0  0  0  0  0  0
   11.3035   46.0475  128.2384 Cl  0  0  0  0  0  0  0  0  0  0  0  0
    9.8183   44.8580  130.2299 C   0  0  0  0  0  0  0  0  0  0  0  0
    8.4479   45.7196  129.5740 Cl  0  0  0  0  0  0  0  0  0  0  0  0
    8.0739   43.9215  132.1382 S   0  0  0  0  0  0  0  0  0  0  0  0
    7.5566   42.5094  131.8568 O   0  0  0  0  0  0  0  0  0  0  0  0
    7.1166   44.9445  131.6745 O   0  0  0  0  0  0  0  0  0  0  0  0
    8.4241   44.0564  133.8763 C   0  0  0  0  0  0  0  0  0  0  0  0
    8.6995   45.4553  134.3028 C   0  0  0  0  0  0  0  0  0  0  0  0
    7.4126   45.9723  134.9658 C   0  0  0  0  0  0  0  0  0  0  0  0
    6.3105   44.9717  134.7581 C   0  0  0  0  0  0  0  0  0  0  0  0
    3.9970   45.0468  135.4622 C   0  0  0  0  0  0  0  0  0  0  0  0
    5.4163   44.7359  135.9205 C   0  0  0  0  0  0  0  0  0  0  0  0
   13.5015   44.5716  129.5909 C   0  0  0  0  0  0  0  0  0  0  0  0
   14.4412   44.7239  130.3170 O   0  0  0  0  0  0  0  0  0  0  0  0
   13.5484   44.6296  128.1319 C   0  0  0  0  0  0  0  0  0  0  0  0
   13.7445   43.3701  127.3847 C   0  0  0  0  0  0  0  0  0  0  0  0
   14.9623   42.7043  127.3635 N   0  0  0  0  0  0  0  0  0  0  0  0
   15.7989   42.1410  128.3099 C   0  0  0  0  0  0  0  0  0  0  0  0
   16.1331   43.5214  127.7410 C   0  0  0  0  0  0  0  0  0  0  0  0
   15.8946   44.6711  128.6711 C   0  0  0  0  0  0  0  0  0  0  0  0
 16 17  1  0  0  0
 17 15  1  0  0  0
 15 14  1  0  0  0
 14 13  1  0  0  0
 13 12  1  0  0  0
 12  9  1  0  0  0
  9 10  2  0  0  0
  9 11  2  0  0  0
  9  1  1  0  0  0
  1  2  2  0  0  0
  2  3  1  0  0  0
  3  4  2  0  0  0
  4 18  1  0  0  0
 18 19  2  0  0  0
 18 20  1  0  0  0
 20 21  1  0  0  0
 21 22  1  0  0  0
 22 23  1  0  0  0
 23 24  1  0  0  0
 24 25  1  0  0  0
  4  5  1  0  0  0
  5  6  1  0  0  0
  5  7  2  0  0  0
  7  8  1  0  0  0
  7  1  1  0  0  0
 24 22  1  0  0  0
M  END
> <minimizedAffinity>
25.51861

> <CNNscore>
0.3633005321

> <CNNaffinity>
6.7019653320

> <CNN_VS>
2.4348275661

> <CNNaffinity_variance>
0.8949480057

$$$$
[H]c1c([H])c(S(=O)(=O)C([H])([H])C([H])([H])C([H])([H])C([H])([H])C([H])([H])C([H])([H])[H])c(Cl)c(Cl)c1C(=O)C([H])([H])C([H])([H])N1C([H])([H])C1([H])C([H])([H])[H]


 25 26  0  0  0  0  0  0  0  0999 V2000
    8.9341   44.9954  131.4623 C   0  0  0  0  0  0  0  0  0  0  0  0
    8.9339   45.5152  130.1793 C   0  0  0  0  0  0  0  0  0  0  0  0
    9.0268   46.8642  129.9644 C   0  0  0  0  0  0  0  0  0  0  0  0
    9.1266   47.7513  130.9953 C   0  0  0  0  0  0  0  0  0  0  0  0
    9.1256   47.2485  132.3031 C   0  0  0  0  0  0  0  0  0  0  0  0
    9.2478   48.3895  133.6418 Cl  0  0  0  0  0  0  0  0  0  0  0  0
    9.0279   45.8905  132.5045 C   0  0  0  0  0  0  0  0  0  0  0  0
    9.0138   45.2675  134.1362 Cl  0  0  0  0  0  0  0  0  0  0  0  0
    8.8998   43.2629  131.7038 S   0  0  0  0  0  0  0  0  0  0  0  0
    8.1706   42.6778  130.4926 O   0  0  0  0  0  0  0  0  0  0  0  0
    8.2280   42.8907  132.9641 O   0  0  0  0  0  0  0  0  0  0  0  0
   10.5946   42.7274  131.6529 C   0  0  0  0  0  0  0  0  0  0  0  0
   11.4803   43.5297  132.5398 C   0  0  0  0  0  0  0  0  0  0  0  0
   12.4061   44.3392  131.6174 C   0  0  0  0  0  0  0  0  0  0  0  0
   12.2453   43.8554  130.2036 C   0  0  0  0  0  0  0  0  0  0  0  0
   11.1470   44.3988  128.1174 C   0  0  0  0  0  0  0  0  0  0  0  0
   12.1308   44.9090  129.1629 C   0  0  0  0  0  0  0  0  0  0  0  0
    9.3611   49.2054  130.7852 C   0  0  0  0  0  0  0  0  0  0  0  0
   10.4770   49.6357  130.7299 O   0  0  0  0  0  0  0  0  0  0  0  0
    8.1447   50.0061  130.6687 C   0  0  0  0  0  0  0  0  0  0  0  0
    7.4447   50.0350  129.3678 C   0  0  0  0  0  0  0  0  0  0  0  0
    6.0720   50.2157  129.2701 N   0  0  0  0  0  0  0  0  0  0  0  0
    4.9714   49.8709  130.0335 C   0  0  0  0  0  0  0  0  0  0  0  0
    5.3145   49.0401  128.7954 C   0  0  0  0  0  0  0  0  0  0  0  0
    5.9006   47.6900  129.0737 C   0  0  0  0  0  0  0  0  0  0  0  0
 16 17  1  0  0  0
 17 15  1  0  0  0
 15 14  1  0  0  0
 14 13  1  0  0  0
 13 12  1  0  0  0
 12  9  1  0  0  0
  9 10  2  0  0  0
  9 11  2  0  0  0
  9  1  1  0  0  0
  1  2  2  0  0  0
  2  3  1  0  0  0
  3  4  2  0  0  0
  4 18  1  0  0  0
 18 19  2  0  0  0
 18 20  1  0  0  0
 20 21  1  0  0  0
 21 22  1  0  0  0
 22 23  1  0  0  0
 23 24  1  0  0  0
 24 25  1  0  0  0
  4  5  1  0  0  0
  5  6  1  0  0  0
  5  7  2  0  0  0
  7  8  1  0  0  0
  7  1  1  0  0  0
 24 22  1  0  0  0
M  END
> <minimizedAffinity>
-6.19419

> <CNNscore>
0.3266543150

> <CNNaffinity>
7.5118026733

> <CNN_VS>
2.4537627697

> <CNNaffinity_variance>
0.5028266311

$$$$
[H]c1c([H])c(S(=O)(=O)C([H])([H])C([H])([H])C([H])([H])C([H])([H])C([H])([H])C([H])([H])[H])c(Cl)c(Cl)c1C(=O)C([H])([H])C([H])([H])N1C([H])([H])C1([H])C([H])([H])[H]


 25 26  0  0  0  0  0  0  0  0999 V2000
    9.3071   44.7758  130.3842 C   0  0  0  0  0  0  0  0  0  0  0  0
    9.6941   45.7334  129.4624 C   0  0  0  0  0  0  0  0  0  0  0  0
    9.7514   47.0583  129.8029 C   0  0  0  0  0  0  0  0  0  0  0  0
    9.4360   47.4928  131.0565 C   0  0  0  0  0  0  0  0  0  0  0  0
    9.0383   46.5419  132.0057 C   0  0  0  0  0  0  0  0  0  0  0  0
    8.6225   47.0963  133.6270 Cl  0  0  0  0  0  0  0  0  0  0  0  0
    8.9817   45.2139  131.6485 C   0  0  0  0  0  0  0  0  0  0  0  0
    8.4732   44.0323  132.8300 Cl  0  0  0  0  0  0  0  0  0  0  0  0
    9.3250   43.0822  129.9455 S   0  0  0  0  0  0  0  0  0  0  0  0
    9.6328   43.0328  128.4476 O   0  0  0  0  0  0  0  0  0  0  0  0
    8.0442   42.4156  130.2510 O   0  0  0  0  0  0  0  0  0  0  0  0
   10.6926   42.3626  130.8250 C   0  0  0  0  0  0  0  0  0  0  0  0
   11.9026   43.2291  130.8193 C   0  0  0  0  0  0  0  0  0  0  0  0
   12.2735   43.4727  132.2912 C   0  0  0  0  0  0  0  0  0  0  0  0
   12.4486   44.9475  132.5216 C   0  0  0  0  0  0  0  0  0  0  0  0
   11.4197   44.2756  134.6057 C   0  0  0  0  0  0  0  0  0  0  0  0
   12.0089   45.4573  133.8457 C   0  0  0  0  0  0  0  0  0  0  0  0
    9.6168   48.9053  131.4873 C   0  0  0  0  0  0  0  0  0  0  0  0
   10.4313   49.1836  132.3196 O   0  0  0  0  0  0  0  0  0  0  0  0
    8.7326   49.8605  130.8240 C   0  0  0  0  0  0  0  0  0  0  0  0
    7.2963   49.5308  130.7166 C   0  0  0  0  0  0  0  0  0  0  0  0
    6.6190   49.5597  129.5054 N   0  0  0  0  0  0  0  0  0  0  0  0
    5.3154   49.3469  129.0951 C   0  0  0  0  0  0  0  0  0  0  0  0
    6.3524   48.2386  128.9016 C   0  0  0  0  0  0  0  0  0  0  0  0
    6.2240   47.0731  129.8337 C   0  0  0  0  0  0  0  0  0  0  0  0
 16 17  1  0  0  0
 17 15  1  0  0  0
 15 14  1  0  0  0
 14 13  1  0  0  0
 13 12  1  0  0  0
 12  9  1  0  0  0
  9 10  2  0  0  0
  9 11  2  0  0  0
  9  1  1  0  0  0
  1  2  2  0  0  0
  2  3  1  0  0  0
  3  4  2  0  0  0
  4 18  1  0  0  0
 18 19  2  0  0  0
 18 20  1  0  0  0
 20 21  1  0  0  0
 21 22  1  0  0  0
 22 23  1  0  0  0
 23 24  1  0  0  0
 24 25  1  0  0  0
  4  5  1  0  0  0
  5  6  1  0  0  0
  5  7  2  0  0  0
  7  8  1  0  0  0
  7  1  1  0  0  0
 24 22  1  0  0  0
M  END
> <minimizedAffinity>
-6.55558

> <CNNscore>
0.2924055457

> <CNNaffinity>
7.4726057053

> <CNN_VS>
2.1850314140

> <CNNaffinity_variance>
0.5202323198

$$$$
[H]c1c([H])c(S(=O)(=O)C([H])([H])C([H])([H])C([H])([H])C([H])([H])C([H])([H])C([H])([H])[H])c(Cl)c(Cl)c1C(=O)C([H])([H])C([H])([H])N1C([H])([H])C1([H])C([H])([H])[H]


 25 26  0  0  0  0  0  0  0  0999 V2000
   10.8712   45.8248  132.7577 C   0  0  0  0  0  0  0  0  0  0  0  0
   11.5371   46.7349  131.9548 C   0  0  0  0  0  0  0  0  0  0  0  0
   11.1064   48.0303  131.8492 C   0  0  0  0  0  0  0  0  0  0  0  0
   10.0126   48.4818  132.5270 C   0  0  0  0  0  0  0  0  0  0  0  0
    9.3205   47.5776  133.3435 C   0  0  0  0  0  0  0  0  0  0  0  0
    7.9013   48.1520  134.2181 Cl  0  0  0  0  0  0  0  0  0  0  0  0
    9.7624   46.2776  133.4374 C   0  0  0  0  0  0  0  0  0  0  0  0
    8.8901   45.1493  134.4457 Cl  0  0  0  0  0  0  0  0  0  0  0  0
   11.4935   44.1998  132.9395 S   0  0  0  0  0  0  0  0  0  0  0  0
   10.7655   43.5962  134.1422 O   0  0  0  0  0  0  0  0  0  0  0  0
   12.9562   44.1836  133.1359 O   0  0  0  0  0  0  0  0  0  0  0  0
   10.9940   43.3176  131.4787 C   0  0  0  0  0  0  0  0  0  0  0  0
   10.0064   44.0708  130.6589 C   0  0  0  0  0  0  0  0  0  0  0  0
    9.7899   43.2541  129.3746 C   0  0  0  0  0  0  0  0  0  0  0  0
   10.2284   41.8357  129.6082 C   0  0  0  0  0  0  0  0  0  0  0  0
   10.0938   40.8697  127.3941 C   0  0  0  0  0  0  0  0  0  0  0  0
    9.5304   40.7972  128.8078 C   0  0  0  0  0  0  0  0  0  0  0  0
    9.6039   49.9124  132.5325 C   0  0  0  0  0  0  0  0  0  0  0  0
   10.0846   50.6750  133.3204 O   0  0  0  0  0  0  0  0  0  0  0  0
    8.6001   50.2611  131.5300 C   0  0  0  0  0  0  0  0  0  0  0  0
    8.7770   49.7549  130.1532 C   0  0  0  0  0  0  0  0  0  0  0  0
    7.7019   49.3858  129.3566 N   0  0  0  0  0  0  0  0  0  0  0  0
    6.5143   48.7040  129.5508 C   0  0  0  0  0  0  0  0  0  0  0  0
    7.7005   47.9767  128.9145 C   0  0  0  0  0  0  0  0  0  0  0  0
    8.3885   46.9814  129.7976 C   0  0  0  0  0  0  0  0  0  0  0  0
 16 17  1  0  0  0
 17 15  1  0  0  0
 15 14  1  0  0  0
 14 13  1  0  0  0
 13 12  1  0  0  0
 12  9  1  0  0  0
  9 10  2  0  0  0
  9 11  2  0  0  0
  9  1  1  0  0  0
  1  2  2  0  0  0
  2  3  1  0  0  0
  3  4  2  0  0  0
  4 18  1  0  0  0
 18 19  2  0  0  0
 18 20  1  0  0  0
 20 21  1  0  0  0
 21 22  1  0  0  0
 22 23  1  0  0  0
 23 24  1  0  0  0
 24 25  1  0  0  0
  4  5  1  0  0  0
  5  6  1  0  0  0
  5  7  2  0  0  0
  7  8  1  0  0  0
  7  1  1  0  0  0
 24 22  1  0  0  0
M  END
> <minimizedAffinity>
3.97007

> <CNNscore>
0.2446839064

> <CNNaffinity>
7.3066835403

> <CNN_VS>
1.7878278494

> <CNNaffinity_variance>
0.1495770216

$$$$
[H]OC([H])([H])C([H])([H])N1C([H])([H])C([H])([H])N(c2c(Cl)c([H])c3nc(SC(C([H])([H])[H])(C([H])([H])[H])C([H])([H])[H])n([H])c3c2[H])[C@]([H])(C([H])([H])[H])C1([H])[H]


 27 29  0  0  0  0  0  0  0  0999 V2000
    9.2164   47.5148  131.3227 C   0  0  0  0  0  0  0  0  0  0  0  0
   10.0657   46.8346  130.4328 C   0  0  0  0  0  0  0  0  0  0  0  0
   11.0219   45.9461  130.8617 C   0  0  0  0  0  0  0  0  0  0  0  0
   11.9178   45.2065  130.1827 N   0  0  0  0  0  0  0  0  0  0  0  0
   12.6071   44.5129  131.1059 C   0  0  0  0  0  0  0  0  0  0  0  0
   12.1523   44.8124  132.3333 N   0  0  0  0  0  0  0  0  0  0  0  0
   11.1588   45.7058  132.2352 C   0  0  0  0  0  0  0  0  0  0  0  0
   10.3334   46.3650  133.1219 C   0  0  0  0  0  0  0  0  0  0  0  0
    9.3701   47.2625  132.6704 C   0  0  0  0  0  0  0  0  0  0  0  0
    8.3914   48.0647  133.8846 Cl  0  0  0  0  0  0  0  0  0  0  0  0
   12.0216   45.2036  129.1427 H   0  0  0  0  0  0  0  0  0  0  0  0
    6.6048   46.7772  129.8199 C   0  0  0  0  0  0  0  0  0  0  0  0
    6.9111   48.0937  130.3898 C   0  0  0  0  0  0  0  0  0  0  0  0
    6.5793   49.1001  129.2802 C   0  0  0  0  0  0  0  0  0  0  0  0
    6.2433   50.3468  129.9004 N   0  0  0  0  0  0  0  0  0  0  0  0
    7.2144   50.6269  130.8900 C   0  0  0  0  0  0  0  0  0  0  0  0
    8.5087   49.7959  130.6862 C   0  0  0  0  0  0  0  0  0  0  0  0
    8.2432   48.3793  130.8083 N   0  0  0  0  0  0  0  0  0  0  0  0
    6.0456   51.3193  128.8780 C   0  0  0  0  0  0  0  0  0  0  0  0
    7.1296   52.3253  128.7016 C   0  0  0  0  0  0  0  0  0  0  0  0
    6.7832   53.1340  127.6007 O   0  0  0  0  0  0  0  0  0  0  0  0
    5.8557   52.9900  127.3110 H   0  0  0  0  0  0  0  0  0  0  0  0
   13.9225   43.3744  130.7169 S   0  0  0  0  0  0  0  0  0  0  0  0
   14.6193   43.8849  129.1120 C   0  0  0  0  0  0  0  0  0  0  0  0
   13.4639   44.1614  128.1838 C   0  0  0  0  0  0  0  0  0  0  0  0
   15.3686   45.1894  129.3018 C   0  0  0  0  0  0  0  0  0  0  0  0
   15.5171   42.7852  128.6331 C   0  0  0  0  0  0  0  0  0  0  0  0
 12 13  1  0  0  0
 13 14  1  0  0  0
 14 15  1  0  0  0
 15 19  1  0  0  0
 19 20  1  0  0  0
 20 21  1  0  0  0
 15 16  1  0  0  0
 16 17  1  0  0  0
 17 18  1  0  0  0
 18  1  1  0  0  0
  1  2  2  0  0  0
  2  3  1  0  0  0
  3  4  1  0  0  0
  4  5  1  0  0  0
  5 23  1  0  0  0
 23 24  1  0  0  0
 24 25  1  0  0  0
 24 26  1  0  0  0
 24 27  1  0  0  0
  5  6  2  0  0  0
  6  7  1  0  0  0
  7  8  1  0  0  0
  8  9  2  0  0  0
  9 10  1  0  0  0
 18 13  1  0  0  0
  9  1  1  0  0  0
  7  3  2  0  0  0
 21 22  1  0  0  0
  4 11  1  0  0  0
M  END
> <minimizedAffinity>
8.49558

> <CNNscore>
0.4156728983

> <CNNaffinity>
7.1801404953

> <CNN_VS>
2.9845898151

> <CNNaffinity_variance>
0.9728550911

$$$$
[H]OC([H])([H])C([H])([H])N1C([H])([H])C([H])([H])N(c2c(Cl)c([H])c3nc(SC(C([H])([H])[H])(C([H])([H])[H])C([H])([H])[H])n([H])c3c2[H])[C@]([H])(C([H])([H])[H])C1([H])[H]


 27 29  0  0  0  0  0  0  0  0999 V2000
    9.4478   48.1509  131.3430 C   0  0  0  0  0  0  0  0  0  0  0  0
    9.5349   46.8190  130.9022 C   0  0  0  0  0  0  0  0  0  0  0  0
   10.4309   45.9243  131.4357 C   0  0  0  0  0  0  0  0  0  0  0  0
   10.6678   44.6291  131.1575 N   0  0  0  0  0  0  0  0  0  0  0  0
   11.6559   44.2434  131.9842 C   0  0  0  0  0  0  0  0  0  0  0  0
   12.0276   45.2738  132.7607 N   0  0  0  0  0  0  0  0  0  0  0  0
   11.2906   46.3504  132.4565 C   0  0  0  0  0  0  0  0  0  0  0  0
   11.2180   47.6541  132.9006 C   0  0  0  0  0  0  0  0  0  0  0  0
   10.3048   48.5478  132.3488 C   0  0  0  0  0  0  0  0  0  0  0  0
   10.3142   50.1880  132.9696 Cl  0  0  0  0  0  0  0  0  0  0  0  0
   10.1593   44.0729  130.4332 H   0  0  0  0  0  0  0  0  0  0  0  0
    7.5540   50.1387  132.7870 C   0  0  0  0  0  0  0  0  0  0  0  0
    7.8194   50.1177  131.3445 C   0  0  0  0  0  0  0  0  0  0  0  0
    6.4383   50.1862  130.6797 C   0  0  0  0  0  0  0  0  0  0  0  0
    6.5984   50.7864  129.3889 N   0  0  0  0  0  0  0  0  0  0  0  0
    7.7008   50.1744  128.7479 C   0  0  0  0  0  0  0  0  0  0  0  0
    8.0723   48.8164  129.4001 C   0  0  0  0  0  0  0  0  0  0  0  0
    8.4861   48.9943  130.7747 N   0  0  0  0  0  0  0  0  0  0  0  0
    5.3426   50.7502  128.7168 C   0  0  0  0  0  0  0  0  0  0  0  0
    4.4192   49.6449  129.0964 C   0  0  0  0  0  0  0  0  0  0  0  0
    5.0171   48.4346  128.6923 O   0  0  0  0  0  0  0  0  0  0  0  0
    5.9551   48.5539  128.4263 H   0  0  0  0  0  0  0  0  0  0  0  0
   12.3424   42.5985  132.0136 S   0  0  0  0  0  0  0  0  0  0  0  0
   10.9447   41.4305  131.9496 C   0  0  0  0  0  0  0  0  0  0  0  0
   10.2871   41.5843  130.6017 C   0  0  0  0  0  0  0  0  0  0  0  0
   11.4897   40.0177  132.0279 C   0  0  0  0  0  0  0  0  0  0  0  0
   10.0329   41.7458  133.0959 C   0  0  0  0  0  0  0  0  0  0  0  0
 12 13  1  0  0  0
 13 14  1  0  0  0
 14 15  1  0  0  0
 15 19  1  0  0  0
 19 20  1  0  0  0
 20 21  1  0  0  0
 15 16  1  0  0  0
 16 17  1  0  0  0
 17 18  1  0  0  0
 18  1  1  0  0  0
  1  2  2  0  0  0
  2  3  1  0  0  0
  3  4  1  0  0  0
  4  5  1  0  0  0
  5 23  1  0  0  0
 23 24  1  0  0  0
 24 25  1  0  0  0
 24 26  1  0  0  0
 24 27  1  0  0  0
  5  6  2  0  0  0
  6  7  1  0  0  0
  7  8  1  0  0  0
  8  9  2  0  0  0
  9 10  1  0  0  0
 18 13  1  0  0  0
  9  1  1  0  0  0
  7  3  2  0  0  0
 21 22  1  0  0  0
  4 11  1  0  0  0
M  END
> <minimizedAffinity>
9.93920

> <CNNscore>
0.3889825940

> <CNNaffinity>
7.2018599510

> <CNN_VS>
2.8013982773

> <CNNaffinity_variance>
1.6536979675

$$$$
[H]OC([H])([H])C([H])([H])N1C([H])([H])C([H])([H])N(c2c(Cl)c([H])c3nc(SC(C([H])([H])[H])(C([H])([H])[H])C([H])([H])[H])n([H])c3c2[H])[C@]([H])(C([H])([H])[H])C1([H])[H]


 27 29  0  0  0  0  0  0  0  0999 V2000
    9.1440   46.7571  130.1576 C   0  0  0  0  0  0  0  0  0  0  0  0
    9.0817   46.3870  131.5122 C   0  0  0  0  0  0  0  0  0  0  0  0
    9.6554   45.2322  131.9869 C   0  0  0  0  0  0  0  0  0  0  0  0
    9.7064   44.7078  133.2251 N   0  0  0  0  0  0  0  0  0  0  0  0
   10.3965   43.5586  133.1167 C   0  0  0  0  0  0  0  0  0  0  0  0
   10.7679   43.3696  131.8402 N   0  0  0  0  0  0  0  0  0  0  0  0
   10.3282   44.3901  131.0919 C   0  0  0  0  0  0  0  0  0  0  0  0
   10.3985   44.7386  129.7593 C   0  0  0  0  0  0  0  0  0  0  0  0
    9.8112   45.9120  129.2950 C   0  0  0  0  0  0  0  0  0  0  0  0
    9.9384   46.2461  127.5780 Cl  0  0  0  0  0  0  0  0  0  0  0  0
    9.2795   45.1429  134.0742 H   0  0  0  0  0  0  0  0  0  0  0  0
    9.9629   49.6356  130.9740 C   0  0  0  0  0  0  0  0  0  0  0  0
    9.0783   49.2917  129.8556 C   0  0  0  0  0  0  0  0  0  0  0  0
    7.8639   50.2179  130.0028 C   0  0  0  0  0  0  0  0  0  0  0  0
    7.2946   50.4103  128.7026 N   0  0  0  0  0  0  0  0  0  0  0  0
    7.1933   49.1488  128.0707 C   0  0  0  0  0  0  0  0  0  0  0  0
    7.2816   47.9803  129.0876 C   0  0  0  0  0  0  0  0  0  0  0  0
    8.5648   47.9661  129.7551 N   0  0  0  0  0  0  0  0  0  0  0  0
    6.1001   51.1743  128.8428 C   0  0  0  0  0  0  0  0  0  0  0  0
    5.1936   50.7882  129.9597 C   0  0  0  0  0  0  0  0  0  0  0  0
    4.3006   49.8167  129.4650 O   0  0  0  0  0  0  0  0  0  0  0  0
    4.5701   49.4789  128.5829 H   0  0  0  0  0  0  0  0  0  0  0  0
   10.7454   42.4751  134.4886 S   0  0  0  0  0  0  0  0  0  0  0  0
   11.5625   43.4780  135.7725 C   0  0  0  0  0  0  0  0  0  0  0  0
   12.8091   44.0669  135.1622 C   0  0  0  0  0  0  0  0  0  0  0  0
   10.6503   44.6323  136.1394 C   0  0  0  0  0  0  0  0  0  0  0  0
   11.8382   42.5849  136.9433 C   0  0  0  0  0  0  0  0  0  0  0  0
 12 13  1  0  0  0
 13 14  1  0  0  0
 14 15  1  0  0  0
 15 19  1  0  0  0
 19 20  1  0  0  0
 20 21  1  0  0  0
 15 16  1  0  0  0
 16 17  1  0  0  0
 17 18  1  0  0  0
 18  1  1  0  0  0
  1  2  2  0  0  0
  2  3  1  0  0  0
  3  4  1  0  0  0
  4  5  1  0  0  0
  5 23  1  0  0  0
 23 24  1  0  0  0
 24 25  1  0  0  0
 24 26  1  0  0  0
 24 27  1  0  0  0
  5  6  2  0  0  0
  6  7  1  0  0  0
  7  8  1  0  0  0
  8  9  2  0  0  0
  9 10  1  0  0  0
 18 13  1  0  0  0
  9  1  1  0  0  0
  7  3  2  0  0  0
 21 22  1  0  0  0
  4 11  1  0  0  0
M  END
> <minimizedAffinity>
6.63643

> <CNNscore>
0.3843408227

> <CNNaffinity>
7.4476442337

> <CNN_VS>
2.8624336720

> <CNNaffinity_variance>
1.2467113733

$$$$
[H]OC([H])([H])C([H])([H])N1C([H])([H])C([H])([H])N(c2c(Cl)c([H])c3nc(SC(C([H])([H])[H])(C([H])([H])[H])C([H])([H])[H])n([H])c3c2[H])[C@]([H])(C([H])([H])[H])C1([H])[H]


 27 29  0  0  0  0  0  0  0  0999 V2000
   10.4493   46.0018  132.4439 C   0  0  0  0  0  0  0  0  0  0  0  0
    9.6571   46.6718  131.4954 C   0  0  0  0  0  0  0  0  0  0  0  0
    9.3926   48.0177  131.5762 C   0  0  0  0  0  0  0  0  0  0  0  0
    8.6708   48.8317  130.7843 N   0  0  0  0  0  0  0  0  0  0  0  0
    8.7495   50.0561  131.3350 C   0  0  0  0  0  0  0  0  0  0  0  0
    9.5031   50.0078  132.4454 N   0  0  0  0  0  0  0  0  0  0  0  0
    9.9302   48.7531  132.6405 C   0  0  0  0  0  0  0  0  0  0  0  0
   10.7097   48.1110  133.5798 C   0  0  0  0  0  0  0  0  0  0  0  0
   10.9673   46.7466  133.4834 C   0  0  0  0  0  0  0  0  0  0  0  0
   11.9493   46.0259  134.7452 Cl  0  0  0  0  0  0  0  0  0  0  0  0
    8.1655   48.5283  129.9210 H   0  0  0  0  0  0  0  0  0  0  0  0
   12.8522   44.6646  131.0085 C   0  0  0  0  0  0  0  0  0  0  0  0
   11.9116   43.9800  131.9019 C   0  0  0  0  0  0  0  0  0  0  0  0
   11.5009   42.7049  131.1540 C   0  0  0  0  0  0  0  0  0  0  0  0
   11.1298   41.7217  132.1273 N   0  0  0  0  0  0  0  0  0  0  0  0
   10.2760   42.3340  133.0744 C   0  0  0  0  0  0  0  0  0  0  0  0
    9.6695   43.6582  132.5398 C   0  0  0  0  0  0  0  0  0  0  0  0
   10.7026   44.6356  132.2758 N   0  0  0  0  0  0  0  0  0  0  0  0
   10.6374   40.5735  131.4423 C   0  0  0  0  0  0  0  0  0  0  0  0
   10.0665   40.8049  130.0862 C   0  0  0  0  0  0  0  0  0  0  0  0
    8.8869   41.5593  130.2454 O   0  0  0  0  0  0  0  0  0  0  0  0
    8.7935   41.9155  131.1560 H   0  0  0  0  0  0  0  0  0  0  0  0
    7.9565   51.5029  130.6600 S   0  0  0  0  0  0  0  0  0  0  0  0
    6.8482   50.9374  129.3283 C   0  0  0  0  0  0  0  0  0  0  0  0
    6.7856   52.0335  128.2949 C   0  0  0  0  0  0  0  0  0  0  0  0
    7.4691   49.7243  128.6633 C   0  0  0  0  0  0  0  0  0  0  0  0
    5.5186   50.6228  129.9430 C   0  0  0  0  0  0  0  0  0  0  0  0
 12 13  1  0  0  0
 13 14  1  0  0  0
 14 15  1  0  0  0
 15 19  1  0  0  0
 19 20  1  0  0  0
 20 21  1  0  0  0
 15 16  1  0  0  0
 16 17  1  0  0  0
 17 18  1  0  0  0
 18  1  1  0  0  0
  1  2  2  0  0  0
  2  3  1  0  0  0
  3  4  1  0  0  0
  4  5  1  0  0  0
  5 23  1  0  0  0
 23 24  1  0  0  0
 24 25  1  0  0  0
 24 26  1  0  0  0
 24 27  1  0  0  0
  5  6  2  0  0  0
  6  7  1  0  0  0
  7  8  1  0  0  0
  8  9  2  0  0  0
  9 10  1  0  0  0
 18 13  1  0  0  0
  9  1  1  0  0  0
  7  3  2  0  0  0
 21 22  1  0  0  0
  4 11  1  0  0  0
M  END
> <minimizedAffinity>
4.95819

> <CNNscore>
0.3797800541

> <CNNaffinity>
7.4126601219

> <CNN_VS>
2.8151805401

> <CNNaffinity_variance>
1.4873592854

$$$$
[H]OC([H])([H])C([H])([H])N1C([H])([H])C([H])([H])N(c2c(Cl)c([H])c3nc(SC(C([H])([H])[H])(C([H])([H])[H])C([H])([H])[H])n([H])c3c2[H])[C@]([H])(C([H])([H])[H])C1([H])[H]


 27 29  0  0  0  0  0  0  0  0999 V2000
    8.5778   47.8728  131.9067 C   0  0  0  0  0  0  0  0  0  0  0  0
    8.8770   46.6006  131.3891 C   0  0  0  0  0  0  0  0  0  0  0  0
    9.1419   45.5210  132.1967 C   0  0  0  0  0  0  0  0  0  0  0  0
    9.4446   44.2431  131.9031 N   0  0  0  0  0  0  0  0  0  0  0  0
    9.6044   43.6160  133.0819 C   0  0  0  0  0  0  0  0  0  0  0  0
    9.4062   44.4822  134.0886 N   0  0  0  0  0  0  0  0  0  0  0  0
    9.1136   45.6895  133.5872 C   0  0  0  0  0  0  0  0  0  0  0  0
    8.8217   46.9314  134.1115 C   0  0  0  0  0  0  0  0  0  0  0  0
    8.5563   48.0147  133.2789 C   0  0  0  0  0  0  0  0  0  0  0  0
    8.2220   49.5541  134.0498 Cl  0  0  0  0  0  0  0  0  0  0  0  0
    9.5282   43.8583  130.9349 H   0  0  0  0  0  0  0  0  0  0  0  0
    9.6566   50.7808  131.9541 C   0  0  0  0  0  0  0  0  0  0  0  0
    8.9687   50.1510  130.8219 C   0  0  0  0  0  0  0  0  0  0  0  0
    7.9086   51.1676  130.3785 C   0  0  0  0  0  0  0  0  0  0  0  0
    7.6452   50.9531  128.9869 N   0  0  0  0  0  0  0  0  0  0  0  0
    7.4761   49.5648  128.7755 C   0  0  0  0  0  0  0  0  0  0  0  0
    7.1780   48.8075  130.0965 C   0  0  0  0  0  0  0  0  0  0  0  0
    8.2852   48.9163  131.0209 N   0  0  0  0  0  0  0  0  0  0  0  0
    6.5805   51.8138  128.5923 C   0  0  0  0  0  0  0  0  0  0  0  0
    6.9503   53.2195  128.2676 C   0  0  0  0  0  0  0  0  0  0  0  0
    7.3016   53.2617  126.9035 O   0  0  0  0  0  0  0  0  0  0  0  0
    7.0616   52.4341  126.4321 H   0  0  0  0  0  0  0  0  0  0  0  0
   10.0179   41.8893  133.2416 S   0  0  0  0  0  0  0  0  0  0  0  0
   11.0223   41.4397  131.7887 C   0  0  0  0  0  0  0  0  0  0  0  0
   12.2545   42.3083  131.8034 C   0  0  0  0  0  0  0  0  0  0  0  0
   11.4807   40.0025  131.9423 C   0  0  0  0  0  0  0  0  0  0  0  0
   10.1735   41.6319  130.5692 C   0  0  0  0  0  0  0  0  0  0  0  0
 12 13  1  0  0  0
 13 14  1  0  0  0
 14 15  1  0  0  0
 15 19  1  0  0  0
 19 20  1  0  0  0
 20 21  1  0  0  0
 15 16  1  0  0  0
 16 17  1  0  0  0
 17 18  1  0  0  0
 18  1  1  0  0  0
  1  2  2  0  0  0
  2  3  1  0  0  0
  3  4  1  0  0  0
  4  5  1  0  0  0
  5 23  1  0  0  0
 23 24  1  0  0  0
 24 25  1  0  0  0
 24 26  1  0  0  0
 24 27  1  0  0  0
  5  6  2  0  0  0
  6  7  1  0  0  0
  7  8  1  0  0  0
  8  9  2  0  0  0
  9 10  1  0  0  0
 18 13  1  0  0  0
  9  1  1  0  0  0
  7  3  2  0  0  0
 21 22  1  0  0  0
  4 11  1  0  0  0
M  END
> <minimizedAffinity>
7.65700

> <CNNscore>
0.3640905917

> <CNNaffinity>
7.0726556778

> <CNN_VS>
2.5750873089

> <CNNaffinity_variance>
1.0876979828

$$$$
[H]OC([H])([H])C([H])([H])N1C([H])([H])C([H])([H])N(c2c(Cl)c([H])c3nc(SC(C([H])([H])[H])(C([H])([H])[H])C([H])([H])[H])n([H])c3c2[H])[C@]([H])(C([H])([H])[H])C1([H])[H]


 27 29  0  0  0  0  0  0  0  0999 V2000
    8.4657   47.4064  130.1572 C   0  0  0  0  0  0  0  0  0  0  0  0
    8.5278   46.9081  131.4702 C   0  0  0  0  0  0  0  0  0  0  0  0
    9.1959   45.7500  131.7870 C   0  0  0  0  0  0  0  0  0  0  0  0
    9.3698   45.1159  132.9611 N   0  0  0  0  0  0  0  0  0  0  0  0
   10.1085   44.0249  132.6915 C   0  0  0  0  0  0  0  0  0  0  0  0
   10.3893   43.9786  131.3792 N   0  0  0  0  0  0  0  0  0  0  0  0
    9.8404   45.0368  130.7679 C   0  0  0  0  0  0  0  0  0  0  0  0
    9.7892   45.5120  129.4742 C   0  0  0  0  0  0  0  0  0  0  0  0
    9.1074   46.6868  129.1703 C   0  0  0  0  0  0  0  0  0  0  0  0
    9.0837   47.1871  127.4896 Cl  0  0  0  0  0  0  0  0  0  0  0  0
    8.9878   45.4436  133.8772 H   0  0  0  0  0  0  0  0  0  0  0  0
    5.8465   47.8513  128.5559 C   0  0  0  0  0  0  0  0  0  0  0  0
    6.4625   48.8281  129.4603 C   0  0  0  0  0  0  0  0  0  0  0  0
    6.4817   50.1469  128.6764 C   0  0  0  0  0  0  0  0  0  0  0  0
    6.4587   51.2231  129.6214 N   0  0  0  0  0  0  0  0  0  0  0  0
    7.4085   50.9472  130.6325 C   0  0  0  0  0  0  0  0  0  0  0  0
    8.4399   49.8779  130.1852 C   0  0  0  0  0  0  0  0  0  0  0  0
    7.7948   48.6112  129.9176 N   0  0  0  0  0  0  0  0  0  0  0  0
    6.5924   52.4501  128.9095 C   0  0  0  0  0  0  0  0  0  0  0  0
    7.2600   52.3759  127.5802 C   0  0  0  0  0  0  0  0  0  0  0  0
    7.2572   53.6735  127.0307 O   0  0  0  0  0  0  0  0  0  0  0  0
    6.9954   54.3550  127.6879 H   0  0  0  0  0  0  0  0  0  0  0  0
   10.6184   42.8403  133.9222 S   0  0  0  0  0  0  0  0  0  0  0  0
   11.5666   43.7503  135.1850 C   0  0  0  0  0  0  0  0  0  0  0  0
   12.9510   43.9802  134.6338 C   0  0  0  0  0  0  0  0  0  0  0  0
   10.9277   45.1110  135.3838 C   0  0  0  0  0  0  0  0  0  0  0  0
   11.5546   42.9344  136.4415 C   0  0  0  0  0  0  0  0  0  0  0  0
 12 13  1  0  0  0
 13 14  1  0  0  0
 14 15  1  0  0  0
 15 19  1  0  0  0
 19 20  1  0  0  0
 20 21  1  0  0  0
 15 16  1  0  0  0
 16 17  1  0  0  0
 17 18  1  0  0  0
 18  1  1  0  0  0
  1  2  2  0  0  0
  2  3  1  0  0  0
  3  4  1  0  0  0
  4  5  1  0  0  0
  5 23  1  0  0  0
 23 24  1  0  0  0
 24 25  1  0  0  0
 24 26  1  0  0  0
 24 27  1  0  0  0
  5  6  2  0  0  0
  6  7  1  0  0  0
  7  8  1  0  0  0
  8  9  2  0  0  0
  9 10  1  0  0  0
 18 13  1  0  0  0
  9  1  1  0  0  0
  7  3  2  0  0  0
 21 22  1  0  0  0
  4 11  1  0  0  0
M  END
> <minimizedAffinity>
4.38984

> <CNNscore>
0.3556764722

> <CNNaffinity>
7.1787619591

> <CNN_VS>
2.5533168316

> <CNNaffinity_variance>
1.1217547655

$$$$
[H]OC([H])([H])C([H])([H])N1C([H])([H])C([H])([H])N(c2c(Cl)c([H])c3nc(SC(C([H])([H])[H])(C([H])([H])[H])C([H])([H])[H])n([H])c3c2[H])[C@]([H])(C([H])([H])[H])C1([H])[H]


 27 29  0  0  0  0  0  0  0  0999 V2000
    8.6214   47.9039  130.5379 C   0  0  0  0  0  0  0  0  0  0  0  0
    8.8606   49.2875  130.4712 C   0  0  0  0  0  0  0  0  0  0  0  0
    8.0147   50.1500  129.8167 C   0  0  0  0  0  0  0  0  0  0  0  0
    8.0646   51.4832  129.6410 N   0  0  0  0  0  0  0  0  0  0  0  0
    6.9760   51.8069  128.9208 C   0  0  0  0  0  0  0  0  0  0  0  0
    6.2626   50.7013  128.6527 N   0  0  0  0  0  0  0  0  0  0  0  0
    6.8707   49.6363  129.1920 C   0  0  0  0  0  0  0  0  0  0  0  0
    6.6213   48.2810  129.2480 C   0  0  0  0  0  0  0  0  0  0  0  0
    7.4891   47.4211  129.9148 C   0  0  0  0  0  0  0  0  0  0  0  0
    7.0903   45.7133  129.9029 Cl  0  0  0  0  0  0  0  0  0  0  0  0
    8.8199   52.1046  130.0098 H   0  0  0  0  0  0  0  0  0  0  0  0
   10.6270   45.8180  129.4202 C   0  0  0  0  0  0  0  0  0  0  0  0
   10.6386   46.3579  130.7840 C   0  0  0  0  0  0  0  0  0  0  0  0
   10.7703   45.1345  131.7005 C   0  0  0  0  0  0  0  0  0  0  0  0
   11.4015   45.5578  132.9147 N   0  0  0  0  0  0  0  0  0  0  0  0
   10.7731   46.7474  133.3510 C   0  0  0  0  0  0  0  0  0  0  0  0
    9.3858   46.9497  132.6861 C   0  0  0  0  0  0  0  0  0  0  0  0
    9.5111   47.0932  131.2523 N   0  0  0  0  0  0  0  0  0  0  0  0
   11.4248   44.4560  133.8178 C   0  0  0  0  0  0  0  0  0  0  0  0
   11.3459   43.0986  133.2096 C   0  0  0  0  0  0  0  0  0  0  0  0
   12.6529   42.7219  132.8414 O   0  0  0  0  0  0  0  0  0  0  0  0
   13.3326   43.3250  133.2142 H   0  0  0  0  0  0  0  0  0  0  0  0
    6.5753   53.4692  128.4170 S   0  0  0  0  0  0  0  0  0  0  0  0
    7.2524   53.7019  126.7410 C   0  0  0  0  0  0  0  0  0  0  0  0
    6.1876   54.3734  125.9113 C   0  0  0  0  0  0  0  0  0  0  0  0
    8.4297   54.6540  126.8217 C   0  0  0  0  0  0  0  0  0  0  0  0
    7.6525   52.3558  126.2189 C   0  0  0  0  0  0  0  0  0  0  0  0
 12 13  1  0  0  0
 13 14  1  0  0  0
 14 15  1  0  0  0
 15 19  1  0  0  0
 19 20  1  0  0  0
 20 21  1  0  0  0
 15 16  1  0  0  0
 16 17  1  0  0  0
 17 18  1  0  0  0
 18  1  1  0  0  0
  1  2  2  0  0  0
  2  3  1  0  0  0
  3  4  1  0  0  0
  4  5  1  0  0  0
  5 23  1  0  0  0
 23 24  1  0  0  0
 24 25  1  0  0  0
 24 26  1  0  0  0
 24 27  1  0  0  0
  5  6  2  0  0  0
  6  7  1  0  0  0
  7  8  1  0  0  0
  8  9  2  0  0  0
  9 10  1  0  0  0
 18 13  1  0  0  0
  9  1  1  0  0  0
  7  3  2  0  0  0
 21 22  1  0  0  0
  4 11  1  0  0  0
M  END
> <minimizedAffinity>
4.49297

> <CNNscore>
0.3534600139

> <CNNaffinity>
7.3099150658

> <CNN_VS>
2.5837626457

> <CNNaffinity_variance>
0.4424402714

$$$$
[H]OC([H])([H])C([H])([H])N1C([H])([H])C([H])([H])N(c2c(Cl)c([H])c3nc(SC(C([H])([H])[H])(C([H])([H])[H])C([H])([H])[H])n([H])c3c2[H])[C@]([H])(C([H])([H])[H])C1([H])[H]


 27 29  0  0  0  0  0  0  0  0999 V2000
    7.8346   47.8734  130.2644 C   0  0  0  0  0  0  0  0  0  0  0  0
    7.5476   46.7362  131.0392 C   0  0  0  0  0  0  0  0  0  0  0  0
    8.5302   45.9911  131.6451 C   0  0  0  0  0  0  0  0  0  0  0  0
    8.4644   44.8886  132.4139 N   0  0  0  0  0  0  0  0  0  0  0  0
    9.7332   44.5812  132.7368 C   0  0  0  0  0  0  0  0  0  0  0  0
   10.5721   45.4712  132.1824 N   0  0  0  0  0  0  0  0  0  0  0  0
    9.8683   46.3752  131.4881 C   0  0  0  0  0  0  0  0  0  0  0  0
   10.1672   47.4887  130.7310 C   0  0  0  0  0  0  0  0  0  0  0  0
    9.1594   48.2320  130.1235 C   0  0  0  0  0  0  0  0  0  0  0  0
    9.6520   49.6139  129.1626 Cl  0  0  0  0  0  0  0  0  0  0  0  0
    7.5794   44.4013  132.6816 H   0  0  0  0  0  0  0  0  0  0  0  0
    7.1168   50.8567  130.7197 C   0  0  0  0  0  0  0  0  0  0  0  0
    6.5855   50.0123  129.6444 C   0  0  0  0  0  0  0  0  0  0  0  0
    5.0691   50.2455  129.6609 C   0  0  0  0  0  0  0  0  0  0  0  0
    4.5698   50.0003  128.3409 N   0  0  0  0  0  0  0  0  0  0  0  0
    5.1290   48.7886  127.8722 C   0  0  0  0  0  0  0  0  0  0  0  0
    5.6942   47.9231  129.0293 C   0  0  0  0  0  0  0  0  0  0  0  0
    6.7773   48.6015  129.7066 N   0  0  0  0  0  0  0  0  0  0  0  0
    3.1489   50.1015  128.3711 C   0  0  0  0  0  0  0  0  0  0  0  0
    2.5628   51.3631  127.8389 C   0  0  0  0  0  0  0  0  0  0  0  0
    1.9659   51.0635  126.5981 O   0  0  0  0  0  0  0  0  0  0  0  0
    1.9022   50.0961  126.4401 H   0  0  0  0  0  0  0  0  0  0  0  0
   10.1915   43.1900  133.7528 S   0  0  0  0  0  0  0  0  0  0  0  0
   11.3789   43.7982  134.9946 C   0  0  0  0  0  0  0  0  0  0  0  0
   11.3345   42.8504  136.1662 C   0  0  0  0  0  0  0  0  0  0  0  0
   12.7748   43.7251  134.4070 C   0  0  0  0  0  0  0  0  0  0  0  0
   10.9908   45.2011  135.3492 C   0  0  0  0  0  0  0  0  0  0  0  0
 12 13  1  0  0  0
 13 14  1  0  0  0
 14 15  1  0  0  0
 15 19  1  0  0  0
 19 20  1  0  0  0
 20 21  1  0  0  0
 15 16  1  0  0  0
 16 17  1  0  0  0
 17 18  1  0  0  0
 18  1  1  0  0  0
  1  2  2  0  0  0
  2  3  1  0  0  0
  3  4  1  0  0  0
  4  5  1  0  0  0
  5 23  1  0  0  0
 23 24  1  0  0  0
 24 25  1  0  0  0
 24 26  1  0  0  0
 24 27  1  0  0  0
  5  6  2  0  0  0
  6  7  1  0  0  0
  7  8  1  0  0  0
  8  9  2  0  0  0
  9 10  1  0  0  0
 18 13  1  0  0  0
  9  1  1  0  0  0
  7  3  2  0  0  0
 21 22  1  0  0  0
  4 11  1  0  0  0
M  END
> <minimizedAffinity>
11.72096

> <CNNscore>
0.3455858827

> <CNNaffinity>
6.9438300133

> <CNN_VS>
2.3996896744

> <CNNaffinity_variance>
1.0103250742

$$$$
[H]OC([H])([H])C([H])([H])N1C([H])([H])C([H])([H])N(c2c(Cl)c([H])c3nc(SC(C([H])([H])[H])(C([H])([H])[H])C([H])([H])[H])n([H])c3c2[H])[C@]([H])(C([H])([H])[H])C1([H])[H]


 27 29  0  0  0  0  0  0  0  0999 V2000
    9.8603   45.9292  131.9629 C   0  0  0  0  0  0  0  0  0  0  0  0
    9.0148   46.6919  131.1386 C   0  0  0  0  0  0  0  0  0  0  0  0
    8.9426   48.0613  131.2244 C   0  0  0  0  0  0  0  0  0  0  0  0
    8.2103   48.9584  130.5391 N   0  0  0  0  0  0  0  0  0  0  0  0
    8.5360   50.1651  131.0356 C   0  0  0  0  0  0  0  0  0  0  0  0
    9.4506   50.0248  132.0088 N   0  0  0  0  0  0  0  0  0  0  0  0
    9.7391   48.7260  132.1659 C   0  0  0  0  0  0  0  0  0  0  0  0
   10.5743   47.9926  132.9825 C   0  0  0  0  0  0  0  0  0  0  0  0
   10.6348   46.6056  132.8828 C   0  0  0  0  0  0  0  0  0  0  0  0
   11.7113   45.7696  133.9864 Cl  0  0  0  0  0  0  0  0  0  0  0  0
    7.5342   48.7190  129.7788 H   0  0  0  0  0  0  0  0  0  0  0  0
    8.4709   43.7482  133.6760 C   0  0  0  0  0  0  0  0  0  0  0  0
    9.0623   43.5350  132.3508 C   0  0  0  0  0  0  0  0  0  0  0  0
    9.9261   42.2750  132.4930 C   0  0  0  0  0  0  0  0  0  0  0  0
   10.0160   41.6531  131.2057 N   0  0  0  0  0  0  0  0  0  0  0  0
   10.3129   42.6521  130.2493 C   0  0  0  0  0  0  0  0  0  0  0  0
   10.8773   43.9385  130.9082 C   0  0  0  0  0  0  0  0  0  0  0  0
    9.9045   44.5406  131.7933 N   0  0  0  0  0  0  0  0  0  0  0  0
   10.9091   40.5471  131.3015 C   0  0  0  0  0  0  0  0  0  0  0  0
   11.8793   40.5744  132.4312 C   0  0  0  0  0  0  0  0  0  0  0  0
   12.4551   41.8601  132.4653 O   0  0  0  0  0  0  0  0  0  0  0  0
   11.9829   42.4944  131.8826 H   0  0  0  0  0  0  0  0  0  0  0  0
    7.8348   51.6995  130.4598 S   0  0  0  0  0  0  0  0  0  0  0  0
    6.8016   51.3088  129.0101 C   0  0  0  0  0  0  0  0  0  0  0  0
    7.3610   50.0592  128.3786 C   0  0  0  0  0  0  0  0  0  0  0  0
    5.3993   50.9850  129.4874 C   0  0  0  0  0  0  0  0  0  0  0  0
    6.8250   52.4976  128.0986 C   0  0  0  0  0  0  0  0  0  0  0  0
 12 13  1  0  0  0
 13 14  1  0  0  0
 14 15  1  0  0  0
 15 19  1  0  0  0
 19 20  1  0  0  0
 20 21  1  0  0  0
 15 16  1  0  0  0
 16 17  1  0  0  0
 17 18  1  0  0  0
 18  1  1  0  0  0
  1  2  2  0  0  0
  2  3  1  0  0  0
  3  4  1  0  0  0
  4  5  1  0  0  0
  5 23  1  0  0  0
 23 24  1  0  0  0
 24 25  1  0  0  0
 24 26  1  0  0  0
 24 27  1  0  0  0
  5  6  2  0  0  0
  6  7  1  0  0  0
  7  8  1  0  0  0
  8  9  2  0  0  0
  9 10  1  0  0  0
 18 13  1  0  0  0
  9  1  1  0  0  0
  7  3  2  0  0  0
 21 22  1  0  0  0
  4 11  1  0  0  0
M  END
> <minimizedAffinity>
7.70946

> <CNNscore>
0.3279960752

> <CNNaffinity>
7.4265699387

> <CNN_VS>
2.4358859062

> <CNNaffinity_variance>
1.5982356071

$$$$
[H]c1nc(N([H])S(=O)(=O)c2c([H])c(Cl)c(N(C([H])([H])[H])[C@]3([H])C([H])([H])N(C([H])([H])c4c([H])c([H])c(Cl)c([H])c4[H])C([H])([H])C3([H])[H])c([H])c2F)c([H])s1


 33 36  0  0  0  0  0  0  0  0999 V2000
   10.1886   44.3531  129.0671 C   0  0  0  0  0  0  0  0  0  0  0  0
   11.0435   44.8390  130.0331 C   0  0  0  0  0  0  0  0  0  0  0  0
   12.4078   44.6874  129.9330 C   0  0  0  0  0  0  0  0  0  0  0  0
   13.2445   45.1742  130.8983 F   0  0  0  0  0  0  0  0  0  0  0  0
   12.9976   44.0334  128.8474 C   0  0  0  0  0  0  0  0  0  0  0  0
   12.1363   43.5521  127.8877 C   0  0  0  0  0  0  0  0  0  0  0  0
   10.7707   43.7080  127.9958 C   0  0  0  0  0  0  0  0  0  0  0  0
    9.6969   43.0732  126.7391 Cl  0  0  0  0  0  0  0  0  0  0  0  0
   14.7392   43.8894  128.7547 S   0  0  0  0  0  0  0  0  0  0  0  0
   15.2041   43.5121  130.1494 O   0  0  0  0  0  0  0  0  0  0  0  0
   15.3864   45.1898  128.4184 O   0  0  0  0  0  0  0  0  0  0  0  0
   15.2664   42.6537  127.7019 N   0  0  0  0  0  0  0  0  0  0  0  0
   16.0861   42.0871  128.0056 H   0  0  0  0  0  0  0  0  0  0  0  0
   14.6214   42.3752  126.4244 C   0  0  0  0  0  0  0  0  0  0  0  0
   14.5736   43.3289  125.4330 C   0  0  0  0  0  0  0  0  0  0  0  0
   13.7343   42.4999  124.1998 S   0  0  0  0  0  0  0  0  0  0  0  0
   13.4966   41.0131  125.0029 C   0  0  0  0  0  0  0  0  0  0  0  0
   14.0722   41.2302  126.1717 N   0  0  0  0  0  0  0  0  0  0  0  0
    7.9505   44.0233  128.0482 C   0  0  0  0  0  0  0  0  0  0  0  0
    8.7814   44.4922  129.1405 N   0  0  0  0  0  0  0  0  0  0  0  0
    8.1461   45.0870  130.2700 C   0  0  0  0  0  0  0  0  0  0  0  0
    8.4458   44.3845  131.5783 C   0  0  0  0  0  0  0  0  0  0  0  0
    8.0313   45.4640  132.5723 C   0  0  0  0  0  0  0  0  0  0  0  0
    8.4486   46.6936  131.9777 N   0  0  0  0  0  0  0  0  0  0  0  0
    8.6999   46.4840  130.5847 C   0  0  0  0  0  0  0  0  0  0  0  0
    9.5494   47.2395  132.7133 C   0  0  0  0  0  0  0  0  0  0  0  0
    9.0599   47.7371  134.0218 C   0  0  0  0  0  0  0  0  0  0  0  0
    9.4270   47.0705  135.1954 C   0  0  0  0  0  0  0  0  0  0  0  0
    9.0108   47.4859  136.4413 C   0  0  0  0  0  0  0  0  0  0  0  0
    8.2045   48.5937  136.5619 C   0  0  0  0  0  0  0  0  0  0  0  0
    7.6888   49.1019  138.1542 Cl  0  0  0  0  0  0  0  0  0  0  0  0
    7.8234   49.2734  135.4359 C   0  0  0  0  0  0  0  0  0  0  0  0
    8.2550   48.8371  134.1876 C   0  0  0  0  0  0  0  0  0  0  0  0
 19 20  1  0  0  0
 20  1  1  0  0  0
  1  2  2  0  0  0
  2  3  1  0  0  0
  3  4  1  0  0  0
  3  5  2  0  0  0
  5  9  1  0  0  0
  9 10  2  0  0  0
  9 11  2  0  0  0
  9 12  1  0  0  0
 12 14  1  0  0  0
 14 15  2  0  0  0
 15 16  1  0  0  0
 16 17  1  0  0  0
 17 18  2  0  0  0
  5  6  1  0  0  0
  6  7  2  0  0  0
  7  8  1  0  0  0
 20 21  1  0  0  0
 21 22  1  0  0  0
 22 23  1  0  0  0
 23 24  1  0  0  0
 24 26  1  0  0  0
 26 27  1  0  0  0
 27 28  2  0  0  0
 28 29  1  0  0  0
 29 30  2  0  0  0
 30 31  1  0  0  0
 30 32  1  0  0  0
 32 33  2  0  0  0
 24 25  1  0  0  0
  7  1  1  0  0  0
 25 21  1  0  0  0
 18 14  1  0  0  0
 33 27  1  0  0  0
 12 13  1  0  0  0
M  END
> <minimizedAffinity>
37.42283

> <CNNscore>
0.3865254521

> <CNNaffinity>
7.1033887863

> <CNN_VS>
2.7456405163

> <CNNaffinity_variance>
0.8657417297

$$$$
[H]c1nc(N([H])S(=O)(=O)c2c([H])c(Cl)c(N(C([H])([H])[H])[C@]3([H])C([H])([H])N(C([H])([H])c4c([H])c([H])c(Cl)c([H])c4[H])C([H])([H])C3([H])[H])c([H])c2F)c([H])s1


 33 36  0  0  0  0  0  0  0  0999 V2000
    9.4933   48.9057  132.5409 C   0  0  0  0  0  0  0  0  0  0  0  0
    9.0365   48.2096  133.6394 C   0  0  0  0  0  0  0  0  0  0  0  0
    9.5379   46.9711  133.9697 C   0  0  0  0  0  0  0  0  0  0  0  0
    9.0759   46.2913  135.0621 F   0  0  0  0  0  0  0  0  0  0  0  0
   10.5360   46.3549  133.2093 C   0  0  0  0  0  0  0  0  0  0  0  0
   10.9862   47.0576  132.1148 C   0  0  0  0  0  0  0  0  0  0  0  0
   10.4782   48.2977  131.7908 C   0  0  0  0  0  0  0  0  0  0  0  0
   11.0845   49.1688  130.3734 Cl  0  0  0  0  0  0  0  0  0  0  0  0
   11.1579   44.7902  133.6865 S   0  0  0  0  0  0  0  0  0  0  0  0
    9.9566   43.9823  134.1425 O   0  0  0  0  0  0  0  0  0  0  0  0
   12.0807   44.8922  134.8531 O   0  0  0  0  0  0  0  0  0  0  0  0
   11.8838   43.9255  132.4065 N   0  0  0  0  0  0  0  0  0  0  0  0
   12.8534   44.1961  132.1387 H   0  0  0  0  0  0  0  0  0  0  0  0
   11.2053   42.8487  131.6952 C   0  0  0  0  0  0  0  0  0  0  0  0
   11.2435   41.5556  132.1656 C   0  0  0  0  0  0  0  0  0  0  0  0
   10.3183   40.7353  130.9895 S   0  0  0  0  0  0  0  0  0  0  0  0
    9.9425   42.0621  129.9841 C   0  0  0  0  0  0  0  0  0  0  0  0
   10.5450   43.0619  130.6021 N   0  0  0  0  0  0  0  0  0  0  0  0
    9.3786   51.3519  132.9402 C   0  0  0  0  0  0  0  0  0  0  0  0
    8.9983   50.1806  132.1740 N   0  0  0  0  0  0  0  0  0  0  0  0
    8.1256   50.3523  131.0595 C   0  0  0  0  0  0  0  0  0  0  0  0
    8.7436   49.9557  129.7344 C   0  0  0  0  0  0  0  0  0  0  0  0
    7.4911   49.8225  128.8748 C   0  0  0  0  0  0  0  0  0  0  0  0
    6.5117   49.2414  129.7366 N   0  0  0  0  0  0  0  0  0  0  0  0
    6.9323   49.3869  131.0966 C   0  0  0  0  0  0  0  0  0  0  0  0
    6.2445   47.8947  129.3291 C   0  0  0  0  0  0  0  0  0  0  0  0
    7.5239   47.1490  129.2481 C   0  0  0  0  0  0  0  0  0  0  0  0
    8.4761   47.5133  128.2904 C   0  0  0  0  0  0  0  0  0  0  0  0
    9.6854   46.8647  128.1682 C   0  0  0  0  0  0  0  0  0  0  0  0
    9.9912   45.8181  129.0065 C   0  0  0  0  0  0  0  0  0  0  0  0
   11.5328   45.0100  128.8322 Cl  0  0  0  0  0  0  0  0  0  0  0  0
    9.0847   45.4316  129.9574 C   0  0  0  0  0  0  0  0  0  0  0  0
    7.8695   46.1000  130.0638 C   0  0  0  0  0  0  0  0  0  0  0  0
 19 20  1  0  0  0
 20  1  1  0  0  0
  1  2  2  0  0  0
  2  3  1  0  0  0
  3  4  1  0  0  0
  3  5  2  0  0  0
  5  9  1  0  0  0
  9 10  2  0  0  0
  9 11  2  0  0  0
  9 12  1  0  0  0
 12 14  1  0  0  0
 14 15  2  0  0  0
 15 16  1  0  0  0
 16 17  1  0  0  0
 17 18  2  0  0  0
  5  6  1  0  0  0
  6  7  2  0  0  0
  7  8  1  0  0  0
 20 21  1  0  0  0
 21 22  1  0  0  0
 22 23  1  0  0  0
 23 24  1  0  0  0
 24 26  1  0  0  0
 26 27  1  0  0  0
 27 28  2  0  0  0
 28 29  1  0  0  0
 29 30  2  0  0  0
 30 31  1  0  0  0
 30 32  1  0  0  0
 32 33  2  0  0  0
 24 25  1  0  0  0
  7  1  1  0  0  0
 25 21  1  0  0  0
 18 14  1  0  0  0
 33 27  1  0  0  0
 12 13  1  0  0  0
M  END
> <minimizedAffinity>
1.74234

> <CNNscore>
0.3364182413

> <CNNaffinity>
7.9654397964

> <CNN_VS>
2.6797192097

> <CNNaffinity_variance>
0.2564925551

$$$$
[H]c1nc(N([H])S(=O)(=O)c2c([H])c(Cl)c(N(C([H])([H])[H])[C@]3([H])C([H])([H])N(C([H])([H])c4c([H])c([H])c(Cl)c([H])c4[H])C([H])([H])C3([H])[H])c([H])c2F)c([H])s1


 33 36  0  0  0  0  0  0  0  0999 V2000
   11.3952   46.1953  132.5888 C   0  0  0  0  0  0  0  0  0  0  0  0
   11.5391   46.9578  131.4496 C   0  0  0  0  0  0  0  0  0  0  0  0
   10.7440   48.0554  131.2096 C   0  0  0  0  0  0  0  0  0  0  0  0
   10.8972   48.8033  130.0755 F   0  0  0  0  0  0  0  0  0  0  0  0
    9.7498   48.4540  132.1078 C   0  0  0  0  0  0  0  0  0  0  0  0
    9.6138   47.6870  133.2426 C   0  0  0  0  0  0  0  0  0  0  0  0
   10.4144   46.5888  133.4751 C   0  0  0  0  0  0  0  0  0  0  0  0
   10.2066   45.6277  134.9476 Cl  0  0  0  0  0  0  0  0  0  0  0  0
    8.7825   49.8724  131.7682 S   0  0  0  0  0  0  0  0  0  0  0  0
    7.4342   49.3582  131.2976 O   0  0  0  0  0  0  0  0  0  0  0  0
    9.3533   50.6789  130.6516 O   0  0  0  0  0  0  0  0  0  0  0  0
    8.4940   50.8457  133.1402 N   0  0  0  0  0  0  0  0  0  0  0  0
    7.5358   50.8212  133.5483 H   0  0  0  0  0  0  0  0  0  0  0  0
    9.5206   51.6882  133.7418 C   0  0  0  0  0  0  0  0  0  0  0  0
   10.8384   51.2912  133.7640 C   0  0  0  0  0  0  0  0  0  0  0  0
   11.5799   52.6075  134.5575 S   0  0  0  0  0  0  0  0  0  0  0  0
   10.1942   53.5707  134.8111 C   0  0  0  0  0  0  0  0  0  0  0  0
    9.2382   52.8337  134.2750 N   0  0  0  0  0  0  0  0  0  0  0  0
   13.0644   45.0541  134.0268 C   0  0  0  0  0  0  0  0  0  0  0  0
   12.1963   45.0608  132.8649 N   0  0  0  0  0  0  0  0  0  0  0  0
   12.1767   43.9084  132.0254 C   0  0  0  0  0  0  0  0  0  0  0  0
   11.3090   42.7843  132.5532 C   0  0  0  0  0  0  0  0  0  0  0  0
   11.1418   41.9481  131.2890 C   0  0  0  0  0  0  0  0  0  0  0  0
   11.0143   42.8991  130.2313 N   0  0  0  0  0  0  0  0  0  0  0  0
   11.4808   44.1743  130.6829 C   0  0  0  0  0  0  0  0  0  0  0  0
    9.6726   42.8910  129.7305 C   0  0  0  0  0  0  0  0  0  0  0  0
    8.7493   42.4966  130.8219 C   0  0  0  0  0  0  0  0  0  0  0  0
    8.8371   43.1330  132.0645 C   0  0  0  0  0  0  0  0  0  0  0  0
    8.0051   42.8168  133.1161 C   0  0  0  0  0  0  0  0  0  0  0  0
    7.0451   41.8437  132.9637 C   0  0  0  0  0  0  0  0  0  0  0  0
    6.0005   41.4595  134.3131 Cl  0  0  0  0  0  0  0  0  0  0  0  0
    6.9278   41.1976  131.7619 C   0  0  0  0  0  0  0  0  0  0  0  0
    7.7779   41.5323  130.7131 C   0  0  0  0  0  0  0  0  0  0  0  0
 19 20  1  0  0  0
 20  1  1  0  0  0
  1  2  2  0  0  0
  2  3  1  0  0  0
  3  4  1  0  0  0
  3  5  2  0  0  0
  5  9  1  0  0  0
  9 10  2  0  0  0
  9 11  2  0  0  0
  9 12  1  0  0  0
 12 14  1  0  0  0
 14 15  2  0  0  0
 15 16  1  0  0  0
 16 17  1  0  0  0
 17 18  2  0  0  0
  5  6  1  0  0  0
  6  7  2  0  0  0
  7  8  1  0  0  0
 20 21  1  0  0  0
 21 22  1  0  0  0
 22 23  1  0  0  0
 23 24  1  0  0  0
 24 26  1  0  0  0
 26 27  1  0  0  0
 27 28  2  0  0  0
 28 29  1  0  0  0
 29 30  2  0  0  0
 30 31  1  0  0  0
 30 32  1  0  0  0
 32 33  2  0  0  0
 24 25  1  0  0  0
  7  1  1  0  0  0
 25 21  1  0  0  0
 18 14  1  0  0  0
 33 27  1  0  0  0
 12 13  1  0  0  0
M  END
> <minimizedAffinity>
24.21493

> <CNNscore>
0.3181134760

> <CNNaffinity>
7.3776192665

> <CNN_VS>
2.3469200134

> <CNNaffinity_variance>
0.6610587239

$$$$
[H]c1nc(N([H])S(=O)(=O)c2c([H])c(Cl)c(N(C([H])([H])[H])[C@]3([H])C([H])([H])N(C([H])([H])c4c([H])c([H])c(Cl)c([H])c4[H])C([H])([H])C3([H])[H])c([H])c2F)c([H])s1


 33 36  0  0  0  0  0  0  0  0999 V2000
    8.1800   45.2285  131.4643 C   0  0  0  0  0  0  0  0  0  0  0  0
    7.3285   45.3697  130.3896 C   0  0  0  0  0  0  0  0  0  0  0  0
    7.0492   46.6031  129.8463 C   0  0  0  0  0  0  0  0  0  0  0  0
    6.2027   46.7291  128.7802 F   0  0  0  0  0  0  0  0  0  0  0  0
    7.6140   47.7762  130.3552 C   0  0  0  0  0  0  0  0  0  0  0  0
    8.4632   47.6253  131.4278 C   0  0  0  0  0  0  0  0  0  0  0  0
    8.7374   46.3860  131.9663 C   0  0  0  0  0  0  0  0  0  0  0  0
    9.8354   46.2351  133.3472 Cl  0  0  0  0  0  0  0  0  0  0  0  0
    7.2464   49.3173  129.6121 S   0  0  0  0  0  0  0  0  0  0  0  0
    5.7868   49.5953  129.9219 O   0  0  0  0  0  0  0  0  0  0  0  0
    7.3720   49.2615  128.1275 O   0  0  0  0  0  0  0  0  0  0  0  0
    8.1487   50.6163  130.2536 N   0  0  0  0  0  0  0  0  0  0  0  0
    8.0206   51.5500  129.8099 H   0  0  0  0  0  0  0  0  0  0  0  0
    9.0692   50.4623  131.3737 C   0  0  0  0  0  0  0  0  0  0  0  0
   10.0756   49.5238  131.3389 C   0  0  0  0  0  0  0  0  0  0  0  0
   10.8243   49.7673  132.8529 S   0  0  0  0  0  0  0  0  0  0  0  0
    9.8308   51.0276  133.4333 C   0  0  0  0  0  0  0  0  0  0  0  0
    8.9792   51.1949  132.4375 N   0  0  0  0  0  0  0  0  0  0  0  0
    8.0631   43.6836  133.4023 C   0  0  0  0  0  0  0  0  0  0  0  0
    8.4875   43.9749  132.0464 N   0  0  0  0  0  0  0  0  0  0  0  0
    9.2112   42.9754  131.3320 C   0  0  0  0  0  0  0  0  0  0  0  0
    8.3384   42.0981  130.4581 C   0  0  0  0  0  0  0  0  0  0  0  0
    9.3921   41.4881  129.5398 C   0  0  0  0  0  0  0  0  0  0  0  0
   10.3194   42.5448  129.2886 N   0  0  0  0  0  0  0  0  0  0  0  0
   10.1391   43.5747  130.2655 C   0  0  0  0  0  0  0  0  0  0  0  0
   10.2048   42.9777  127.9283 C   0  0  0  0  0  0  0  0  0  0  0  0
   11.0689   42.1277  127.0737 C   0  0  0  0  0  0  0  0  0  0  0  0
   10.7052   40.7994  126.8288 C   0  0  0  0  0  0  0  0  0  0  0  0
   11.4613   39.9607  126.0395 C   0  0  0  0  0  0  0  0  0  0  0  0
   12.6200   40.4226  125.4600 C   0  0  0  0  0  0  0  0  0  0  0  0
   13.5634   39.3392  124.4620 Cl  0  0  0  0  0  0  0  0  0  0  0  0
   13.0098   41.7175  125.6761 C   0  0  0  0  0  0  0  0  0  0  0  0
   12.2317   42.5475  126.4764 C   0  0  0  0  0  0  0  0  0  0  0  0
 19 20  1  0  0  0
 20  1  1  0  0  0
  1  2  2  0  0  0
  2  3  1  0  0  0
  3  4  1  0  0  0
  3  5  2  0  0  0
  5  9  1  0  0  0
  9 10  2  0  0  0
  9 11  2  0  0  0
  9 12  1  0  0  0
 12 14  1  0  0  0
 14 15  2  0  0  0
 15 16  1  0  0  0
 16 17  1  0  0  0
 17 18  2  0  0  0
  5  6  1  0  0  0
  6  7  2  0  0  0
  7  8  1  0  0  0
 20 21  1  0  0  0
 21 22  1  0  0  0
 22 23  1  0  0  0
 23 24  1  0  0  0
 24 26  1  0  0  0
 26 27  1  0  0  0
 27 28  2  0  0  0
 28 29  1  0  0  0
 29 30  2  0  0  0
 30 31  1  0  0  0
 30 32  1  0  0  0
 32 33  2  0  0  0
 24 25  1  0  0  0
  7  1  1  0  0  0
 25 21  1  0  0  0
 18 14  1  0  0  0
 33 27  1  0  0  0
 12 13  1  0  0  0
M  END
> <minimizedAffinity>
22.42639

> <CNNscore>
0.2917613685

> <CNNaffinity>
7.4897842407

> <CNN_VS>
2.1852297783

> <CNNaffinity_variance>
0.8427796364

$$$$
[H]c1nc(N([H])S(=O)(=O)c2c([H])c(Cl)c(N(C([H])([H])[H])[C@]3([H])C([H])([H])N(C([H])([H])c4c([H])c([H])c(Cl)c([H])c4[H])C([H])([H])C3([H])[H])c([H])c2F)c([H])s1


 33 36  0  0  0  0  0  0  0  0999 V2000
    9.4074   45.0817  130.6296 C   0  0  0  0  0  0  0  0  0  0  0  0
   10.0872   45.8854  129.7396 C   0  0  0  0  0  0  0  0  0  0  0  0
   10.0183   47.2584  129.8079 C   0  0  0  0  0  0  0  0  0  0  0  0
   10.6977   48.0439  128.9188 F   0  0  0  0  0  0  0  0  0  0  0  0
    9.2562   47.9092  130.7824 C   0  0  0  0  0  0  0  0  0  0  0  0
    8.5815   47.0987  131.6668 C   0  0  0  0  0  0  0  0  0  0  0  0
    8.6557   45.7240  131.5913 C   0  0  0  0  0  0  0  0  0  0  0  0
    7.7713   44.7168  132.7484 Cl  0  0  0  0  0  0  0  0  0  0  0  0
    9.2223   49.6579  130.8419 S   0  0  0  0  0  0  0  0  0  0  0  0
   10.5148   50.1250  130.1977 O   0  0  0  0  0  0  0  0  0  0  0  0
    9.2279   50.1656  132.2438 O   0  0  0  0  0  0  0  0  0  0  0  0
    7.9420   50.3461  129.9475 N   0  0  0  0  0  0  0  0  0  0  0  0
    8.0260   51.3528  129.6933 H   0  0  0  0  0  0  0  0  0  0  0  0
    6.7654   49.5877  129.5399 C   0  0  0  0  0  0  0  0  0  0  0  0
    6.8909   48.4022  128.8517 C   0  0  0  0  0  0  0  0  0  0  0  0
    5.2579   47.9560  128.6364 S   0  0  0  0  0  0  0  0  0  0  0  0
    4.5220   49.2808  129.4208 C   0  0  0  0  0  0  0  0  0  0  0  0
    5.5650   49.9939  129.8057 N   0  0  0  0  0  0  0  0  0  0  0  0
    8.3450   42.9214  130.0289 C   0  0  0  0  0  0  0  0  0  0  0  0
    9.4570   43.6673  130.5862 N   0  0  0  0  0  0  0  0  0  0  0  0
   10.5813   42.9423  131.0800 C   0  0  0  0  0  0  0  0  0  0  0  0
   11.9147   43.5583  130.7091 C   0  0  0  0  0  0  0  0  0  0  0  0
   12.8290   42.8602  131.7102 C   0  0  0  0  0  0  0  0  0  0  0  0
   12.0644   42.7776  132.9135 N   0  0  0  0  0  0  0  0  0  0  0  0
   10.6821   42.9907  132.6113 C   0  0  0  0  0  0  0  0  0  0  0  0
   12.6100   43.6642  133.8970 C   0  0  0  0  0  0  0  0  0  0  0  0
   11.6398   44.7549  134.1590 C   0  0  0  0  0  0  0  0  0  0  0  0
   10.5782   44.5371  135.0434 C   0  0  0  0  0  0  0  0  0  0  0  0
    9.6476   45.5107  135.3335 C   0  0  0  0  0  0  0  0  0  0  0  0
    9.7442   46.7501  134.7450 C   0  0  0  0  0  0  0  0  0  0  0  0
    8.5509   47.9701  135.1288 Cl  0  0  0  0  0  0  0  0  0  0  0  0
   10.7698   47.0021  133.8733 C   0  0  0  0  0  0  0  0  0  0  0  0
   11.6987   46.0050  133.5944 C   0  0  0  0  0  0  0  0  0  0  0  0
 19 20  1  0  0  0
 20  1  1  0  0  0
  1  2  2  0  0  0
  2  3  1  0  0  0
  3  4  1  0  0  0
  3  5  2  0  0  0
  5  9  1  0  0  0
  9 10  2  0  0  0
  9 11  2  0  0  0
  9 12  1  0  0  0
 12 14  1  0  0  0
 14 15  2  0  0  0
 15 16  1  0  0  0
 16 17  1  0  0  0
 17 18  2  0  0  0
  5  6  1  0  0  0
  6  7  2  0  0  0
  7  8  1  0  0  0
 20 21  1  0  0  0
 21 22  1  0  0  0
 22 23  1  0  0  0
 23 24  1  0  0  0
 24 26  1  0  0  0
 26 27  1  0  0  0
 27 28  2  0  0  0
 28 29  1  0  0  0
 29 30  2  0  0  0
 30 31  1  0  0  0
 30 32  1  0  0  0
 32 33  2  0  0  0
 24 25  1  0  0  0
  7  1  1  0  0  0
 25 21  1  0  0  0
 18 14  1  0  0  0
 33 27  1  0  0  0
 12 13  1  0  0  0
M  END
> <minimizedAffinity>
-2.78825

> <CNNscore>
0.2807998657

> <CNNaffinity>
7.9766325951

> <CNN_VS>
2.2398374081

> <CNNaffinity_variance>
0.3735803962

$$$$
[H]c1nc(N([H])S(=O)(=O)c2c([H])c(Cl)c(N(C([H])([H])[H])[C@]3([H])C([H])([H])N(C([H])([H])c4c([H])c([H])c(Cl)c([H])c4[H])C([H])([H])C3([H])[H])c([H])c2F)c([H])s1


 33 36  0  0  0  0  0  0  0  0999 V2000
    9.4128   48.6907  132.3543 C   0  0  0  0  0  0  0  0  0  0  0  0
    8.7680   47.9532  131.3846 C   0  0  0  0  0  0  0  0  0  0  0  0
    8.0280   48.5547  130.3922 C   0  0  0  0  0  0  0  0  0  0  0  0
    7.3934   47.8112  129.4364 F   0  0  0  0  0  0  0  0  0  0  0  0
    7.8916   49.9438  130.3156 C   0  0  0  0  0  0  0  0  0  0  0  0
    8.5393   50.6719  131.2876 C   0  0  0  0  0  0  0  0  0  0  0  0
    9.2784   50.0614  132.2784 C   0  0  0  0  0  0  0  0  0  0  0  0
   10.0960   51.0347  133.5111 Cl  0  0  0  0  0  0  0  0  0  0  0  0
    6.9604   50.6605  129.0187 S   0  0  0  0  0  0  0  0  0  0  0  0
    5.5443   50.1388  129.1808 O   0  0  0  0  0  0  0  0  0  0  0  0
    7.4376   50.2119  127.6793 O   0  0  0  0  0  0  0  0  0  0  0  0
    6.8769   52.3633  129.0994 N   0  0  0  0  0  0  0  0  0  0  0  0
    6.6630   52.7861  130.0271 H   0  0  0  0  0  0  0  0  0  0  0  0
    7.0897   53.2210  127.9398 C   0  0  0  0  0  0  0  0  0  0  0  0
    6.3555   53.0491  126.7881 C   0  0  0  0  0  0  0  0  0  0  0  0
    6.9915   54.2779  125.7893 S   0  0  0  0  0  0  0  0  0  0  0  0
    8.1353   54.9285  126.8757 C   0  0  0  0  0  0  0  0  0  0  0  0
    7.9695   54.1708  127.9449 N   0  0  0  0  0  0  0  0  0  0  0  0
   11.4947   48.6312  133.7029 C   0  0  0  0  0  0  0  0  0  0  0  0
   10.1811   48.1029  133.3883 N   0  0  0  0  0  0  0  0  0  0  0  0
    9.6979   46.9923  134.1408 C   0  0  0  0  0  0  0  0  0  0  0  0
    8.1894   46.8538  134.1232 C   0  0  0  0  0  0  0  0  0  0  0  0
    8.0394   45.4105  134.5921 C   0  0  0  0  0  0  0  0  0  0  0  0
    9.1167   44.7070  133.9724 N   0  0  0  0  0  0  0  0  0  0  0  0
   10.0963   45.6462  133.5189 C   0  0  0  0  0  0  0  0  0  0  0  0
    8.6062   43.8322  132.9599 C   0  0  0  0  0  0  0  0  0  0  0  0
    9.3976   44.0122  131.7186 C   0  0  0  0  0  0  0  0  0  0  0  0
   10.3712   43.0676  131.3773 C   0  0  0  0  0  0  0  0  0  0  0  0
   11.1349   43.1744  130.2356 C   0  0  0  0  0  0  0  0  0  0  0  0
   10.9524   44.2392  129.3844 C   0  0  0  0  0  0  0  0  0  0  0  0
   11.9339   44.3533  127.9410 Cl  0  0  0  0  0  0  0  0  0  0  0  0
   10.0086   45.1851  129.6840 C   0  0  0  0  0  0  0  0  0  0  0  0
    9.2483   45.0582  130.8418 C   0  0  0  0  0  0  0  0  0  0  0  0
 19 20  1  0  0  0
 20  1  1  0  0  0
  1  2  2  0  0  0
  2  3  1  0  0  0
  3  4  1  0  0  0
  3  5  2  0  0  0
  5  9  1  0  0  0
  9 10  2  0  0  0
  9 11  2  0  0  0
  9 12  1  0  0  0
 12 14  1  0  0  0
 14 15  2  0  0  0
 15 16  1  0  0  0
 16 17  1  0  0  0
 17 18  2  0  0  0
  5  6  1  0  0  0
  6  7  2  0  0  0
  7  8  1  0  0  0
 20 21  1  0  0  0
 21 22  1  0  0  0
 22 23  1  0  0  0
 23 24  1  0  0  0
 24 26  1  0  0  0
 26 27  1  0  0  0
 27 28  2  0  0  0
 28 29  1  0  0  0
 29 30  2  0  0  0
 30 31  1  0  0  0
 30 32  1  0  0  0
 32 33  2  0  0  0
 24 25  1  0  0  0
  7  1  1  0  0  0
 25 21  1  0  0  0
 18 14  1  0  0  0
 33 27  1  0  0  0
 12 13  1  0  0  0
M  END
> <minimizedAffinity>
4.80377

> <CNNscore>
0.2682448626

> <CNNaffinity>
7.5526642799

> <CNN_VS>
2.0259633064

> <CNNaffinity_variance>
0.3420457840

$$$$
[H]c1nc(N([H])S(=O)(=O)c2c([H])c(Cl)c(N(C([H])([H])[H])[C@]3([H])C([H])([H])N(C([H])([H])c4c([H])c([H])c(Cl)c([H])c4[H])C([H])([H])C3([H])[H])c([H])c2F)c([H])s1


 33 36  0  0  0  0  0  0  0  0999 V2000
   10.0998   44.8447  129.2909 C   0  0  0  0  0  0  0  0  0  0  0  0
   11.0260   45.2825  130.2131 C   0  0  0  0  0  0  0  0  0  0  0  0
   12.3657   44.9941  130.0844 C   0  0  0  0  0  0  0  0  0  0  0  0
   13.2739   45.4345  131.0064 F   0  0  0  0  0  0  0  0  0  0  0  0
   12.8568   44.2428  129.0128 C   0  0  0  0  0  0  0  0  0  0  0  0
   11.9248   43.8105  128.0968 C   0  0  0  0  0  0  0  0  0  0  0  0
   10.5845   44.1037  128.2334 C   0  0  0  0  0  0  0  0  0  0  0  0
    9.4174   43.5277  127.0328 Cl  0  0  0  0  0  0  0  0  0  0  0  0
   14.5728   43.9253  128.8815 S   0  0  0  0  0  0  0  0  0  0  0  0
   15.0465   43.5915  130.2843 O   0  0  0  0  0  0  0  0  0  0  0  0
   15.3288   45.1336  128.4440 O   0  0  0  0  0  0  0  0  0  0  0  0
   14.9444   42.5818  127.8966 N   0  0  0  0  0  0  0  0  0  0  0  0
   15.4886   41.8079  128.3326 H   0  0  0  0  0  0  0  0  0  0  0  0
   14.5345   42.4875  126.5007 C   0  0  0  0  0  0  0  0  0  0  0  0
   14.8068   43.5037  125.6130 C   0  0  0  0  0  0  0  0  0  0  0  0
   14.1285   42.8911  124.1718 S   0  0  0  0  0  0  0  0  0  0  0  0
   13.5474   41.4029  124.7714 C   0  0  0  0  0  0  0  0  0  0  0  0
   13.9035   41.4540  126.0423 N   0  0  0  0  0  0  0  0  0  0  0  0
    7.7881   44.5474  128.4400 C   0  0  0  0  0  0  0  0  0  0  0  0
    8.7155   45.1238  129.3946 N   0  0  0  0  0  0  0  0  0  0  0  0
    8.1966   45.9654  130.4220 C   0  0  0  0  0  0  0  0  0  0  0  0
    8.2502   45.3454  131.8032 C   0  0  0  0  0  0  0  0  0  0  0  0
    8.0721   46.5872  132.6701 C   0  0  0  0  0  0  0  0  0  0  0  0
    8.8102   47.6120  132.0034 N   0  0  0  0  0  0  0  0  0  0  0  0
    9.0661   47.2093  130.6544 C   0  0  0  0  0  0  0  0  0  0  0  0
    9.9768   47.9436  132.7650 C   0  0  0  0  0  0  0  0  0  0  0  0
   10.3229   46.8013  133.6452 C   0  0  0  0  0  0  0  0  0  0  0  0
   11.4071   45.9806  133.3173 C   0  0  0  0  0  0  0  0  0  0  0  0
   11.7832   44.9082  134.0962 C   0  0  0  0  0  0  0  0  0  0  0  0
   11.0832   44.6134  135.2429 C   0  0  0  0  0  0  0  0  0  0  0  0
   11.5795   43.2469  136.2157 Cl  0  0  0  0  0  0  0  0  0  0  0  0
   10.0153   45.3937  135.5978 C   0  0  0  0  0  0  0  0  0  0  0  0
    9.6525   46.4717  134.7972 C   0  0  0  0  0  0  0  0  0  0  0  0
 19 20  1  0  0  0
 20  1  1  0  0  0
  1  2  2  0  0  0
  2  3  1  0  0  0
  3  4  1  0  0  0
  3  5  2  0  0  0
  5  9  1  0  0  0
  9 10  2  0  0  0
  9 11  2  0  0  0
  9 12  1  0  0  0
 12 14  1  0  0  0
 14 15  2  0  0  0
 15 16  1  0  0  0
 16 17  1  0  0  0
 17 18  2  0  0  0
  5  6  1  0  0  0
  6  7  2  0  0  0
  7  8  1  0  0  0
 20 21  1  0  0  0
 21 22  1  0  0  0
 22 23  1  0  0  0
 23 24  1  0  0  0
 24 26  1  0  0  0
 26 27  1  0  0  0
 27 28  2  0  0  0
 28 29  1  0  0  0
 29 30  2  0  0  0
 30 31  1  0  0  0
 30 32  1  0  0  0
 32 33  2  0  0  0
 24 25  1  0  0  0
  7  1  1  0  0  0
 25 21  1  0  0  0
 18 14  1  0  0  0
 33 27  1  0  0  0
 12 13  1  0  0  0
M  END
> <minimizedAffinity>
24.87302

> <CNNscore>
0.2626188099

> <CNNaffinity>
7.3051872253

> <CNN_VS>
1.9184795618

> <CNNaffinity_variance>
0.2509509623

$$$$
[H]c1nc(N([H])S(=O)(=O)c2c([H])c(Cl)c(N(C([H])([H])[H])[C@]3([H])C([H])([H])N(C([H])([H])c4c([H])c([H])c(Cl)c([H])c4[H])C([H])([H])C3([H])[H])c([H])c2F)c([H])s1


 33 36  0  0  0  0  0  0  0  0999 V2000
    9.9769   43.9932  130.5873 C   0  0  0  0  0  0  0  0  0  0  0  0
    8.7196   44.4952  130.8465 C   0  0  0  0  0  0  0  0  0  0  0  0
    8.2761   45.6647  130.2723 C   0  0  0  0  0  0  0  0  0  0  0  0
    7.0265   46.1516  130.5379 F   0  0  0  0  0  0  0  0  0  0  0  0
    9.0766   46.4042  129.3968 C   0  0  0  0  0  0  0  0  0  0  0  0
   10.3300   45.8950  129.1436 C   0  0  0  0  0  0  0  0  0  0  0  0
   10.7666   44.7228  129.7233 C   0  0  0  0  0  0  0  0  0  0  0  0
   12.3872   44.1019  129.3717 Cl  0  0  0  0  0  0  0  0  0  0  0  0
    8.4561   47.8718  128.6731 S   0  0  0  0  0  0  0  0  0  0  0  0
    8.7164   47.7476  127.1829 O   0  0  0  0  0  0  0  0  0  0  0  0
    9.1951   49.0781  129.1438 O   0  0  0  0  0  0  0  0  0  0  0  0
    6.7724   48.0705  128.8705 N   0  0  0  0  0  0  0  0  0  0  0  0
    6.1611   47.2848  128.5639 H   0  0  0  0  0  0  0  0  0  0  0  0
    6.1800   49.2750  129.4395 C   0  0  0  0  0  0  0  0  0  0  0  0
    4.8434   49.3203  129.7654 C   0  0  0  0  0  0  0  0  0  0  0  0
    4.6914   50.9088  130.3701 S   0  0  0  0  0  0  0  0  0  0  0  0
    6.3095   51.4153  130.1768 C   0  0  0  0  0  0  0  0  0  0  0  0
    6.8797   50.3419  129.6599 N   0  0  0  0  0  0  0  0  0  0  0  0
   10.1083   41.5155  130.5757 C   0  0  0  0  0  0  0  0  0  0  0  0
   10.4631   42.7938  131.1618 N   0  0  0  0  0  0  0  0  0  0  0  0
   11.3023   42.8026  132.3146 C   0  0  0  0  0  0  0  0  0  0  0  0
   12.1143   44.0723  132.4681 C   0  0  0  0  0  0  0  0  0  0  0  0
   12.5172   43.9665  133.9350 C   0  0  0  0  0  0  0  0  0  0  0  0
   11.3722   43.4245  134.5943 N   0  0  0  0  0  0  0  0  0  0  0  0
   10.4992   42.8402  133.6227 C   0  0  0  0  0  0  0  0  0  0  0  0
   10.7691   44.4261  135.4214 C   0  0  0  0  0  0  0  0  0  0  0  0
   10.3159   45.5517  134.5687 C   0  0  0  0  0  0  0  0  0  0  0  0
    8.9485   45.8209  134.4498 C   0  0  0  0  0  0  0  0  0  0  0  0
    8.4641   46.8549  133.6788 C   0  0  0  0  0  0  0  0  0  0  0  0
    9.3366   47.6661  132.9915 C   0  0  0  0  0  0  0  0  0  0  0  0
    8.6981   48.9725  132.0191 Cl  0  0  0  0  0  0  0  0  0  0  0  0
   10.6832   47.4346  133.0826 C   0  0  0  0  0  0  0  0  0  0  0  0
   11.1511   46.3853  133.8666 C   0  0  0  0  0  0  0  0  0  0  0  0
 19 20  1  0  0  0
 20  1  1  0  0  0
  1  2  2  0  0  0
  2  3  1  0  0  0
  3  4  1  0  0  0
  3  5  2  0  0  0
  5  9  1  0  0  0
  9 10  2  0  0  0
  9 11  2  0  0  0
  9 12  1  0  0  0
 12 14  1  0  0  0
 14 15  2  0  0  0
 15 16  1  0  0  0
 16 17  1  0  0  0
 17 18  2  0  0  0
  5  6  1  0  0  0
  6  7  2  0  0  0
  7  8  1  0  0  0
 20 21  1  0  0  0
 21 22  1  0  0  0
 22 23  1  0  0  0
 23 24  1  0  0  0
 24 26  1  0  0  0
 26 27  1  0  0  0
 27 28  2  0  0  0
 28 29  1  0  0  0
 29 30  2  0  0  0
 30 31  1  0  0  0
 30 32  1  0  0  0
 32 33  2  0  0  0
 24 25  1  0  0  0
  7  1  1  0  0  0
 25 21  1  0  0  0
 18 14  1  0  0  0
 33 27  1  0  0  0
 12 13  1  0  0  0
M  END
> <minimizedAffinity>
0.97965

> <CNNscore>
0.2409491837

> <CNNaffinity>
7.8758034706

> <CNN_VS>
1.8976683617

> <CNNaffinity_variance>
0.3608520031

$$$$
[H]c1nc(N([H])S(=O)(=O)c2c([H])c(Cl)c(N(C([H])([H])[H])[C@]3([H])C([H])([H])N(C([H])([H])c4c([H])c([H])c(Cl)c([H])c4[H])C([H])([H])C3([H])[H])c([H])c2F)c([H])s1


 33 36  0  0  0  0  0  0  0  0999 V2000
    8.2364   47.1943  129.1477 C   0  0  0  0  0  0  0  0  0  0  0  0
    9.4881   46.8767  128.6654 C   0  0  0  0  0  0  0  0  0  0  0  0
   10.0007   45.6035  128.7693 C   0  0  0  0  0  0  0  0  0  0  0  0
   11.2438   45.3019  128.2867 F   0  0  0  0  0  0  0  0  0  0  0  0
    9.2797   44.5668  129.3687 C   0  0  0  0  0  0  0  0  0  0  0  0
    8.0309   44.8932  129.8468 C   0  0  0  0  0  0  0  0  0  0  0  0
    7.5250   46.1712  129.7389 C   0  0  0  0  0  0  0  0  0  0  0  0
    5.9136   46.5499  130.3677 Cl  0  0  0  0  0  0  0  0  0  0  0  0
    9.9663   42.9593  129.4530 S   0  0  0  0  0  0  0  0  0  0  0  0
   10.0194   42.4500  128.0242 O   0  0  0  0  0  0  0  0  0  0  0  0
    9.0929   42.0221  130.2157 O   0  0  0  0  0  0  0  0  0  0  0  0
   11.5642   42.9307  130.0523 N   0  0  0  0  0  0  0  0  0  0  0  0
   12.2925   42.4985  129.4459 H   0  0  0  0  0  0  0  0  0  0  0  0
   11.9304   43.4780  131.3531 C   0  0  0  0  0  0  0  0  0  0  0  0
   11.6460   42.7949  132.5138 C   0  0  0  0  0  0  0  0  0  0  0  0
   12.2718   43.8535  133.6970 S   0  0  0  0  0  0  0  0  0  0  0  0
   12.8492   45.0834  132.6645 C   0  0  0  0  0  0  0  0  0  0  0  0
   12.5325   44.6183  131.4695 N   0  0  0  0  0  0  0  0  0  0  0  0
    6.4384   48.6998  128.3372 C   0  0  0  0  0  0  0  0  0  0  0  0
    7.6807   48.4934  129.0568 N   0  0  0  0  0  0  0  0  0  0  0  0
    8.3121   49.6214  129.6586 C   0  0  0  0  0  0  0  0  0  0  0  0
    7.4540   50.3209  130.6928 C   0  0  0  0  0  0  0  0  0  0  0  0
    8.5150   51.1327  131.4281 C   0  0  0  0  0  0  0  0  0  0  0  0
    9.6581   50.2788  131.4875 N   0  0  0  0  0  0  0  0  0  0  0  0
    9.5110   49.2241  130.5317 C   0  0  0  0  0  0  0  0  0  0  0  0
    9.8703   49.8451  132.8358 C   0  0  0  0  0  0  0  0  0  0  0  0
    9.5915   48.3914  132.9278 C   0  0  0  0  0  0  0  0  0  0  0  0
    8.6196   47.9299  133.8217 C   0  0  0  0  0  0  0  0  0  0  0  0
    8.3100   46.5935  133.9500 C   0  0  0  0  0  0  0  0  0  0  0  0
    8.9662   45.6598  133.1824 C   0  0  0  0  0  0  0  0  0  0  0  0
    8.5560   43.9690  133.3629 Cl  0  0  0  0  0  0  0  0  0  0  0  0
    9.9246   46.0724  132.2954 C   0  0  0  0  0  0  0  0  0  0  0  0
   10.2218   47.4264  132.1816 C   0  0  0  0  0  0  0  0  0  0  0  0
 19 20  1  0  0  0
 20  1  1  0  0  0
  1  2  2  0  0  0
  2  3  1  0  0  0
  3  4  1  0  0  0
  3  5  2  0  0  0
  5  9  1  0  0  0
  9 10  2  0  0  0
  9 11  2  0  0  0
  9 12  1  0  0  0
 12 14  1  0  0  0
 14 15  2  0  0  0
 15 16  1  0  0  0
 16 17  1  0  0  0
 17 18  2  0  0  0
  5  6  1  0  0  0
  6  7  2  0  0  0
  7  8  1  0  0  0
 20 21  1  0  0  0
 21 22  1  0  0  0
 22 23  1  0  0  0
 23 24  1  0  0  0
 24 26  1  0  0  0
 26 27  1  0  0  0
 27 28  2  0  0  0
 28 29  1  0  0  0
 29 30  2  0  0  0
 30 31  1  0  0  0
 30 32  1  0  0  0
 32 33  2  0  0  0
 24 25  1  0  0  0
  7  1  1  0  0  0
 25 21  1  0  0  0
 18 14  1  0  0  0
 33 27  1  0  0  0
 12 13  1  0  0  0
M  END
> <minimizedAffinity>
-5.02905

> <CNNscore>
0.2240674943

> <CNNaffinity>
8.0213088989

> <CNN_VS>
1.7973146439

> <CNNaffinity_variance>
0.5242284536

$$$$
[H]OC1([H])C([H])([H])OC([H])([H])C([H])([H])C1(c1c([H])c([H])c(C(F)(F)F)c([H])c1F)N([H])C(=O)c1c([H])nn2c([H])c(C([H])([H])[H])c([H])nc12


 33 36  0  0  0  0  0  0  0  0999 V2000
    7.1401   47.6391  129.9175 C   0  0  0  0  0  0  0  0  0  0  0  0
    5.8557   47.1561  129.5632 C   0  0  0  0  0  0  0  0  0  0  0  0
    4.6697   48.1088  129.5636 C   0  0  0  0  0  0  0  0  0  0  0  0
    4.8856   49.4053  129.8541 O   0  0  0  0  0  0  0  0  0  0  0  0
    6.0692   49.9141  129.4774 C   0  0  0  0  0  0  0  0  0  0  0  0
    7.2798   49.1046  129.4328 C   0  0  0  0  0  0  0  0  0  0  0  0
    7.7796   49.1377  128.1151 O   0  0  0  0  0  0  0  0  0  0  0  0
    8.4732   49.7993  128.0092 H   0  0  0  0  0  0  0  0  0  0  0  0
    7.7372   47.6334  131.2423 C   0  0  0  0  0  0  0  0  0  0  0  0
    7.5262   46.4697  132.0025 C   0  0  0  0  0  0  0  0  0  0  0  0
    8.1369   46.2497  133.2155 C   0  0  0  0  0  0  0  0  0  0  0  0
    8.9898   47.1482  133.7660 C   0  0  0  0  0  0  0  0  0  0  0  0
    9.2261   48.3172  133.0401 C   0  0  0  0  0  0  0  0  0  0  0  0
    8.5959   48.5051  131.8225 C   0  0  0  0  0  0  0  0  0  0  0  0
    8.8410   49.6632  131.2066 F   0  0  0  0  0  0  0  0  0  0  0  0
    9.6802   46.8971  135.0520 C   0  0  0  0  0  0  0  0  0  0  0  0
   10.9830   47.4084  135.0177 F   0  0  0  0  0  0  0  0  0  0  0  0
    8.9495   47.4823  136.0596 F   0  0  0  0  0  0  0  0  0  0  0  0
    9.7153   45.5474  135.3945 F   0  0  0  0  0  0  0  0  0  0  0  0
    8.3636   45.5696  129.3658 C   0  0  0  0  0  0  0  0  0  0  0  0
    7.6406   45.0001  130.2338 O   0  0  0  0  0  0  0  0  0  0  0  0
    8.1911   46.9727  129.0812 N   0  0  0  0  0  0  0  0  0  0  0  0
    8.7645   47.4152  128.3843 H   0  0  0  0  0  0  0  0  0  0  0  0
   14.9006   44.1052  129.2071 C   0  0  0  0  0  0  0  0  0  0  0  0
   13.4095   44.3080  129.1420 C   0  0  0  0  0  0  0  0  0  0  0  0
   12.7583   45.1844  129.9817 C   0  0  0  0  0  0  0  0  0  0  0  0
   11.4248   45.3545  129.9048 N   0  0  0  0  0  0  0  0  0  0  0  0
   10.7107   44.6715  129.0058 C   0  0  0  0  0  0  0  0  0  0  0  0
    9.3338   44.7135  128.7335 C   0  0  0  0  0  0  0  0  0  0  0  0
    9.1773   43.8244  127.7134 C   0  0  0  0  0  0  0  0  0  0  0  0
   10.3807   43.2966  127.4025 N   0  0  0  0  0  0  0  0  0  0  0  0
   11.3125   43.8186  128.1885 N   0  0  0  0  0  0  0  0  0  0  0  0
   12.6513   43.5997  128.2141 C   0  0  0  0  0  0  0  0  0  0  0  0
 24 25  1  0  0  0
 25 26  1  0  0  0
 26 27  2  0  0  0
 27 28  1  0  0  0
 28 29  2  0  0  0
 29 20  1  0  0  0
 20 21  2  0  0  0
 20 22  1  0  0  0
 22  1  1  0  0  0
  1  9  1  0  0  0
  9 10  2  0  0  0
 10 11  1  0  0  0
 11 12  2  0  0  0
 12 16  1  0  0  0
 16 17  1  0  0  0
 16 18  1  0  0  0
 16 19  1  0  0  0
 12 13  1  0  0  0
 13 14  2  0  0  0
 14 15  1  0  0  0
  1  2  1  0  0  0
  2  3  1  0  0  0
  3  4  1  0  0  0
  4  5  1  0  0  0
  5  6  1  0  0  0
  6  7  1  0  0  0
 29 30  1  0  0  0
 30 31  2  0  0  0
 31 32  1  0  0  0
 32 33  1  0  0  0
 33 25  2  0  0  0
 32 28  1  0  0  0
  6  1  1  0  0  0
 14  9  1  0  0  0
 22 23  1  0  0  0
  7  8  1  0  0  0
M  END
> <minimizedAffinity>
0.94310

> <CNNscore>
0.4810833335

> <CNNaffinity>
7.5173273087

> <CNN_VS>
3.6164608002

> <CNNaffinity_variance>
0.7095844150

$$$$
[H]OC1([H])C([H])([H])OC([H])([H])C([H])([H])C1(c1c([H])c([H])c(C(F)(F)F)c([H])c1F)N([H])C(=O)c1c([H])nn2c([H])c(C([H])([H])[H])c([H])nc12


 33 36  0  0  0  0  0  0  0  0999 V2000
    9.3825   44.2803  131.2693 C   0  0  0  0  0  0  0  0  0  0  0  0
    8.2194   43.8108  130.6097 C   0  0  0  0  0  0  0  0  0  0  0  0
    7.6443   42.4519  130.9794 C   0  0  0  0  0  0  0  0  0  0  0  0
    8.2329   41.7507  131.9664 O   0  0  0  0  0  0  0  0  0  0  0  0
    8.7847   42.4641  132.9605 C   0  0  0  0  0  0  0  0  0  0  0  0
    9.3675   43.7805  132.7363 C   0  0  0  0  0  0  0  0  0  0  0  0
    8.6919   44.7038  133.5601 O   0  0  0  0  0  0  0  0  0  0  0  0
    9.1674   44.8679  134.3829 H   0  0  0  0  0  0  0  0  0  0  0  0
   10.7587   44.1051  130.8371 C   0  0  0  0  0  0  0  0  0  0  0  0
   10.9683   44.1133  129.4469 C   0  0  0  0  0  0  0  0  0  0  0  0
   12.2222   44.0987  128.8811 C   0  0  0  0  0  0  0  0  0  0  0  0
   13.3509   44.0734  129.6316 C   0  0  0  0  0  0  0  0  0  0  0  0
   13.1841   44.0657  131.0178 C   0  0  0  0  0  0  0  0  0  0  0  0
   11.9081   44.0824  131.5530 C   0  0  0  0  0  0  0  0  0  0  0  0
   11.8286   44.0340  132.8841 F   0  0  0  0  0  0  0  0  0  0  0  0
   14.7027   44.0984  129.0269 C   0  0  0  0  0  0  0  0  0  0  0  0
   14.6160   44.0748  127.6299 F   0  0  0  0  0  0  0  0  0  0  0  0
   15.3519   45.2310  129.4596 F   0  0  0  0  0  0  0  0  0  0  0  0
   15.5119   43.0522  129.4640 F   0  0  0  0  0  0  0  0  0  0  0  0
    8.7048   46.4786  130.3790 C   0  0  0  0  0  0  0  0  0  0  0  0
    8.2925   45.8542  129.3590 O   0  0  0  0  0  0  0  0  0  0  0  0
    9.2921   45.7615  131.4837 N   0  0  0  0  0  0  0  0  0  0  0  0
    9.6098   46.2649  132.2937 H   0  0  0  0  0  0  0  0  0  0  0  0
    9.9029   52.1433  133.7522 C   0  0  0  0  0  0  0  0  0  0  0  0
    9.5819   50.9643  132.8714 C   0  0  0  0  0  0  0  0  0  0  0  0
    9.9691   49.6843  133.2014 C   0  0  0  0  0  0  0  0  0  0  0  0
    9.6687   48.6430  132.4025 N   0  0  0  0  0  0  0  0  0  0  0  0
    8.9852   48.8387  131.2715 C   0  0  0  0  0  0  0  0  0  0  0  0
    8.5431   47.9083  130.3172 C   0  0  0  0  0  0  0  0  0  0  0  0
    7.8906   48.6720  129.3970 C   0  0  0  0  0  0  0  0  0  0  0  0
    7.9410   49.9647  129.7843 N   0  0  0  0  0  0  0  0  0  0  0  0
    8.6040   50.0613  130.9286 N   0  0  0  0  0  0  0  0  0  0  0  0
    8.8748   51.1531  131.6874 C   0  0  0  0  0  0  0  0  0  0  0  0
 24 25  1  0  0  0
 25 26  1  0  0  0
 26 27  2  0  0  0
 27 28  1  0  0  0
 28 29  2  0  0  0
 29 20  1  0  0  0
 20 21  2  0  0  0
 20 22  1  0  0  0
 22  1  1  0  0  0
  1  9  1  0  0  0
  9 10  2  0  0  0
 10 11  1  0  0  0
 11 12  2  0  0  0
 12 16  1  0  0  0
 16 17  1  0  0  0
 16 18  1  0  0  0
 16 19  1  0  0  0
 12 13  1  0  0  0
 13 14  2  0  0  0
 14 15  1  0  0  0
  1  2  1  0  0  0
  2  3  1  0  0  0
  3  4  1  0  0  0
  4  5  1  0  0  0
  5  6  1  0  0  0
  6  7  1  0  0  0
 29 30  1  0  0  0
 30 31  2  0  0  0
 31 32  1  0  0  0
 32 33  1  0  0  0
 33 25  2  0  0  0
 32 28  1  0  0  0
  6  1  1  0  0  0
 14  9  1  0  0  0
 22 23  1  0  0  0
  7  8  1  0  0  0
M  END
> <minimizedAffinity>
4.68154

> <CNNscore>
0.4800024331

> <CNNaffinity>
7.7264471054

> <CNN_VS>
3.7087132931

> <CNNaffinity_variance>
2.9478759766

$$$$
[H]OC1([H])C([H])([H])OC([H])([H])C([H])([H])C1(c1c([H])c([H])c(C(F)(F)F)c([H])c1F)N([H])C(=O)c1c([H])nn2c([H])c(C([H])([H])[H])c([H])nc12


 33 36  0  0  0  0  0  0  0  0999 V2000
   10.4815   44.7004  129.1317 C   0  0  0  0  0  0  0  0  0  0  0  0
   11.2099   44.2936  127.9861 C   0  0  0  0  0  0  0  0  0  0  0  0
   10.8477   42.9900  127.2907 C   0  0  0  0  0  0  0  0  0  0  0  0
    9.8041   42.2795  127.7580 O   0  0  0  0  0  0  0  0  0  0  0  0
    8.7917   42.9823  128.2898 C   0  0  0  0  0  0  0  0  0  0  0  0
    9.0072   44.2474  128.9797 C   0  0  0  0  0  0  0  0  0  0  0  0
    8.2569   45.2401  128.3170 O   0  0  0  0  0  0  0  0  0  0  0  0
    7.4069   45.3954  128.7453 H   0  0  0  0  0  0  0  0  0  0  0  0
   10.8105   44.4165  130.5183 C   0  0  0  0  0  0  0  0  0  0  0  0
   11.5071   45.4293  131.2007 C   0  0  0  0  0  0  0  0  0  0  0  0
   11.7702   45.3752  132.5499 C   0  0  0  0  0  0  0  0  0  0  0  0
   11.3738   44.3323  133.3199 C   0  0  0  0  0  0  0  0  0  0  0  0
   10.6776   43.3061  132.6784 C   0  0  0  0  0  0  0  0  0  0  0  0
   10.4290   43.3938  131.3199 C   0  0  0  0  0  0  0  0  0  0  0  0
    9.7931   42.3571  130.7708 F   0  0  0  0  0  0  0  0  0  0  0  0
   11.6197   44.2894  134.7798 C   0  0  0  0  0  0  0  0  0  0  0  0
   10.7661   45.1756  135.4476 F   0  0  0  0  0  0  0  0  0  0  0  0
   11.4268   42.9994  135.2158 F   0  0  0  0  0  0  0  0  0  0  0  0
   12.9422   44.5698  135.1157 F   0  0  0  0  0  0  0  0  0  0  0  0
    9.2320   46.6555  129.9685 C   0  0  0  0  0  0  0  0  0  0  0  0
    8.5443   45.8337  130.6408 O   0  0  0  0  0  0  0  0  0  0  0  0
   10.3115   46.1901  129.1334 N   0  0  0  0  0  0  0  0  0  0  0  0
   10.8579   46.8509  128.6088 H   0  0  0  0  0  0  0  0  0  0  0  0
    9.8299   52.0048  133.9597 C   0  0  0  0  0  0  0  0  0  0  0  0
    9.6170   50.9001  132.9583 C   0  0  0  0  0  0  0  0  0  0  0  0
   10.2384   49.6771  133.0826 C   0  0  0  0  0  0  0  0  0  0  0  0
   10.0317   48.7009  132.1787 N   0  0  0  0  0  0  0  0  0  0  0  0
    9.2143   48.9066  131.1422 C   0  0  0  0  0  0  0  0  0  0  0  0
    8.8348   48.0325  130.1109 C   0  0  0  0  0  0  0  0  0  0  0  0
    7.9770   48.7740  129.3559 C   0  0  0  0  0  0  0  0  0  0  0  0
    7.8557   50.0010  129.9067 N   0  0  0  0  0  0  0  0  0  0  0  0
    8.6069   50.0760  130.9969 N   0  0  0  0  0  0  0  0  0  0  0  0
    8.7723   51.1011  131.8703 C   0  0  0  0  0  0  0  0  0  0  0  0
 24 25  1  0  0  0
 25 26  1  0  0  0
 26 27  2  0  0  0
 27 28  1  0  0  0
 28 29  2  0  0  0
 29 20  1  0  0  0
 20 21  2  0  0  0
 20 22  1  0  0  0
 22  1  1  0  0  0
  1  9  1  0  0  0
  9 10  2  0  0  0
 10 11  1  0  0  0
 11 12  2  0  0  0
 12 16  1  0  0  0
 16 17  1  0  0  0
 16 18  1  0  0  0
 16 19  1  0  0  0
 12 13  1  0  0  0
 13 14  2  0  0  0
 14 15  1  0  0  0
  1  2  1  0  0  0
  2  3  1  0  0  0
  3  4  1  0  0  0
  4  5  1  0  0  0
  5  6  1  0  0  0
  6  7  1  0  0  0
 29 30  1  0  0  0
 30 31  2  0  0  0
 31 32  1  0  0  0
 32 33  1  0  0  0
 33 25  2  0  0  0
 32 28  1  0  0  0
  6  1  1  0  0  0
 14  9  1  0  0  0
 22 23  1  0  0  0
  7  8  1  0  0  0
M  END
> <minimizedAffinity>
1.54403

> <CNNscore>
0.4468557537

> <CNNaffinity>
7.5006041527

> <CNN_VS>
3.3516881466

> <CNNaffinity_variance>
1.1091259718

$$$$
[H]OC1([H])C([H])([H])OC([H])([H])C([H])([H])C1(c1c([H])c([H])c(C(F)(F)F)c([H])c1F)N([H])C(=O)c1c([H])nn2c([H])c(C([H])([H])[H])c([H])nc12


 33 36  0  0  0  0  0  0  0  0999 V2000
   10.9036   45.1470  130.7117 C   0  0  0  0  0  0  0  0  0  0  0  0
   12.0043   45.4015  129.8561 C   0  0  0  0  0  0  0  0  0  0  0  0
   13.2028   44.4650  129.8769 C   0  0  0  0  0  0  0  0  0  0  0  0
   13.1613   43.3840  130.6781 O   0  0  0  0  0  0  0  0  0  0  0  0
   11.9553   42.8264  130.8688 C   0  0  0  0  0  0  0  0  0  0  0  0
   10.7302   43.6149  130.8692 C   0  0  0  0  0  0  0  0  0  0  0  0
    9.8865   43.1123  129.8577 O   0  0  0  0  0  0  0  0  0  0  0  0
    9.2355   42.4922  130.2065 H   0  0  0  0  0  0  0  0  0  0  0  0
   10.7000   45.6776  132.0491 C   0  0  0  0  0  0  0  0  0  0  0  0
    9.3624   45.8974  132.4221 C   0  0  0  0  0  0  0  0  0  0  0  0
    8.9932   46.2632  133.6959 C   0  0  0  0  0  0  0  0  0  0  0  0
    9.9017   46.4398  134.6864 C   0  0  0  0  0  0  0  0  0  0  0  0
   11.2417   46.2295  134.3553 C   0  0  0  0  0  0  0  0  0  0  0  0
   11.5773   45.8608  133.0644 C   0  0  0  0  0  0  0  0  0  0  0  0
   12.8800   45.7163  132.8145 F   0  0  0  0  0  0  0  0  0  0  0  0
    9.5049   46.7941  136.0687 C   0  0  0  0  0  0  0  0  0  0  0  0
    8.2020   47.3055  136.0895 F   0  0  0  0  0  0  0  0  0  0  0  0
    9.6028   45.6675  136.8516 F   0  0  0  0  0  0  0  0  0  0  0  0
   10.3748   47.7028  136.6668 F   0  0  0  0  0  0  0  0  0  0  0  0
    9.4215   46.9150  129.8388 C   0  0  0  0  0  0  0  0  0  0  0  0
   10.3026   47.7380  130.2218 O   0  0  0  0  0  0  0  0  0  0  0  0
    9.6202   45.4983  130.0206 N   0  0  0  0  0  0  0  0  0  0  0  0
    8.9185   44.8510  129.7060 H   0  0  0  0  0  0  0  0  0  0  0  0
    2.7235   46.7172  129.8339 C   0  0  0  0  0  0  0  0  0  0  0  0
    4.2165   46.8910  129.7365 C   0  0  0  0  0  0  0  0  0  0  0  0
    5.0837   46.1901  130.5452 C   0  0  0  0  0  0  0  0  0  0  0  0
    6.4156   46.3567  130.4397 N   0  0  0  0  0  0  0  0  0  0  0  0
    6.9175   47.2093  129.5420 C   0  0  0  0  0  0  0  0  0  0  0  0
    8.2552   47.5139  129.2430 C   0  0  0  0  0  0  0  0  0  0  0  0
    8.1631   48.4299  128.2390 C   0  0  0  0  0  0  0  0  0  0  0  0
    6.8596   48.6481  127.9619 N   0  0  0  0  0  0  0  0  0  0  0  0
    6.1045   47.8993  128.7542 N   0  0  0  0  0  0  0  0  0  0  0  0
    4.7541   47.7794  128.8096 C   0  0  0  0  0  0  0  0  0  0  0  0
 24 25  1  0  0  0
 25 26  1  0  0  0
 26 27  2  0  0  0
 27 28  1  0  0  0
 28 29  2  0  0  0
 29 20  1  0  0  0
 20 21  2  0  0  0
 20 22  1  0  0  0
 22  1  1  0  0  0
  1  9  1  0  0  0
  9 10  2  0  0  0
 10 11  1  0  0  0
 11 12  2  0  0  0
 12 16  1  0  0  0
 16 17  1  0  0  0
 16 18  1  0  0  0
 16 19  1  0  0  0
 12 13  1  0  0  0
 13 14  2  0  0  0
 14 15  1  0  0  0
  1  2  1  0  0  0
  2  3  1  0  0  0
  3  4  1  0  0  0
  4  5  1  0  0  0
  5  6  1  0  0  0
  6  7  1  0  0  0
 29 30  1  0  0  0
 30 31  2  0  0  0
 31 32  1  0  0  0
 32 33  1  0  0  0
 33 25  2  0  0  0
 32 28  1  0  0  0
  6  1  1  0  0  0
 14  9  1  0  0  0
 22 23  1  0  0  0
  7  8  1  0  0  0
M  END
> <minimizedAffinity>
6.10957

> <CNNscore>
0.4402595460

> <CNNaffinity>
7.4498124123

> <CNN_VS>
3.2798509598

> <CNNaffinity_variance>
1.4763445854

$$$$
[H]OC1([H])C([H])([H])OC([H])([H])C([H])([H])C1(c1c([H])c([H])c(C(F)(F)F)c([H])c1F)N([H])C(=O)c1c([H])nn2c([H])c(C([H])([H])[H])c([H])nc12


 33 36  0  0  0  0  0  0  0  0999 V2000
    9.9593   45.1295  130.5096 C   0  0  0  0  0  0  0  0  0  0  0  0
   10.9611   45.1115  129.5074 C   0  0  0  0  0  0  0  0  0  0  0  0
   11.4744   43.7787  128.9836 C   0  0  0  0  0  0  0  0  0  0  0  0
   10.9214   42.6457  129.4553 O   0  0  0  0  0  0  0  0  0  0  0  0
    9.6212   42.7057  129.7835 C   0  0  0  0  0  0  0  0  0  0  0  0
    9.0083   43.9247  130.2944 C   0  0  0  0  0  0  0  0  0  0  0  0
    7.9560   44.2818  129.4268 O   0  0  0  0  0  0  0  0  0  0  0  0
    7.1020   43.9706  129.7489 H   0  0  0  0  0  0  0  0  0  0  0  0
   10.1668   45.1797  131.9469 C   0  0  0  0  0  0  0  0  0  0  0  0
    9.0553   45.5757  132.7113 C   0  0  0  0  0  0  0  0  0  0  0  0
    9.0448   45.5411  134.0865 C   0  0  0  0  0  0  0  0  0  0  0  0
   10.1150   45.1210  134.8048 C   0  0  0  0  0  0  0  0  0  0  0  0
   11.2389   44.7181  134.0810 C   0  0  0  0  0  0  0  0  0  0  0  0
   11.2144   44.7644  132.6982 C   0  0  0  0  0  0  0  0  0  0  0  0
   12.3386   44.4009  132.0780 F   0  0  0  0  0  0  0  0  0  0  0  0
   10.0934   45.0442  136.2837 C   0  0  0  0  0  0  0  0  0  0  0  0
    8.8384   44.6185  136.7348 F   0  0  0  0  0  0  0  0  0  0  0  0
   11.0809   44.1768  136.6887 F   0  0  0  0  0  0  0  0  0  0  0  0
   10.4264   46.2509  136.8945 F   0  0  0  0  0  0  0  0  0  0  0  0
    9.5121   47.5456  130.7259 C   0  0  0  0  0  0  0  0  0  0  0  0
   10.6651   47.6364  131.2385 O   0  0  0  0  0  0  0  0  0  0  0  0
    9.0143   46.2696  130.2747 N   0  0  0  0  0  0  0  0  0  0  0  0
    8.1001   46.2079  129.8612 H   0  0  0  0  0  0  0  0  0  0  0  0
    3.6948   50.2232  128.7533 C   0  0  0  0  0  0  0  0  0  0  0  0
    5.0383   49.7675  129.2594 C   0  0  0  0  0  0  0  0  0  0  0  0
    5.4026   48.4392  129.2584 C   0  0  0  0  0  0  0  0  0  0  0  0
    6.6101   48.0526  129.7113 N   0  0  0  0  0  0  0  0  0  0  0  0
    7.4778   48.9589  130.1699 C   0  0  0  0  0  0  0  0  0  0  0  0
    8.7841   48.7862  130.6551 C   0  0  0  0  0  0  0  0  0  0  0  0
    9.1871   50.0511  130.9604 C   0  0  0  0  0  0  0  0  0  0  0  0
    8.1878   50.9120  130.6713 N   0  0  0  0  0  0  0  0  0  0  0  0
    7.1506   50.2435  130.1856 N   0  0  0  0  0  0  0  0  0  0  0  0
    5.9510   50.6996  129.7451 C   0  0  0  0  0  0  0  0  0  0  0  0
 24 25  1  0  0  0
 25 26  1  0  0  0
 26 27  2  0  0  0
 27 28  1  0  0  0
 28 29  2  0  0  0
 29 20  1  0  0  0
 20 21  2  0  0  0
 20 22  1  0  0  0
 22  1  1  0  0  0
  1  9  1  0  0  0
  9 10  2  0  0  0
 10 11  1  0  0  0
 11 12  2  0  0  0
 12 16  1  0  0  0
 16 17  1  0  0  0
 16 18  1  0  0  0
 16 19  1  0  0  0
 12 13  1  0  0  0
 13 14  2  0  0  0
 14 15  1  0  0  0
  1  2  1  0  0  0
  2  3  1  0  0  0
  3  4  1  0  0  0
  4  5  1  0  0  0
  5  6  1  0  0  0
  6  7  1  0  0  0
 29 30  1  0  0  0
 30 31  2  0  0  0
 31 32  1  0  0  0
 32 33  1  0  0  0
 33 25  2  0  0  0
 32 28  1  0  0  0
  6  1  1  0  0  0
 14  9  1  0  0  0
 22 23  1  0  0  0
  7  8  1  0  0  0
M  END
> <minimizedAffinity>
3.24637

> <CNNscore>
0.3975390792

> <CNNaffinity>
7.5732622147

> <CNN_VS>
3.0106678009

> <CNNaffinity_variance>
0.8793507814

$$$$
[H]OC1([H])C([H])([H])OC([H])([H])C([H])([H])C1(c1c([H])c([H])c(C(F)(F)F)c([H])c1F)N([H])C(=O)c1c([H])nn2c([H])c(C([H])([H])[H])c([H])nc12


 33 36  0  0  0  0  0  0  0  0999 V2000
    8.0307   48.3934  130.2582 C   0  0  0  0  0  0  0  0  0  0  0  0
    8.6939   49.6383  130.1209 C   0  0  0  0  0  0  0  0  0  0  0  0
    8.2777   50.5916  129.0110 C   0  0  0  0  0  0  0  0  0  0  0  0
    7.2487   50.2438  128.2158 O   0  0  0  0  0  0  0  0  0  0  0  0
    6.2751   49.5136  128.7819 C   0  0  0  0  0  0  0  0  0  0  0  0
    6.5439   48.5665  129.8559 C   0  0  0  0  0  0  0  0  0  0  0  0
    5.7759   48.9457  130.9757 O   0  0  0  0  0  0  0  0  0  0  0  0
    4.9510   48.4492  131.0318 H   0  0  0  0  0  0  0  0  0  0  0  0
    8.4252   47.1270  129.6649 C   0  0  0  0  0  0  0  0  0  0  0  0
    9.6405   47.1356  128.9581 C   0  0  0  0  0  0  0  0  0  0  0  0
   10.2210   45.9931  128.4578 C   0  0  0  0  0  0  0  0  0  0  0  0
    9.6553   44.7708  128.6119 C   0  0  0  0  0  0  0  0  0  0  0  0
    8.4471   44.7207  129.3099 C   0  0  0  0  0  0  0  0  0  0  0  0
    7.8921   45.8894  129.8008 C   0  0  0  0  0  0  0  0  0  0  0  0
    6.7178   45.7664  130.4224 F   0  0  0  0  0  0  0  0  0  0  0  0
   10.2972   43.5340  128.1100 C   0  0  0  0  0  0  0  0  0  0  0  0
    9.5245   42.9571  127.0951 F   0  0  0  0  0  0  0  0  0  0  0  0
   11.5537   43.8519  127.6499 F   0  0  0  0  0  0  0  0  0  0  0  0
   10.5276   42.5964  129.1140 F   0  0  0  0  0  0  0  0  0  0  0  0
    9.1282   47.7325  132.3659 C   0  0  0  0  0  0  0  0  0  0  0  0
   10.2198   47.7959  131.7297 O   0  0  0  0  0  0  0  0  0  0  0  0
    7.8830   48.0442  131.7088 N   0  0  0  0  0  0  0  0  0  0  0  0
    7.0212   47.9990  132.2242 H   0  0  0  0  0  0  0  0  0  0  0  0
   11.7153   42.9802  136.3188 C   0  0  0  0  0  0  0  0  0  0  0  0
   11.0926   44.1272  135.5669 C   0  0  0  0  0  0  0  0  0  0  0  0
   11.2379   44.2669  134.2043 C   0  0  0  0  0  0  0  0  0  0  0  0
   10.6697   45.2974  133.5500 N   0  0  0  0  0  0  0  0  0  0  0  0
    9.9514   46.2040  134.2183 C   0  0  0  0  0  0  0  0  0  0  0  0
    9.2549   47.3264  133.7418 C   0  0  0  0  0  0  0  0  0  0  0  0
    8.6988   47.8637  134.8633 C   0  0  0  0  0  0  0  0  0  0  0  0
    9.0407   47.1075  135.9285 N   0  0  0  0  0  0  0  0  0  0  0  0
    9.7994   46.0951  135.5308 N   0  0  0  0  0  0  0  0  0  0  0  0
   10.3456   45.0826  136.2502 C   0  0  0  0  0  0  0  0  0  0  0  0
 24 25  1  0  0  0
 25 26  1  0  0  0
 26 27  2  0  0  0
 27 28  1  0  0  0
 28 29  2  0  0  0
 29 20  1  0  0  0
 20 21  2  0  0  0
 20 22  1  0  0  0
 22  1  1  0  0  0
  1  9  1  0  0  0
  9 10  2  0  0  0
 10 11  1  0  0  0
 11 12  2  0  0  0
 12 16  1  0  0  0
 16 17  1  0  0  0
 16 18  1  0  0  0
 16 19  1  0  0  0
 12 13  1  0  0  0
 13 14  2  0  0  0
 14 15  1  0  0  0
  1  2  1  0  0  0
  2  3  1  0  0  0
  3  4  1  0  0  0
  4  5  1  0  0  0
  5  6  1  0  0  0
  6  7  1  0  0  0
 29 30  1  0  0  0
 30 31  2  0  0  0
 31 32  1  0  0  0
 32 33  1  0  0  0
 33 25  2  0  0  0
 32 28  1  0  0  0
  6  1  1  0  0  0
 14  9  1  0  0  0
 22 23  1  0  0  0
  7  8  1  0  0  0
M  END
> <minimizedAffinity>
3.30533

> <CNNscore>
0.3964751363

> <CNNaffinity>
7.4151306152

> <CNN_VS>
2.9399149418

> <CNNaffinity_variance>
1.0354145765

$$$$
[H]OC1([H])C([H])([H])OC([H])([H])C([H])([H])C1(c1c([H])c([H])c(C(F)(F)F)c([H])c1F)N([H])C(=O)c1c([H])nn2c([H])c(C([H])([H])[H])c([H])nc12


 33 36  0  0  0  0  0  0  0  0999 V2000
    7.1619   48.3186  130.1870 C   0  0  0  0  0  0  0  0  0  0  0  0
    5.8241   48.7796  130.1096 C   0  0  0  0  0  0  0  0  0  0  0  0
    5.5466   50.2039  129.6530 C   0  0  0  0  0  0  0  0  0  0  0  0
    6.5861   50.9757  129.2843 O   0  0  0  0  0  0  0  0  0  0  0  0
    7.6232   50.3476  128.7085 C   0  0  0  0  0  0  0  0  0  0  0  0
    7.9905   48.9816  129.0574 C   0  0  0  0  0  0  0  0  0  0  0  0
    7.9318   48.2002  127.8855 O   0  0  0  0  0  0  0  0  0  0  0  0
    8.7984   48.1020  127.4740 H   0  0  0  0  0  0  0  0  0  0  0  0
    8.0309   48.3603  131.3509 C   0  0  0  0  0  0  0  0  0  0  0  0
    7.9844   47.2323  132.1888 C   0  0  0  0  0  0  0  0  0  0  0  0
    8.8418   47.0550  133.2500 C   0  0  0  0  0  0  0  0  0  0  0  0
    9.7970   47.9644  133.5640 C   0  0  0  0  0  0  0  0  0  0  0  0
    9.8756   49.0988  132.7539 C   0  0  0  0  0  0  0  0  0  0  0  0
    8.9981   49.2440  131.6938 C   0  0  0  0  0  0  0  0  0  0  0  0
    9.1090   50.3720  130.9896 F   0  0  0  0  0  0  0  0  0  0  0  0
   10.7478   47.7581  134.6807 C   0  0  0  0  0  0  0  0  0  0  0  0
   10.0619   47.4203  135.8534 F   0  0  0  0  0  0  0  0  0  0  0  0
   11.6290   46.7643  134.3237 F   0  0  0  0  0  0  0  0  0  0  0  0
   11.5585   48.8663  134.9146 F   0  0  0  0  0  0  0  0  0  0  0  0
    8.5795   46.3568  129.7117 C   0  0  0  0  0  0  0  0  0  0  0  0
    9.5644   47.0877  130.0215 O   0  0  0  0  0  0  0  0  0  0  0  0
    7.2369   46.8794  129.7731 N   0  0  0  0  0  0  0  0  0  0  0  0
    6.4596   46.2892  129.5328 H   0  0  0  0  0  0  0  0  0  0  0  0
   11.2239   40.6078  131.9158 C   0  0  0  0  0  0  0  0  0  0  0  0
   10.5975   41.8216  131.2811 C   0  0  0  0  0  0  0  0  0  0  0  0
   10.3135   42.9566  132.0079 C   0  0  0  0  0  0  0  0  0  0  0  0
    9.7571   44.0330  131.4209 N   0  0  0  0  0  0  0  0  0  0  0  0
    9.4721   44.0148  130.1158 C   0  0  0  0  0  0  0  0  0  0  0  0
    8.9257   45.0202  129.3020 C   0  0  0  0  0  0  0  0  0  0  0  0
    8.8778   44.4480  128.0668 C   0  0  0  0  0  0  0  0  0  0  0  0
    9.3664   43.1916  128.1458 N   0  0  0  0  0  0  0  0  0  0  0  0
    9.7317   42.9334  129.3941 N   0  0  0  0  0  0  0  0  0  0  0  0
   10.2902   41.8158  129.9234 C   0  0  0  0  0  0  0  0  0  0  0  0
 24 25  1  0  0  0
 25 26  1  0  0  0
 26 27  2  0  0  0
 27 28  1  0  0  0
 28 29  2  0  0  0
 29 20  1  0  0  0
 20 21  2  0  0  0
 20 22  1  0  0  0
 22  1  1  0  0  0
  1  9  1  0  0  0
  9 10  2  0  0  0
 10 11  1  0  0  0
 11 12  2  0  0  0
 12 16  1  0  0  0
 16 17  1  0  0  0
 16 18  1  0  0  0
 16 19  1  0  0  0
 12 13  1  0  0  0
 13 14  2  0  0  0
 14 15  1  0  0  0
  1  2  1  0  0  0
  2  3  1  0  0  0
  3  4  1  0  0  0
  4  5  1  0  0  0
  5  6  1  0  0  0
  6  7  1  0  0  0
 29 30  1  0  0  0
 30 31  2  0  0  0
 31 32  1  0  0  0
 32 33  1  0  0  0
 33 25  2  0  0  0
 32 28  1  0  0  0
  6  1  1  0  0  0
 14  9  1  0  0  0
 22 23  1  0  0  0
  7  8  1  0  0  0
M  END
> <minimizedAffinity>
-0.24893

> <CNNscore>
0.3941959739

> <CNNaffinity>
7.2036828995

> <CNN_VS>
2.8396627903

> <CNNaffinity_variance>
0.2963260710

$$$$
[H]OC1([H])C([H])([H])OC([H])([H])C([H])([H])C1(c1c([H])c([H])c(C(F)(F)F)c([H])c1F)N([H])C(=O)c1c([H])nn2c([H])c(C([H])([H])[H])c([H])nc12


 33 36  0  0  0  0  0  0  0  0999 V2000
    7.1672   47.9062  130.0597 C   0  0  0  0  0  0  0  0  0  0  0  0
    5.8140   48.2694  129.8470 C   0  0  0  0  0  0  0  0  0  0  0  0
    5.4221   49.7393  129.8526 C   0  0  0  0  0  0  0  0  0  0  0  0
    6.3888   50.6626  130.0106 O   0  0  0  0  0  0  0  0  0  0  0  0
    7.5940   50.3605  129.5026 C   0  0  0  0  0  0  0  0  0  0  0  0
    8.0845   48.9901  129.4386 C   0  0  0  0  0  0  0  0  0  0  0  0
    8.3561   48.6856  128.0891 O   0  0  0  0  0  0  0  0  0  0  0  0
    9.2885   48.8042  127.8734 H   0  0  0  0  0  0  0  0  0  0  0  0
    7.7921   47.5828  131.3311 C   0  0  0  0  0  0  0  0  0  0  0  0
    8.5341   48.6172  131.9278 C   0  0  0  0  0  0  0  0  0  0  0  0
    9.0696   48.5186  133.1912 C   0  0  0  0  0  0  0  0  0  0  0  0
    8.9185   47.4074  133.9529 C   0  0  0  0  0  0  0  0  0  0  0  0
    8.1862   46.3576  133.3952 C   0  0  0  0  0  0  0  0  0  0  0  0
    7.6604   46.4914  132.1221 C   0  0  0  0  0  0  0  0  0  0  0  0
    7.0066   45.4319  131.6421 F   0  0  0  0  0  0  0  0  0  0  0  0
    9.4589   47.3128  135.3287 C   0  0  0  0  0  0  0  0  0  0  0  0
    9.5866   45.9733  135.7149 F   0  0  0  0  0  0  0  0  0  0  0  0
   10.6763   47.9519  135.3627 F   0  0  0  0  0  0  0  0  0  0  0  0
    8.6864   47.9985  136.2632 F   0  0  0  0  0  0  0  0  0  0  0  0
    8.8895   46.2847  129.3605 C   0  0  0  0  0  0  0  0  0  0  0  0
    9.6605   46.8651  130.1784 O   0  0  0  0  0  0  0  0  0  0  0  0
    7.5246   46.7246  129.2087 N   0  0  0  0  0  0  0  0  0  0  0  0
    6.9165   46.2525  128.5623 H   0  0  0  0  0  0  0  0  0  0  0  0
    9.7562   39.6401  129.3943 C   0  0  0  0  0  0  0  0  0  0  0  0
    9.6329   41.1334  129.2402 C   0  0  0  0  0  0  0  0  0  0  0  0
    8.8800   41.8935  130.1077 C   0  0  0  0  0  0  0  0  0  0  0  0
    8.7857   43.2279  129.9552 N   0  0  0  0  0  0  0  0  0  0  0  0
    9.4269   43.8370  128.9538 C   0  0  0  0  0  0  0  0  0  0  0  0
    9.4926   45.2013  128.6280 C   0  0  0  0  0  0  0  0  0  0  0  0
   10.2973   45.2344  127.5294 C   0  0  0  0  0  0  0  0  0  0  0  0
   10.6832   43.9755  127.2298 N   0  0  0  0  0  0  0  0  0  0  0  0
   10.1550   43.1281  128.1025 N   0  0  0  0  0  0  0  0  0  0  0  0
   10.2909   41.7816  128.1988 C   0  0  0  0  0  0  0  0  0  0  0  0
 24 25  1  0  0  0
 25 26  1  0  0  0
 26 27  2  0  0  0
 27 28  1  0  0  0
 28 29  2  0  0  0
 29 20  1  0  0  0
 20 21  2  0  0  0
 20 22  1  0  0  0
 22  1  1  0  0  0
  1  9  1  0  0  0
  9 10  2  0  0  0
 10 11  1  0  0  0
 11 12  2  0  0  0
 12 16  1  0  0  0
 16 17  1  0  0  0
 16 18  1  0  0  0
 16 19  1  0  0  0
 12 13  1  0  0  0
 13 14  2  0  0  0
 14 15  1  0  0  0
  1  2  1  0  0  0
  2  3  1  0  0  0
  3  4  1  0  0  0
  4  5  1  0  0  0
  5  6  1  0  0  0
  6  7  1  0  0  0
 29 30  1  0  0  0
 30 31  2  0  0  0
 31 32  1  0  0  0
 32 33  1  0  0  0
 33 25  2  0  0  0
 32 28  1  0  0  0
  6  1  1  0  0  0
 14  9  1  0  0  0
 22 23  1  0  0  0
  7  8  1  0  0  0
M  END
> <minimizedAffinity>
7.39917

> <CNNscore>
0.3939716518

> <CNNaffinity>
7.4190230370

> <CNN_VS>
2.9228847027

> <CNNaffinity_variance>
1.2815670967

$$$$
[H]OC1([H])C([H])([H])OC([H])([H])C([H])([H])C1(c1c([H])c([H])c(C(F)(F)F)c([H])c1F)N([H])C(=O)c1c([H])nn2c([H])c(C([H])([H])[H])c([H])nc12


 33 36  0  0  0  0  0  0  0  0999 V2000
    8.7840   47.8451  130.6632 C   0  0  0  0  0  0  0  0  0  0  0  0
    9.8631   48.1759  129.8064 C   0  0  0  0  0  0  0  0  0  0  0  0
   10.1280   49.6339  129.4623 C   0  0  0  0  0  0  0  0  0  0  0  0
    9.3539   50.5794  130.0268 O   0  0  0  0  0  0  0  0  0  0  0  0
    8.9027   50.3230  131.2647 C   0  0  0  0  0  0  0  0  0  0  0  0
    8.6133   48.9687  131.7171 C   0  0  0  0  0  0  0  0  0  0  0  0
    9.4142   48.7046  132.8468 O   0  0  0  0  0  0  0  0  0  0  0  0
    8.9358   48.8540  133.6707 H   0  0  0  0  0  0  0  0  0  0  0  0
    7.4278   47.5083  130.2646 C   0  0  0  0  0  0  0  0  0  0  0  0
    6.8176   46.4703  130.9905 C   0  0  0  0  0  0  0  0  0  0  0  0
    5.4952   46.1257  130.8314 C   0  0  0  0  0  0  0  0  0  0  0  0
    4.6839   46.7675  129.9554 C   0  0  0  0  0  0  0  0  0  0  0  0
    5.2533   47.8059  129.2159 C   0  0  0  0  0  0  0  0  0  0  0  0
    6.5864   48.1270  129.4024 C   0  0  0  0  0  0  0  0  0  0  0  0
    7.0687   49.1040  128.6322 F   0  0  0  0  0  0  0  0  0  0  0  0
    3.2500   46.4260  129.8104 C   0  0  0  0  0  0  0  0  0  0  0  0
    3.0416   45.6622  128.6559 F   0  0  0  0  0  0  0  0  0  0  0  0
    2.8509   45.7385  130.9327 F   0  0  0  0  0  0  0  0  0  0  0  0
    2.4250   47.5481  129.7853 F   0  0  0  0  0  0  0  0  0  0  0  0
   10.0251   45.7286  130.9162 C   0  0  0  0  0  0  0  0  0  0  0  0
   10.4218   45.9066  129.7282 O   0  0  0  0  0  0  0  0  0  0  0  0
    9.1610   46.6948  131.5480 N   0  0  0  0  0  0  0  0  0  0  0  0
    8.8571   46.5494  132.4950 H   0  0  0  0  0  0  0  0  0  0  0  0
   11.7627   43.0587  136.8116 C   0  0  0  0  0  0  0  0  0  0  0  0
   11.3905   43.5096  135.4234 C   0  0  0  0  0  0  0  0  0  0  0  0
   10.8693   44.7614  135.1815 C   0  0  0  0  0  0  0  0  0  0  0  0
   10.5467   45.1470  133.9325 N   0  0  0  0  0  0  0  0  0  0  0  0
   10.7303   44.3149  132.9035 C   0  0  0  0  0  0  0  0  0  0  0  0
   10.4957   44.5156  131.5337 C   0  0  0  0  0  0  0  0  0  0  0  0
   10.8794   43.3398  130.9628 C   0  0  0  0  0  0  0  0  0  0  0  0
   11.3145   42.5037  131.9298 N   0  0  0  0  0  0  0  0  0  0  0  0
   11.2267   43.1030  133.1095 N   0  0  0  0  0  0  0  0  0  0  0  0
   11.5713   42.6520  134.3420 C   0  0  0  0  0  0  0  0  0  0  0  0
 24 25  1  0  0  0
 25 26  1  0  0  0
 26 27  2  0  0  0
 27 28  1  0  0  0
 28 29  2  0  0  0
 29 20  1  0  0  0
 20 21  2  0  0  0
 20 22  1  0  0  0
 22  1  1  0  0  0
  1  9  1  0  0  0
  9 10  2  0  0  0
 10 11  1  0  0  0
 11 12  2  0  0  0
 12 16  1  0  0  0
 16 17  1  0  0  0
 16 18  1  0  0  0
 16 19  1  0  0  0
 12 13  1  0  0  0
 13 14  2  0  0  0
 14 15  1  0  0  0
  1  2  1  0  0  0
  2  3  1  0  0  0
  3  4  1  0  0  0
  4  5  1  0  0  0
  5  6  1  0  0  0
  6  7  1  0  0  0
 29 30  1  0  0  0
 30 31  2  0  0  0
 31 32  1  0  0  0
 32 33  1  0  0  0
 33 25  2  0  0  0
 32 28  1  0  0  0
  6  1  1  0  0  0
 14  9  1  0  0  0
 22 23  1  0  0  0
  7  8  1  0  0  0
M  END
> <minimizedAffinity>
11.05553

> <CNNscore>
0.3898824155

> <CNNaffinity>
7.2067308426

> <CNN_VS>
2.8097777367

> <CNNaffinity_variance>
1.6120449305

$$$$
[H]OC(=O)C([H])([H])C([H])([H])[C@@]([H])(C(=O)N1C([H])([H])C([H])([H])C([H])([H])[C@@]1([H])C(=O)N([H])[C@]([H])(C(=O)OC([H])([H])[H])C([H])([H])c1c([H])c([H])c([H])c([H])c1[H])N([H])C(=O)[C@@]([H])(N([H])C(=O)OC([H])([H])c1c([H])c([H])c([H])c([H])c1[H])[C@@]([H])(C([H])([H])[H])C([H])([H])C([H])([H])[H]


 51 53  0  0  0  0  0  0  0  0999 V2000
    9.4708   45.4569  128.7523 C   0  0  0  0  0  0  0  0  0  0  0  0
   10.4368   45.6933  129.7874 C   0  0  0  0  0  0  0  0  0  0  0  0
   10.4888   47.0241  130.0666 O   0  0  0  0  0  0  0  0  0  0  0  0
   11.3307   45.0043  130.5794 N   0  0  0  0  0  0  0  0  0  0  0  0
   12.1605   45.6900  131.6110 C   0  0  0  0  0  0  0  0  0  0  0  0
   13.5401   45.2242  131.1945 C   0  0  0  0  0  0  0  0  0  0  0  0
   13.3068   43.8041  130.8048 C   0  0  0  0  0  0  0  0  0  0  0  0
   11.7694   43.6614  130.6563 C   0  0  0  0  0  0  0  0  0  0  0  0
   11.3489   42.9043  131.8471 C   0  0  0  0  0  0  0  0  0  0  0  0
   12.1540   42.1678  132.4411 O   0  0  0  0  0  0  0  0  0  0  0  0
   10.0172   43.0157  132.3152 N   0  0  0  0  0  0  0  0  0  0  0  0
    9.3103   43.6298  131.8564 H   0  0  0  0  0  0  0  0  0  0  0  0
    9.6011   42.2342  133.4968 C   0  0  0  0  0  0  0  0  0  0  0  0
    8.1814   41.8744  133.3984 C   0  0  0  0  0  0  0  0  0  0  0  0
    7.5129   42.2337  132.3580 O   0  0  0  0  0  0  0  0  0  0  0  0
    7.4803   41.1719  134.3280 O   0  0  0  0  0  0  0  0  0  0  0  0
    6.0478   41.0753  134.2973 C   0  0  0  0  0  0  0  0  0  0  0  0
    9.8682   43.0558  134.7161 C   0  0  0  0  0  0  0  0  0  0  0  0
    9.6081   44.4858  134.6113 C   0  0  0  0  0  0  0  0  0  0  0  0
   10.6901   45.3390  134.8164 C   0  0  0  0  0  0  0  0  0  0  0  0
   10.4882   46.6845  134.7040 C   0  0  0  0  0  0  0  0  0  0  0  0
    9.2576   47.2253  134.3955 C   0  0  0  0  0  0  0  0  0  0  0  0
    8.1876   46.3349  134.1936 C   0  0  0  0  0  0  0  0  0  0  0  0
    8.3722   44.9939  134.3031 C   0  0  0  0  0  0  0  0  0  0  0  0
    7.4357   46.4840  129.8833 C   0  0  0  0  0  0  0  0  0  0  0  0
    7.3301   45.3597  130.4994 O   0  0  0  0  0  0  0  0  0  0  0  0
    8.4927   46.6160  128.9814 N   0  0  0  0  0  0  0  0  0  0  0  0
    8.6539   47.4831  128.4372 H   0  0  0  0  0  0  0  0  0  0  0  0
    6.4294   47.4760  130.2023 C   0  0  0  0  0  0  0  0  0  0  0  0
    6.8883   48.8260  129.9996 N   0  0  0  0  0  0  0  0  0  0  0  0
    6.1623   49.9889  129.7157 C   0  0  0  0  0  0  0  0  0  0  0  0
    4.9334   50.1178  129.5643 O   0  0  0  0  0  0  0  0  0  0  0  0
    7.9616   48.9778  130.0769 H   0  0  0  0  0  0  0  0  0  0  0  0
    6.8692   51.2141  129.5663 O   0  0  0  0  0  0  0  0  0  0  0  0
    7.7032   51.7178  130.5773 C   0  0  0  0  0  0  0  0  0  0  0  0
    8.7018   50.7796  131.0754 C   0  0  0  0  0  0  0  0  0  0  0  0
    9.4153   49.9920  130.1776 C   0  0  0  0  0  0  0  0  0  0  0  0
   10.3646   49.0852  130.5724 C   0  0  0  0  0  0  0  0  0  0  0  0
   10.6438   48.9283  131.9269 C   0  0  0  0  0  0  0  0  0  0  0  0
    9.9399   49.7069  132.8273 C   0  0  0  0  0  0  0  0  0  0  0  0
    8.9865   50.6163  132.4117 C   0  0  0  0  0  0  0  0  0  0  0  0
    5.0893   47.3124  129.5202 C   0  0  0  0  0  0  0  0  0  0  0  0
    5.1868   46.6793  128.1397 C   0  0  0  0  0  0  0  0  0  0  0  0
    2.8759   46.1441  129.8208 C   0  0  0  0  0  0  0  0  0  0  0  0
    4.2857   46.3198  130.3512 C   0  0  0  0  0  0  0  0  0  0  0  0
    9.7129   45.3372  127.3295 C   0  0  0  0  0  0  0  0  0  0  0  0
    9.9410   43.9931  126.7181 C   0  0  0  0  0  0  0  0  0  0  0  0
    9.5909   42.8928  127.6900 C   0  0  0  0  0  0  0  0  0  0  0  0
    8.6884   43.0716  128.5356 O   0  0  0  0  0  0  0  0  0  0  0  0
   10.2425   41.6629  127.6827 O   0  0  0  0  0  0  0  0  0  0  0  0
    9.8181   40.8135  127.9733 H   0  0  0  0  0  0  0  0  0  0  0  0
 44 45  1  0  0  0
 45 42  1  0  0  0
 42 43  1  0  0  0
 42 29  1  0  0  0
 29 30  1  0  0  0
 30 31  1  0  0  0
 31 32  2  0  0  0
 31 34  1  0  0  0
 34 35  1  0  0  0
 35 36  1  0  0  0
 36 37  2  0  0  0
 37 38  1  0  0  0
 38 39  2  0  0  0
 39 40  1  0  0  0
 40 41  2  0  0  0
 29 25  1  0  0  0
 25 26  2  0  0  0
 25 27  1  0  0  0
 27  1  1  0  0  0
  1 46  1  0  0  0
 46 47  1  0  0  0
 47 48  1  0  0  0
 48 49  2  0  0  0
 48 50  1  0  0  0
  1  2  1  0  0  0
  2  3  2  0  0  0
  2  4  1  0  0  0
  4  5  1  0  0  0
  5  6  1  0  0  0
  6  7  1  0  0  0
  7  8  1  0  0  0
  8  9  1  0  0  0
  9 10  2  0  0  0
  9 11  1  0  0  0
 11 13  1  0  0  0
 13 18  1  0  0  0
 18 19  1  0  0  0
 19 20  2  0  0  0
 20 21  1  0  0  0
 21 22  2  0  0  0
 22 23  1  0  0  0
 23 24  2  0  0  0
 13 14  1  0  0  0
 14 15  2  0  0  0
 14 16  1  0  0  0
 16 17  1  0  0  0
 41 36  1  0  0  0
  8  4  1  0  0  0
 24 19  1  0  0  0
 30 33  1  0  0  0
 27 28  1  0  0  0
 50 51  1  0  0  0
 11 12  1  0  0  0
M  END
> <minimizedAffinity>
9.95523

> <CNNscore>
0.4716853797

> <CNNaffinity>
7.9845619202

> <CNN_VS>
3.7662010193

> <CNNaffinity_variance>
0.5908347368

$$$$
[H]OC(=O)C([H])([H])C([H])([H])[C@@]([H])(C(=O)N1C([H])([H])C([H])([H])C([H])([H])[C@@]1([H])C(=O)N([H])[C@]([H])(C(=O)OC([H])([H])[H])C([H])([H])c1c([H])c([H])c([H])c([H])c1[H])N([H])C(=O)[C@@]([H])(N([H])C(=O)OC([H])([H])c1c([H])c([H])c([H])c([H])c1[H])[C@@]([H])(C([H])([H])[H])C([H])([H])C([H])([H])[H]


 51 53  0  0  0  0  0  0  0  0999 V2000
   10.1051   44.4318  127.9121 C   0  0  0  0  0  0  0  0  0  0  0  0
    9.8248   43.2904  128.7362 C   0  0  0  0  0  0  0  0  0  0  0  0
   10.2202   42.1573  128.0947 O   0  0  0  0  0  0  0  0  0  0  0  0
    9.2771   42.9780  129.9624 N   0  0  0  0  0  0  0  0  0  0  0  0
    9.2152   41.5751  130.4634 C   0  0  0  0  0  0  0  0  0  0  0  0
    7.7368   41.4693  130.7745 C   0  0  0  0  0  0  0  0  0  0  0  0
    7.4230   42.8078  131.3514 C   0  0  0  0  0  0  0  0  0  0  0  0
    8.6287   43.7116  130.9837 C   0  0  0  0  0  0  0  0  0  0  0  0
    9.3719   43.8723  132.2446 C   0  0  0  0  0  0  0  0  0  0  0  0
    9.7691   42.8764  132.8722 O   0  0  0  0  0  0  0  0  0  0  0  0
    9.6323   45.1711  132.7449 N   0  0  0  0  0  0  0  0  0  0  0  0
    9.3288   46.0358  132.2473 H   0  0  0  0  0  0  0  0  0  0  0  0
   10.3587   45.3192  134.0217 C   0  0  0  0  0  0  0  0  0  0  0  0
    9.4143   45.3810  135.1438 C   0  0  0  0  0  0  0  0  0  0  0  0
    8.1918   45.0222  134.9563 O   0  0  0  0  0  0  0  0  0  0  0  0
    9.7150   45.7903  136.4052 O   0  0  0  0  0  0  0  0  0  0  0  0
    9.4966   47.1393  136.8468 C   0  0  0  0  0  0  0  0  0  0  0  0
   11.1891   46.5592  133.9440 C   0  0  0  0  0  0  0  0  0  0  0  0
   10.4868   47.7986  133.6373 C   0  0  0  0  0  0  0  0  0  0  0  0
   11.2229   48.9779  133.7272 C   0  0  0  0  0  0  0  0  0  0  0  0
   10.6033   50.1563  133.4252 C   0  0  0  0  0  0  0  0  0  0  0  0
    9.2818   50.2194  133.0359 C   0  0  0  0  0  0  0  0  0  0  0  0
    8.5688   49.0097  132.9545 C   0  0  0  0  0  0  0  0  0  0  0  0
    9.1708   47.8294  133.2528 C   0  0  0  0  0  0  0  0  0  0  0  0
    9.0924   46.6853  128.5220 C   0  0  0  0  0  0  0  0  0  0  0  0
   10.3019   47.1232  128.5140 O   0  0  0  0  0  0  0  0  0  0  0  0
    8.9053   45.3339  128.2272 N   0  0  0  0  0  0  0  0  0  0  0  0
    7.9677   44.8925  128.2142 H   0  0  0  0  0  0  0  0  0  0  0  0
    8.0702   47.6590  128.8464 C   0  0  0  0  0  0  0  0  0  0  0  0
    6.7810   47.0619  129.0824 N   0  0  0  0  0  0  0  0  0  0  0  0
    6.2770   46.4360  130.2288 C   0  0  0  0  0  0  0  0  0  0  0  0
    6.8440   46.2449  131.3204 O   0  0  0  0  0  0  0  0  0  0  0  0
    6.0836   47.0967  128.2498 H   0  0  0  0  0  0  0  0  0  0  0  0
    4.9484   45.9288  130.1998 O   0  0  0  0  0  0  0  0  0  0  0  0
    3.8527   46.7371  129.8570 C   0  0  0  0  0  0  0  0  0  0  0  0
    2.5546   46.0773  129.9297 C   0  0  0  0  0  0  0  0  0  0  0  0
    2.1217   45.5403  131.1379 C   0  0  0  0  0  0  0  0  0  0  0  0
    0.9172   44.9015  131.2807 C   0  0  0  0  0  0  0  0  0  0  0  0
    0.0731   44.7727  130.1815 C   0  0  0  0  0  0  0  0  0  0  0  0
    0.4945   45.3036  128.9761 C   0  0  0  0  0  0  0  0  0  0  0  0
    1.7119   45.9444  128.8502 C   0  0  0  0  0  0  0  0  0  0  0  0
    8.3831   48.6024  129.9866 C   0  0  0  0  0  0  0  0  0  0  0  0
    9.6034   49.4754  129.7315 C   0  0  0  0  0  0  0  0  0  0  0  0
    7.2943   50.6687  129.0385 C   0  0  0  0  0  0  0  0  0  0  0  0
    7.2173   49.5780  130.0892 C   0  0  0  0  0  0  0  0  0  0  0  0
   11.3022   45.2467  127.9106 C   0  0  0  0  0  0  0  0  0  0  0  0
   12.4997   44.8217  128.6966 C   0  0  0  0  0  0  0  0  0  0  0  0
   12.2105   44.8517  130.1776 C   0  0  0  0  0  0  0  0  0  0  0  0
   12.6210   43.9277  130.9119 O   0  0  0  0  0  0  0  0  0  0  0  0
   11.4931   45.8860  130.7715 O   0  0  0  0  0  0  0  0  0  0  0  0
   11.6214   46.1750  131.7129 H   0  0  0  0  0  0  0  0  0  0  0  0
 44 45  1  0  0  0
 45 42  1  0  0  0
 42 43  1  0  0  0
 42 29  1  0  0  0
 29 30  1  0  0  0
 30 31  1  0  0  0
 31 32  2  0  0  0
 31 34  1  0  0  0
 34 35  1  0  0  0
 35 36  1  0  0  0
 36 37  2  0  0  0
 37 38  1  0  0  0
 38 39  2  0  0  0
 39 40  1  0  0  0
 40 41  2  0  0  0
 29 25  1  0  0  0
 25 26  2  0  0  0
 25 27  1  0  0  0
 27  1  1  0  0  0
  1 46  1  0  0  0
 46 47  1  0  0  0
 47 48  1  0  0  0
 48 49  2  0  0  0
 48 50  1  0  0  0
  1  2  1  0  0  0
  2  3  2  0  0  0
  2  4  1  0  0  0
  4  5  1  0  0  0
  5  6  1  0  0  0
  6  7  1  0  0  0
  7  8  1  0  0  0
  8  9  1  0  0  0
  9 10  2  0  0  0
  9 11  1  0  0  0
 11 13  1  0  0  0
 13 18  1  0  0  0
 18 19  1  0  0  0
 19 20  2  0  0  0
 20 21  1  0  0  0
 21 22  2  0  0  0
 22 23  1  0  0  0
 23 24  2  0  0  0
 13 14  1  0  0  0
 14 15  2  0  0  0
 14 16  1  0  0  0
 16 17  1  0  0  0
 41 36  1  0  0  0
  8  4  1  0  0  0
 24 19  1  0  0  0
 30 33  1  0  0  0
 27 28  1  0  0  0
 50 51  1  0  0  0
 11 12  1  0  0  0
M  END
> <minimizedAffinity>
12.55688

> <CNNscore>
0.4690490663

> <CNNaffinity>
7.6335840225

> <CNN_VS>
3.5805253983

> <CNNaffinity_variance>
0.3897641301

$$$$
[H]OC(=O)C([H])([H])C([H])([H])[C@@]([H])(C(=O)N1C([H])([H])C([H])([H])C([H])([H])[C@@]1([H])C(=O)N([H])[C@]([H])(C(=O)OC([H])([H])[H])C([H])([H])c1c([H])c([H])c([H])c([H])c1[H])N([H])C(=O)[C@@]([H])(N([H])C(=O)OC([H])([H])c1c([H])c([H])c([H])c([H])c1[H])[C@@]([H])(C([H])([H])[H])C([H])([H])C([H])([H])[H]


 51 53  0  0  0  0  0  0  0  0999 V2000
    8.6051   44.4165  129.8027 C   0  0  0  0  0  0  0  0  0  0  0  0
    9.8070   45.0932  129.4054 C   0  0  0  0  0  0  0  0  0  0  0  0
    9.4892   46.1861  128.6598 O   0  0  0  0  0  0  0  0  0  0  0  0
   11.1756   44.9835  129.5320 N   0  0  0  0  0  0  0  0  0  0  0  0
   12.1044   45.9940  128.9494 C   0  0  0  0  0  0  0  0  0  0  0  0
   13.0019   45.0890  128.1314 C   0  0  0  0  0  0  0  0  0  0  0  0
   13.1619   43.8969  129.0124 C   0  0  0  0  0  0  0  0  0  0  0  0
   12.0543   44.0256  130.0906 C   0  0  0  0  0  0  0  0  0  0  0  0
   12.7694   44.4296  131.3127 C   0  0  0  0  0  0  0  0  0  0  0  0
   14.0082   44.3567  131.3700 O   0  0  0  0  0  0  0  0  0  0  0  0
   12.0383   44.9017  132.4297 N   0  0  0  0  0  0  0  0  0  0  0  0
   10.9993   44.9911  132.4237 H   0  0  0  0  0  0  0  0  0  0  0  0
   12.7645   45.2827  133.6574 C   0  0  0  0  0  0  0  0  0  0  0  0
   12.8822   44.1315  134.5605 C   0  0  0  0  0  0  0  0  0  0  0  0
   14.0410   43.8108  135.0217 O   0  0  0  0  0  0  0  0  0  0  0  0
   11.8521   43.3464  134.9747 O   0  0  0  0  0  0  0  0  0  0  0  0
   11.3314   43.4056  136.3118 C   0  0  0  0  0  0  0  0  0  0  0  0
   12.0242   46.4068  134.3066 C   0  0  0  0  0  0  0  0  0  0  0  0
   10.5828   46.2457  134.4475 C   0  0  0  0  0  0  0  0  0  0  0  0
    9.9446   45.4406  133.5066 C   0  0  0  0  0  0  0  0  0  0  0  0
    8.5977   45.2490  133.6207 C   0  0  0  0  0  0  0  0  0  0  0  0
    7.8514   45.8210  134.6296 C   0  0  0  0  0  0  0  0  0  0  0  0
    8.5280   46.6269  135.5629 C   0  0  0  0  0  0  0  0  0  0  0  0
    9.8673   46.8280  135.4621 C   0  0  0  0  0  0  0  0  0  0  0  0
    6.9456   46.2398  130.4331 C   0  0  0  0  0  0  0  0  0  0  0  0
    7.3359   46.0436  131.6429 O   0  0  0  0  0  0  0  0  0  0  0  0
    7.5385   45.4576  129.4407 N   0  0  0  0  0  0  0  0  0  0  0  0
    7.2841   45.5431  128.4397 H   0  0  0  0  0  0  0  0  0  0  0  0
    5.9251   47.2524  130.2549 C   0  0  0  0  0  0  0  0  0  0  0  0
    6.4709   48.5593  129.9941 N   0  0  0  0  0  0  0  0  0  0  0  0
    7.2359   49.0144  128.9135 C   0  0  0  0  0  0  0  0  0  0  0  0
    7.6300   48.3767  127.9197 O   0  0  0  0  0  0  0  0  0  0  0  0
    6.2633   49.3175  130.7445 H   0  0  0  0  0  0  0  0  0  0  0  0
    7.6492   50.3754  128.8965 O   0  0  0  0  0  0  0  0  0  0  0  0
    8.1565   51.0113  130.0408 C   0  0  0  0  0  0  0  0  0  0  0  0
    8.9949   50.1735  130.8897 C   0  0  0  0  0  0  0  0  0  0  0  0
    9.0783   50.4393  132.2527 C   0  0  0  0  0  0  0  0  0  0  0  0
    9.8494   49.6988  133.1108 C   0  0  0  0  0  0  0  0  0  0  0  0
   10.5907   48.6284  132.6188 C   0  0  0  0  0  0  0  0  0  0  0  0
   10.5142   48.3560  131.2652 C   0  0  0  0  0  0  0  0  0  0  0  0
    9.7316   49.1128  130.4147 C   0  0  0  0  0  0  0  0  0  0  0  0
    4.8623   46.9559  129.2202 C   0  0  0  0  0  0  0  0  0  0  0  0
    3.5333   46.5261  129.8245 C   0  0  0  0  0  0  0  0  0  0  0  0
    4.2332   49.3835  129.4748 C   0  0  0  0  0  0  0  0  0  0  0  0
    4.5619   48.2664  128.5034 C   0  0  0  0  0  0  0  0  0  0  0  0
    8.1401   43.1154  129.3690 C   0  0  0  0  0  0  0  0  0  0  0  0
    8.2610   41.9349  130.2769 C   0  0  0  0  0  0  0  0  0  0  0  0
    8.8156   42.3427  131.6200 C   0  0  0  0  0  0  0  0  0  0  0  0
    8.0379   42.6027  132.5629 O   0  0  0  0  0  0  0  0  0  0  0  0
   10.1834   42.4419  131.8575 O   0  0  0  0  0  0  0  0  0  0  0  0
   10.5997   42.2950  132.7470 H   0  0  0  0  0  0  0  0  0  0  0  0
 44 45  1  0  0  0
 45 42  1  0  0  0
 42 43  1  0  0  0
 42 29  1  0  0  0
 29 30  1  0  0  0
 30 31  1  0  0  0
 31 32  2  0  0  0
 31 34  1  0  0  0
 34 35  1  0  0  0
 35 36  1  0  0  0
 36 37  2  0  0  0
 37 38  1  0  0  0
 38 39  2  0  0  0
 39 40  1  0  0  0
 40 41  2  0  0  0
 29 25  1  0  0  0
 25 26  2  0  0  0
 25 27  1  0  0  0
 27  1  1  0  0  0
  1 46  1  0  0  0
 46 47  1  0  0  0
 47 48  1  0  0  0
 48 49  2  0  0  0
 48 50  1  0  0  0
  1  2  1  0  0  0
  2  3  2  0  0  0
  2  4  1  0  0  0
  4  5  1  0  0  0
  5  6  1  0  0  0
  6  7  1  0  0  0
  7  8  1  0  0  0
  8  9  1  0  0  0
  9 10  2  0  0  0
  9 11  1  0  0  0
 11 13  1  0  0  0
 13 18  1  0  0  0
 18 19  1  0  0  0
 19 20  2  0  0  0
 20 21  1  0  0  0
 21 22  2  0  0  0
 22 23  1  0  0  0
 23 24  2  0  0  0
 13 14  1  0  0  0
 14 15  2  0  0  0
 14 16  1  0  0  0
 16 17  1  0  0  0
 41 36  1  0  0  0
  8  4  1  0  0  0
 24 19  1  0  0  0
 30 33  1  0  0  0
 27 28  1  0  0  0
 50 51  1  0  0  0
 11 12  1  0  0  0
M  END
> <minimizedAffinity>
7.56306

> <CNNscore>
0.4376836419

> <CNNaffinity>
7.6423354149

> <CNN_VS>
3.3449251652

> <CNNaffinity_variance>
0.4830964208

$$$$
[H]OC(=O)C([H])([H])C([H])([H])[C@@]([H])(C(=O)N1C([H])([H])C([H])([H])C([H])([H])[C@@]1([H])C(=O)N([H])[C@]([H])(C(=O)OC([H])([H])[H])C([H])([H])c1c([H])c([H])c([H])c([H])c1[H])N([H])C(=O)[C@@]([H])(N([H])C(=O)OC([H])([H])c1c([H])c([H])c([H])c([H])c1[H])[C@@]([H])(C([H])([H])[H])C([H])([H])C([H])([H])[H]


 51 53  0  0  0  0  0  0  0  0999 V2000
    9.7000   46.6728  129.0851 C   0  0  0  0  0  0  0  0  0  0  0  0
   10.5254   46.6186  130.2582 C   0  0  0  0  0  0  0  0  0  0  0  0
   10.7103   47.8763  130.7436 O   0  0  0  0  0  0  0  0  0  0  0  0
   11.1941   45.7018  131.0414 N   0  0  0  0  0  0  0  0  0  0  0  0
   11.9456   46.1087  132.2632 C   0  0  0  0  0  0  0  0  0  0  0  0
   13.2981   45.4993  131.9581 C   0  0  0  0  0  0  0  0  0  0  0  0
   12.9400   44.1965  131.3278 C   0  0  0  0  0  0  0  0  0  0  0  0
   11.4361   44.3099  130.9654 C   0  0  0  0  0  0  0  0  0  0  0  0
   10.7486   43.4722  131.9621 C   0  0  0  0  0  0  0  0  0  0  0  0
   11.3961   42.7020  132.6909 O   0  0  0  0  0  0  0  0  0  0  0  0
    9.3401   43.5443  132.0877 N   0  0  0  0  0  0  0  0  0  0  0  0
    8.7566   44.1839  131.5063 H   0  0  0  0  0  0  0  0  0  0  0  0
    8.6596   42.6830  133.0751 C   0  0  0  0  0  0  0  0  0  0  0  0
    7.5219   41.9934  132.4550 C   0  0  0  0  0  0  0  0  0  0  0  0
    7.5140   41.8166  131.1794 O   0  0  0  0  0  0  0  0  0  0  0  0
    6.4408   41.5032  133.1183 O   0  0  0  0  0  0  0  0  0  0  0  0
    6.5587   40.8036  134.3669 C   0  0  0  0  0  0  0  0  0  0  0  0
    8.2164   43.5417  134.2150 C   0  0  0  0  0  0  0  0  0  0  0  0
    8.5993   44.9468  134.1630 C   0  0  0  0  0  0  0  0  0  0  0  0
    7.9968   45.7272  133.1788 C   0  0  0  0  0  0  0  0  0  0  0  0
    8.3149   47.0533  133.1145 C   0  0  0  0  0  0  0  0  0  0  0  0
    9.2063   47.6438  133.9855 C   0  0  0  0  0  0  0  0  0  0  0  0
    9.7950   46.8268  134.9675 C   0  0  0  0  0  0  0  0  0  0  0  0
    9.4897   45.5057  135.0435 C   0  0  0  0  0  0  0  0  0  0  0  0
    7.8710   48.3230  129.7234 C   0  0  0  0  0  0  0  0  0  0  0  0
    7.2189   47.2936  130.1356 O   0  0  0  0  0  0  0  0  0  0  0  0
    9.1357   48.0960  129.1782 N   0  0  0  0  0  0  0  0  0  0  0  0
    9.7311   48.8635  128.8170 H   0  0  0  0  0  0  0  0  0  0  0  0
    7.1992   49.5976  129.8726 C   0  0  0  0  0  0  0  0  0  0  0  0
    7.3428   50.4462  128.7179 N   0  0  0  0  0  0  0  0  0  0  0  0
    7.2033   51.8342  128.5998 C   0  0  0  0  0  0  0  0  0  0  0  0
    6.9107   52.6618  129.4826 O   0  0  0  0  0  0  0  0  0  0  0  0
    7.5990   49.9429  127.7895 H   0  0  0  0  0  0  0  0  0  0  0  0
    7.4078   52.4337  127.3262 O   0  0  0  0  0  0  0  0  0  0  0  0
    7.2157   53.8081  127.1134 C   0  0  0  0  0  0  0  0  0  0  0  0
    7.7514   54.3169  125.8565 C   0  0  0  0  0  0  0  0  0  0  0  0
    8.2721   55.6059  125.8013 C   0  0  0  0  0  0  0  0  0  0  0  0
    8.7874   56.1532  124.6549 C   0  0  0  0  0  0  0  0  0  0  0  0
    8.8007   55.4044  123.4816 C   0  0  0  0  0  0  0  0  0  0  0  0
    8.2855   54.1218  123.5265 C   0  0  0  0  0  0  0  0  0  0  0  0
    7.7702   53.5859  124.6909 C   0  0  0  0  0  0  0  0  0  0  0  0
    5.7365   49.5420  130.2540 C   0  0  0  0  0  0  0  0  0  0  0  0
    5.1449   50.9053  130.5820 C   0  0  0  0  0  0  0  0  0  0  0  0
    4.7933   47.5636  129.0088 C   0  0  0  0  0  0  0  0  0  0  0  0
    4.9737   49.0692  129.0226 C   0  0  0  0  0  0  0  0  0  0  0  0
   10.0971   46.4270  127.7143 C   0  0  0  0  0  0  0  0  0  0  0  0
   10.4894   45.0515  127.2823 C   0  0  0  0  0  0  0  0  0  0  0  0
    9.6826   44.0065  128.0138 C   0  0  0  0  0  0  0  0  0  0  0  0
   10.0944   42.8281  128.0709 O   0  0  0  0  0  0  0  0  0  0  0  0
    8.4767   44.3064  128.6407 O   0  0  0  0  0  0  0  0  0  0  0  0
    8.1344   43.8207  129.4363 H   0  0  0  0  0  0  0  0  0  0  0  0
 44 45  1  0  0  0
 45 42  1  0  0  0
 42 43  1  0  0  0
 42 29  1  0  0  0
 29 30  1  0  0  0
 30 31  1  0  0  0
 31 32  2  0  0  0
 31 34  1  0  0  0
 34 35  1  0  0  0
 35 36  1  0  0  0
 36 37  2  0  0  0
 37 38  1  0  0  0
 38 39  2  0  0  0
 39 40  1  0  0  0
 40 41  2  0  0  0
 29 25  1  0  0  0
 25 26  2  0  0  0
 25 27  1  0  0  0
 27  1  1  0  0  0
  1 46  1  0  0  0
 46 47  1  0  0  0
 47 48  1  0  0  0
 48 49  2  0  0  0
 48 50  1  0  0  0
  1  2  1  0  0  0
  2  3  2  0  0  0
  2  4  1  0  0  0
  4  5  1  0  0  0
  5  6  1  0  0  0
  6  7  1  0  0  0
  7  8  1  0  0  0
  8  9  1  0  0  0
  9 10  2  0  0  0
  9 11  1  0  0  0
 11 13  1  0  0  0
 13 18  1  0  0  0
 18 19  1  0  0  0
 19 20  2  0  0  0
 20 21  1  0  0  0
 21 22  2  0  0  0
 22 23  1  0  0  0
 23 24  2  0  0  0
 13 14  1  0  0  0
 14 15  2  0  0  0
 14 16  1  0  0  0
 16 17  1  0  0  0
 41 36  1  0  0  0
  8  4  1  0  0  0
 24 19  1  0  0  0
 30 33  1  0  0  0
 27 28  1  0  0  0
 50 51  1  0  0  0
 11 12  1  0  0  0
M  END
> <minimizedAffinity>
2.28225

> <CNNscore>
0.3957294822

> <CNNaffinity>
7.6972656250

> <CNN_VS>
3.0460350513

> <CNNaffinity_variance>
0.2703654170

$$$$
[H]OC(=O)C([H])([H])C([H])([H])[C@@]([H])(C(=O)N1C([H])([H])C([H])([H])C([H])([H])[C@@]1([H])C(=O)N([H])[C@]([H])(C(=O)OC([H])([H])[H])C([H])([H])c1c([H])c([H])c([H])c([H])c1[H])N([H])C(=O)[C@@]([H])(N([H])C(=O)OC([H])([H])c1c([H])c([H])c([H])c([H])c1[H])[C@@]([H])(C([H])([H])[H])C([H])([H])C([H])([H])[H]


 51 53  0  0  0  0  0  0  0  0999 V2000
    7.9847   46.9543  128.6259 C   0  0  0  0  0  0  0  0  0  0  0  0
    8.0077   46.7270  130.0430 C   0  0  0  0  0  0  0  0  0  0  0  0
    6.7555   46.4149  130.4746 O   0  0  0  0  0  0  0  0  0  0  0  0
    8.8900   46.7323  131.1025 N   0  0  0  0  0  0  0  0  0  0  0  0
    8.4616   46.3801  132.4865 C   0  0  0  0  0  0  0  0  0  0  0  0
    8.9443   47.6057  133.2338 C   0  0  0  0  0  0  0  0  0  0  0  0
   10.2513   47.8996  132.5792 C   0  0  0  0  0  0  0  0  0  0  0  0
   10.2533   47.0736  131.2664 C   0  0  0  0  0  0  0  0  0  0  0  0
   11.1784   45.9587  131.5294 C   0  0  0  0  0  0  0  0  0  0  0  0
   12.4042   46.1557  131.5753 O   0  0  0  0  0  0  0  0  0  0  0  0
   10.6660   44.6538  131.7285 N   0  0  0  0  0  0  0  0  0  0  0  0
    9.6449   44.4427  131.7105 H   0  0  0  0  0  0  0  0  0  0  0  0
   11.6048   43.5399  131.9690 C   0  0  0  0  0  0  0  0  0  0  0  0
   11.0547   42.2844  131.4439 C   0  0  0  0  0  0  0  0  0  0  0  0
   11.2960   41.1836  132.0672 O   0  0  0  0  0  0  0  0  0  0  0  0
   10.2864   42.1664  130.3282 O   0  0  0  0  0  0  0  0  0  0  0  0
    8.8964   42.5272  130.3118 C   0  0  0  0  0  0  0  0  0  0  0  0
   11.8527   43.4492  133.4398 C   0  0  0  0  0  0  0  0  0  0  0  0
   11.2234   44.4656  134.2732 C   0  0  0  0  0  0  0  0  0  0  0  0
    9.9503   44.1795  134.7612 C   0  0  0  0  0  0  0  0  0  0  0  0
    9.3392   45.0993  135.5638 C   0  0  0  0  0  0  0  0  0  0  0  0
    9.9352   46.2948  135.9067 C   0  0  0  0  0  0  0  0  0  0  0  0
   11.2211   46.5506  135.3974 C   0  0  0  0  0  0  0  0  0  0  0  0
   11.8417   45.6460  134.5968 C   0  0  0  0  0  0  0  0  0  0  0  0
    7.7455   49.4482  129.0723 C   0  0  0  0  0  0  0  0  0  0  0  0
    8.9067   49.3642  129.6193 O   0  0  0  0  0  0  0  0  0  0  0  0
    7.2069   48.2738  128.5441 N   0  0  0  0  0  0  0  0  0  0  0  0
    6.2765   48.2448  128.0887 H   0  0  0  0  0  0  0  0  0  0  0  0
    7.1365   50.7625  129.0814 C   0  0  0  0  0  0  0  0  0  0  0  0
    7.3111   51.4704  127.8394 N   0  0  0  0  0  0  0  0  0  0  0  0
    7.2533   52.8434  127.5718 C   0  0  0  0  0  0  0  0  0  0  0  0
    7.0263   53.7782  128.3620 O   0  0  0  0  0  0  0  0  0  0  0  0
    7.5206   50.8546  126.9688 H   0  0  0  0  0  0  0  0  0  0  0  0
    7.4716   53.2875  126.2383 O   0  0  0  0  0  0  0  0  0  0  0  0
    7.5439   54.6513  125.9127 C   0  0  0  0  0  0  0  0  0  0  0  0
    7.8158   54.9352  124.5087 C   0  0  0  0  0  0  0  0  0  0  0  0
    8.6703   55.9795  124.1701 C   0  0  0  0  0  0  0  0  0  0  0  0
    8.9682   56.3082  122.8730 C   0  0  0  0  0  0  0  0  0  0  0  0
    8.4021   55.5783  121.8317 C   0  0  0  0  0  0  0  0  0  0  0  0
    7.5516   54.5379  122.1582 C   0  0  0  0  0  0  0  0  0  0  0  0
    7.2625   54.2203  123.4712 C   0  0  0  0  0  0  0  0  0  0  0  0
    5.6760   50.8200  129.4706 C   0  0  0  0  0  0  0  0  0  0  0  0
    4.8740   49.6198  128.9885 C   0  0  0  0  0  0  0  0  0  0  0  0
    6.7859   49.9688  131.5676 C   0  0  0  0  0  0  0  0  0  0  0  0
    5.6179   50.7455  130.9914 C   0  0  0  0  0  0  0  0  0  0  0  0
    9.1168   47.0342  127.7262 C   0  0  0  0  0  0  0  0  0  0  0  0
   10.4814   46.6558  128.2027 C   0  0  0  0  0  0  0  0  0  0  0  0
   10.6650   45.1579  128.1768 C   0  0  0  0  0  0  0  0  0  0  0  0
    9.8132   44.4349  127.6171 O   0  0  0  0  0  0  0  0  0  0  0  0
   11.7652   44.5362  128.7601 O   0  0  0  0  0  0  0  0  0  0  0  0
   12.1455   43.6766  128.4398 H   0  0  0  0  0  0  0  0  0  0  0  0
 44 45  1  0  0  0
 45 42  1  0  0  0
 42 43  1  0  0  0
 42 29  1  0  0  0
 29 30  1  0  0  0
 30 31  1  0  0  0
 31 32  2  0  0  0
 31 34  1  0  0  0
 34 35  1  0  0  0
 35 36  1  0  0  0
 36 37  2  0  0  0
 37 38  1  0  0  0
 38 39  2  0  0  0
 39 40  1  0  0  0
 40 41  2  0  0  0
 29 25  1  0  0  0
 25 26  2  0  0  0
 25 27  1  0  0  0
 27  1  1  0  0  0
  1 46  1  0  0  0
 46 47  1  0  0  0
 47 48  1  0  0  0
 48 49  2  0  0  0
 48 50  1  0  0  0
  1  2  1  0  0  0
  2  3  2  0  0  0
  2  4  1  0  0  0
  4  5  1  0  0  0
  5  6  1  0  0  0
  6  7  1  0  0  0
  7  8  1  0  0  0
  8  9  1  0  0  0
  9 10  2  0  0  0
  9 11  1  0  0  0
 11 13  1  0  0  0
 13 18  1  0  0  0
 18 19  1  0  0  0
 19 20  2  0  0  0
 20 21  1  0  0  0
 21 22  2  0  0  0
 22 23  1  0  0  0
 23 24  2  0  0  0
 13 14  1  0  0  0
 14 15  2  0  0  0
 14 16  1  0  0  0
 16 17  1  0  0  0
 41 36  1  0  0  0
  8  4  1  0  0  0
 24 19  1  0  0  0
 30 33  1  0  0  0
 27 28  1  0  0  0
 50 51  1  0  0  0
 11 12  1  0  0  0
M  END
> <minimizedAffinity>
1.22436

> <CNNscore>
0.3630393147

> <CNNaffinity>
7.5247168541

> <CNN_VS>
2.7317681313

> <CNNaffinity_variance>
0.2474417686

$$$$
[H]OC(=O)C([H])([H])C([H])([H])[C@@]([H])(C(=O)N1C([H])([H])C([H])([H])C([H])([H])[C@@]1([H])C(=O)N([H])[C@]([H])(C(=O)OC([H])([H])[H])C([H])([H])c1c([H])c([H])c([H])c([H])c1[H])N([H])C(=O)[C@@]([H])(N([H])C(=O)OC([H])([H])c1c([H])c([H])c([H])c([H])c1[H])[C@@]([H])(C([H])([H])[H])C([H])([H])C([H])([H])[H]


 51 53  0  0  0  0  0  0  0  0999 V2000
    9.3620   48.5455  131.6114 C   0  0  0  0  0  0  0  0  0  0  0  0
    9.0502   47.9315  132.8708 C   0  0  0  0  0  0  0  0  0  0  0  0
    8.0347   48.6110  133.4698 O   0  0  0  0  0  0  0  0  0  0  0  0
    9.4563   46.8815  133.6668 N   0  0  0  0  0  0  0  0  0  0  0  0
    8.7871   46.5698  134.9621 C   0  0  0  0  0  0  0  0  0  0  0  0
    9.9863   46.5689  135.8870 C   0  0  0  0  0  0  0  0  0  0  0  0
   11.0405   45.9122  135.0621 C   0  0  0  0  0  0  0  0  0  0  0  0
   10.5003   45.9283  133.6083 C   0  0  0  0  0  0  0  0  0  0  0  0
   10.0996   44.5363  133.3444 C   0  0  0  0  0  0  0  0  0  0  0  0
   10.6821   43.5959  133.9098 O   0  0  0  0  0  0  0  0  0  0  0  0
    9.0448   44.2696  132.4381 N   0  0  0  0  0  0  0  0  0  0  0  0
    8.5196   45.0264  131.9494 H   0  0  0  0  0  0  0  0  0  0  0  0
    8.6668   42.8688  132.1645 C   0  0  0  0  0  0  0  0  0  0  0  0
    8.4004   42.1559  133.4196 C   0  0  0  0  0  0  0  0  0  0  0  0
    9.3530   41.4965  133.9819 O   0  0  0  0  0  0  0  0  0  0  0  0
    7.2070   42.1256  134.0706 O   0  0  0  0  0  0  0  0  0  0  0  0
    6.2948   41.0229  133.9502 C   0  0  0  0  0  0  0  0  0  0  0  0
    9.7804   42.2263  131.4027 C   0  0  0  0  0  0  0  0  0  0  0  0
   10.2902   42.9563  130.2491 C   0  0  0  0  0  0  0  0  0  0  0  0
    9.4783   42.9914  129.1176 C   0  0  0  0  0  0  0  0  0  0  0  0
    9.9139   43.6850  128.0253 C   0  0  0  0  0  0  0  0  0  0  0  0
   11.1225   44.3489  128.0036 C   0  0  0  0  0  0  0  0  0  0  0  0
   11.9164   44.2936  129.1635 C   0  0  0  0  0  0  0  0  0  0  0  0
   11.4974   43.6067  130.2576 C   0  0  0  0  0  0  0  0  0  0  0  0
    7.6395   49.6054  130.0669 C   0  0  0  0  0  0  0  0  0  0  0  0
    8.3128   49.0737  129.1084 O   0  0  0  0  0  0  0  0  0  0  0  0
    8.1028   49.3861  131.3651 N   0  0  0  0  0  0  0  0  0  0  0  0
    7.6277   49.7782  132.1985 H   0  0  0  0  0  0  0  0  0  0  0  0
    6.4795   50.3776  129.6714 C   0  0  0  0  0  0  0  0  0  0  0  0
    6.6938   51.1345  128.4650 N   0  0  0  0  0  0  0  0  0  0  0  0
    6.9440   52.5013  128.2943 C   0  0  0  0  0  0  0  0  0  0  0  0
    7.0317   53.3878  129.1639 O   0  0  0  0  0  0  0  0  0  0  0  0
    6.6585   50.5681  127.5382 H   0  0  0  0  0  0  0  0  0  0  0  0
    7.1274   53.0009  126.9752 O   0  0  0  0  0  0  0  0  0  0  0  0
    7.4154   54.3524  126.7268 C   0  0  0  0  0  0  0  0  0  0  0  0
    7.8083   54.6559  125.3559 C   0  0  0  0  0  0  0  0  0  0  0  0
    7.4511   53.7882  124.3289 C   0  0  0  0  0  0  0  0  0  0  0  0
    7.7895   54.0050  123.0183 C   0  0  0  0  0  0  0  0  0  0  0  0
    8.5230   55.1375  122.6762 C   0  0  0  0  0  0  0  0  0  0  0  0
    8.8826   56.0063  123.6902 C   0  0  0  0  0  0  0  0  0  0  0  0
    8.5328   55.7722  125.0060 C   0  0  0  0  0  0  0  0  0  0  0  0
    5.1808   49.6133  129.5394 C   0  0  0  0  0  0  0  0  0  0  0  0
    4.1155   50.3629  128.7523 C   0  0  0  0  0  0  0  0  0  0  0  0
    5.2738   47.0945  129.5047 C   0  0  0  0  0  0  0  0  0  0  0  0
    5.4788   48.3700  128.7105 C   0  0  0  0  0  0  0  0  0  0  0  0
   10.5205   49.3506  131.2847 C   0  0  0  0  0  0  0  0  0  0  0  0
   11.3241   49.0470  130.0622 C   0  0  0  0  0  0  0  0  0  0  0  0
   10.8095   47.8065  129.3735 C   0  0  0  0  0  0  0  0  0  0  0  0
   11.1468   47.5620  128.1954 O   0  0  0  0  0  0  0  0  0  0  0  0
    9.9599   46.9052  130.0084 O   0  0  0  0  0  0  0  0  0  0  0  0
    9.9277   45.9358  129.7955 H   0  0  0  0  0  0  0  0  0  0  0  0
 44 45  1  0  0  0
 45 42  1  0  0  0
 42 43  1  0  0  0
 42 29  1  0  0  0
 29 30  1  0  0  0
 30 31  1  0  0  0
 31 32  2  0  0  0
 31 34  1  0  0  0
 34 35  1  0  0  0
 35 36  1  0  0  0
 36 37  2  0  0  0
 37 38  1  0  0  0
 38 39  2  0  0  0
 39 40  1  0  0  0
 40 41  2  0  0  0
 29 25  1  0  0  0
 25 26  2  0  0  0
 25 27  1  0  0  0
 27  1  1  0  0  0
  1 46  1  0  0  0
 46 47  1  0  0  0
 47 48  1  0  0  0
 48 49  2  0  0  0
 48 50  1  0  0  0
  1  2  1  0  0  0
  2  3  2  0  0  0
  2  4  1  0  0  0
  4  5  1  0  0  0
  5  6  1  0  0  0
  6  7  1  0  0  0
  7  8  1  0  0  0
  8  9  1  0  0  0
  9 10  2  0  0  0
  9 11  1  0  0  0
 11 13  1  0  0  0
 13 18  1  0  0  0
 18 19  1  0  0  0
 19 20  2  0  0  0
 20 21  1  0  0  0
 21 22  2  0  0  0
 22 23  1  0  0  0
 23 24  2  0  0  0
 13 14  1  0  0  0
 14 15  2  0  0  0
 14 16  1  0  0  0
 16 17  1  0  0  0
 41 36  1  0  0  0
  8  4  1  0  0  0
 24 19  1  0  0  0
 30 33  1  0  0  0
 27 28  1  0  0  0
 50 51  1  0  0  0
 11 12  1  0  0  0
M  END
> <minimizedAffinity>
3.18077

> <CNNscore>
0.3593721688

> <CNNaffinity>
7.5588097572

> <CNN_VS>
2.7164258957

> <CNNaffinity_variance>
0.3089982569

$$$$
[H]OC(=O)C([H])([H])C([H])([H])[C@@]([H])(C(=O)N1C([H])([H])C([H])([H])C([H])([H])[C@@]1([H])C(=O)N([H])[C@]([H])(C(=O)OC([H])([H])[H])C([H])([H])c1c([H])c([H])c([H])c([H])c1[H])N([H])C(=O)[C@@]([H])(N([H])C(=O)OC([H])([H])c1c([H])c([H])c([H])c([H])c1[H])[C@@]([H])(C([H])([H])[H])C([H])([H])C([H])([H])[H]


 51 53  0  0  0  0  0  0  0  0999 V2000
    8.4051   43.4739  133.7487 C   0  0  0  0  0  0  0  0  0  0  0  0
    9.0022   44.6068  134.3972 C   0  0  0  0  0  0  0  0  0  0  0  0
   10.0311   44.1909  135.1846 O   0  0  0  0  0  0  0  0  0  0  0  0
    8.8599   45.9756  134.4816 N   0  0  0  0  0  0  0  0  0  0  0  0
    9.7809   46.8146  135.3007 C   0  0  0  0  0  0  0  0  0  0  0  0
    8.7750   47.5513  136.1603 C   0  0  0  0  0  0  0  0  0  0  0  0
    7.6652   47.8318  135.2050 C   0  0  0  0  0  0  0  0  0  0  0  0
    7.9297   46.9167  133.9809 C   0  0  0  0  0  0  0  0  0  0  0  0
    8.4217   47.8279  132.9342 C   0  0  0  0  0  0  0  0  0  0  0  0
    8.6047   47.4160  131.7765 O   0  0  0  0  0  0  0  0  0  0  0  0
    8.6898   49.1816  133.2517 N   0  0  0  0  0  0  0  0  0  0  0  0
    8.5402   49.5748  134.2059 H   0  0  0  0  0  0  0  0  0  0  0  0
    9.2042   50.0803  132.1993 C   0  0  0  0  0  0  0  0  0  0  0  0
    8.4570   49.8867  130.9507 C   0  0  0  0  0  0  0  0  0  0  0  0
    9.0844   49.4902  129.8983 O   0  0  0  0  0  0  0  0  0  0  0  0
    7.1217   50.0884  130.7921 O   0  0  0  0  0  0  0  0  0  0  0  0
    6.5945   51.0204  129.8351 C   0  0  0  0  0  0  0  0  0  0  0  0
   10.6583   49.7919  132.0105 C   0  0  0  0  0  0  0  0  0  0  0  0
   11.1656   48.5658  132.6128 C   0  0  0  0  0  0  0  0  0  0  0  0
   11.2926   47.4593  131.7759 C   0  0  0  0  0  0  0  0  0  0  0  0
   11.7858   46.2996  132.3009 C   0  0  0  0  0  0  0  0  0  0  0  0
   12.1610   46.1863  133.6232 C   0  0  0  0  0  0  0  0  0  0  0  0
   12.0206   47.3232  134.4393 C   0  0  0  0  0  0  0  0  0  0  0  0
   11.5304   48.4837  133.9321 C   0  0  0  0  0  0  0  0  0  0  0  0
    8.6256   44.6835  131.5207 C   0  0  0  0  0  0  0  0  0  0  0  0
    9.8946   44.6217  131.7218 O   0  0  0  0  0  0  0  0  0  0  0  0
    7.8007   44.1253  132.4986 N   0  0  0  0  0  0  0  0  0  0  0  0
    6.7670   44.1322  132.4239 H   0  0  0  0  0  0  0  0  0  0  0  0
    8.2111   45.3376  130.2965 C   0  0  0  0  0  0  0  0  0  0  0  0
    8.5779   44.6008  129.1146 N   0  0  0  0  0  0  0  0  0  0  0  0
    8.6050   43.2194  128.8892 C   0  0  0  0  0  0  0  0  0  0  0  0
    8.3193   42.2995  129.6779 O   0  0  0  0  0  0  0  0  0  0  0  0
    8.8822   45.1986  128.2596 H   0  0  0  0  0  0  0  0  0  0  0  0
    9.0070   42.7456  127.6097 O   0  0  0  0  0  0  0  0  0  0  0  0
   10.1751   43.2058  126.9812 C   0  0  0  0  0  0  0  0  0  0  0  0
   10.9950   44.1024  127.7872 C   0  0  0  0  0  0  0  0  0  0  0  0
   10.7993   45.4771  127.7030 C   0  0  0  0  0  0  0  0  0  0  0  0
   11.5350   46.3805  128.4255 C   0  0  0  0  0  0  0  0  0  0  0  0
   12.5276   45.9248  129.2883 C   0  0  0  0  0  0  0  0  0  0  0  0
   12.7296   44.5598  129.3791 C   0  0  0  0  0  0  0  0  0  0  0  0
   11.9786   43.6634  128.6436 C   0  0  0  0  0  0  0  0  0  0  0  0
    6.7485   45.7110  130.2000 C   0  0  0  0  0  0  0  0  0  0  0  0
    6.2290   46.4431  131.4289 C   0  0  0  0  0  0  0  0  0  0  0  0
    5.3575   47.5473  129.1765 C   0  0  0  0  0  0  0  0  0  0  0  0
    6.6203   46.7156  129.0615 C   0  0  0  0  0  0  0  0  0  0  0  0
    9.0526   42.2402  133.3540 C   0  0  0  0  0  0  0  0  0  0  0  0
   10.4984   42.0206  133.6607 C   0  0  0  0  0  0  0  0  0  0  0  0
   11.3477   42.2285  132.4305 C   0  0  0  0  0  0  0  0  0  0  0  0
   10.9363   41.8409  131.3160 O   0  0  0  0  0  0  0  0  0  0  0  0
   12.5932   42.8471  132.4861 O   0  0  0  0  0  0  0  0  0  0  0  0
   12.9854   43.3633  131.7339 H   0  0  0  0  0  0  0  0  0  0  0  0
 44 45  1  0  0  0
 45 42  1  0  0  0
 42 43  1  0  0  0
 42 29  1  0  0  0
 29 30  1  0  0  0
 30 31  1  0  0  0
 31 32  2  0  0  0
 31 34  1  0  0  0
 34 35  1  0  0  0
 35 36  1  0  0  0
 36 37  2  0  0  0
 37 38  1  0  0  0
 38 39  2  0  0  0
 39 40  1  0  0  0
 40 41  2  0  0  0
 29 25  1  0  0  0
 25 26  2  0  0  0
 25 27  1  0  0  0
 27  1  1  0  0  0
  1 46  1  0  0  0
 46 47  1  0  0  0
 47 48  1  0  0  0
 48 49  2  0  0  0
 48 50  1  0  0  0
  1  2  1  0  0  0
  2  3  2  0  0  0
  2  4  1  0  0  0
  4  5  1  0  0  0
  5  6  1  0  0  0
  6  7  1  0  0  0
  7  8  1  0  0  0
  8  9  1  0  0  0
  9 10  2  0  0  0
  9 11  1  0  0  0
 11 13  1  0  0  0
 13 18  1  0  0  0
 18 19  1  0  0  0
 19 20  2  0  0  0
 20 21  1  0  0  0
 21 22  2  0  0  0
 22 23  1  0  0  0
 23 24  2  0  0  0
 13 14  1  0  0  0
 14 15  2  0  0  0
 14 16  1  0  0  0
 16 17  1  0  0  0
 41 36  1  0  0  0
  8  4  1  0  0  0
 24 19  1  0  0  0
 30 33  1  0  0  0
 27 28  1  0  0  0
 50 51  1  0  0  0
 11 12  1  0  0  0
M  END
> <minimizedAffinity>
9.13359

> <CNNscore>
0.3465256393

> <CNNaffinity>
7.3320746422

> <CNN_VS>
2.5407519341

> <CNNaffinity_variance>
0.7053750157

$$$$
[H]OC(=O)C([H])([H])C([H])([H])[C@@]([H])(C(=O)N1C([H])([H])C([H])([H])C([H])([H])[C@@]1([H])C(=O)N([H])[C@]([H])(C(=O)OC([H])([H])[H])C([H])([H])c1c([H])c([H])c([H])c([H])c1[H])N([H])C(=O)[C@@]([H])(N([H])C(=O)OC([H])([H])c1c([H])c([H])c([H])c([H])c1[H])[C@@]([H])(C([H])([H])[H])C([H])([H])C([H])([H])[H]


 51 53  0  0  0  0  0  0  0  0999 V2000
   10.0766   45.7104  129.1411 C   0  0  0  0  0  0  0  0  0  0  0  0
   10.7756   44.8799  130.0803 C   0  0  0  0  0  0  0  0  0  0  0  0
   12.1115   45.1256  129.9994 O   0  0  0  0  0  0  0  0  0  0  0  0
   10.5253   43.9109  131.0286 N   0  0  0  0  0  0  0  0  0  0  0  0
   11.6167   43.3075  131.8458 C   0  0  0  0  0  0  0  0  0  0  0  0
   11.3728   41.8383  131.5710 C   0  0  0  0  0  0  0  0  0  0  0  0
    9.8848   41.7442  131.5684 C   0  0  0  0  0  0  0  0  0  0  0  0
    9.3765   43.2054  131.4579 C   0  0  0  0  0  0  0  0  0  0  0  0
    8.8769   43.5287  132.8047 C   0  0  0  0  0  0  0  0  0  0  0  0
    8.3291   42.6561  133.4989 O   0  0  0  0  0  0  0  0  0  0  0  0
    9.0206   44.8439  133.3094 N   0  0  0  0  0  0  0  0  0  0  0  0
    9.4836   45.6055  132.7680 H   0  0  0  0  0  0  0  0  0  0  0  0
    8.4957   45.1618  134.6522 C   0  0  0  0  0  0  0  0  0  0  0  0
    8.0072   46.5453  134.6965 C   0  0  0  0  0  0  0  0  0  0  0  0
    7.2506   46.9751  133.7472 O   0  0  0  0  0  0  0  0  0  0  0  0
    8.2818   47.4469  135.6767 O   0  0  0  0  0  0  0  0  0  0  0  0
    7.5428   48.6694  135.8240 C   0  0  0  0  0  0  0  0  0  0  0  0
    9.5913   44.9423  135.6445 C   0  0  0  0  0  0  0  0  0  0  0  0
   10.9356   44.7739  135.1080 C   0  0  0  0  0  0  0  0  0  0  0  0
   11.5003   45.8750  134.4679 C   0  0  0  0  0  0  0  0  0  0  0  0
   12.7672   45.7606  133.9725 C   0  0  0  0  0  0  0  0  0  0  0  0
   13.5036   44.5998  134.0836 C   0  0  0  0  0  0  0  0  0  0  0  0
   12.9033   43.5082  134.7368 C   0  0  0  0  0  0  0  0  0  0  0  0
   11.6433   43.6061  135.2339 C   0  0  0  0  0  0  0  0  0  0  0  0
    9.2097   47.4971  130.7322 C   0  0  0  0  0  0  0  0  0  0  0  0
    8.2462   46.6795  130.9727 O   0  0  0  0  0  0  0  0  0  0  0  0
   10.1790   47.0834  129.8171 N   0  0  0  0  0  0  0  0  0  0  0  0
   10.9884   47.6767  129.5585 H   0  0  0  0  0  0  0  0  0  0  0  0
    9.1605   48.7581  131.4435 C   0  0  0  0  0  0  0  0  0  0  0  0
    7.8917   49.4268  131.3132 N   0  0  0  0  0  0  0  0  0  0  0  0
    7.5266   50.5124  130.5082 C   0  0  0  0  0  0  0  0  0  0  0  0
    8.2329   51.1608  129.7142 O   0  0  0  0  0  0  0  0  0  0  0  0
    7.0858   49.0374  131.9296 H   0  0  0  0  0  0  0  0  0  0  0  0
    6.1853   50.9826  130.5656 O   0  0  0  0  0  0  0  0  0  0  0  0
    5.1315   50.2980  129.9394 C   0  0  0  0  0  0  0  0  0  0  0  0
    5.4605   48.9565  129.4727 C   0  0  0  0  0  0  0  0  0  0  0  0
    6.5247   48.7742  128.5953 C   0  0  0  0  0  0  0  0  0  0  0  0
    6.8889   47.5447  128.1105 C   0  0  0  0  0  0  0  0  0  0  0  0
    6.1765   46.4140  128.4997 C   0  0  0  0  0  0  0  0  0  0  0  0
    5.1170   46.5850  129.3718 C   0  0  0  0  0  0  0  0  0  0  0  0
    4.7639   47.8317  129.8508 C   0  0  0  0  0  0  0  0  0  0  0  0
    9.5372   48.7149  132.9079 C   0  0  0  0  0  0  0  0  0  0  0  0
   11.0028   48.3809  133.1456 C   0  0  0  0  0  0  0  0  0  0  0  0
    9.9437   51.1724  132.5213 C   0  0  0  0  0  0  0  0  0  0  0  0
    9.3630   50.1268  133.4536 C   0  0  0  0  0  0  0  0  0  0  0  0
   10.3550   45.8737  127.7293 C   0  0  0  0  0  0  0  0  0  0  0  0
   10.2629   44.7023  126.8064 C   0  0  0  0  0  0  0  0  0  0  0  0
    9.6886   43.5008  127.5165 C   0  0  0  0  0  0  0  0  0  0  0  0
    8.4845   43.4905  127.8506 O   0  0  0  0  0  0  0  0  0  0  0  0
   10.4583   42.3814  127.8195 O   0  0  0  0  0  0  0  0  0  0  0  0
   10.0892   41.4621  127.8887 H   0  0  0  0  0  0  0  0  0  0  0  0
 44 45  1  0  0  0
 45 42  1  0  0  0
 42 43  1  0  0  0
 42 29  1  0  0  0
 29 30  1  0  0  0
 30 31  1  0  0  0
 31 32  2  0  0  0
 31 34  1  0  0  0
 34 35  1  0  0  0
 35 36  1  0  0  0
 36 37  2  0  0  0
 37 38  1  0  0  0
 38 39  2  0  0  0
 39 40  1  0  0  0
 40 41  2  0  0  0
 29 25  1  0  0  0
 25 26  2  0  0  0
 25 27  1  0  0  0
 27  1  1  0  0  0
  1 46  1  0  0  0
 46 47  1  0  0  0
 47 48  1  0  0  0
 48 49  2  0  0  0
 48 50  1  0  0  0
  1  2  1  0  0  0
  2  3  2  0  0  0
  2  4  1  0  0  0
  4  5  1  0  0  0
  5  6  1  0  0  0
  6  7  1  0  0  0
  7  8  1  0  0  0
  8  9  1  0  0  0
  9 10  2  0  0  0
  9 11  1  0  0  0
 11 13  1  0  0  0
 13 18  1  0  0  0
 18 19  1  0  0  0
 19 20  2  0  0  0
 20 21  1  0  0  0
 21 22  2  0  0  0
 22 23  1  0  0  0
 23 24  2  0  0  0
 13 14  1  0  0  0
 14 15  2  0  0  0
 14 16  1  0  0  0
 16 17  1  0  0  0
 41 36  1  0  0  0
  8  4  1  0  0  0
 24 19  1  0  0  0
 30 33  1  0  0  0
 27 28  1  0  0  0
 50 51  1  0  0  0
 11 12  1  0  0  0
M  END
> <minimizedAffinity>
9.54928

> <CNNscore>
0.3465237319

> <CNNaffinity>
7.5390806198

> <CNN_VS>
2.6124703884

> <CNNaffinity_variance>
0.3349177837

$$$$
[H]OC(=O)C([H])([H])C([H])([H])[C@@]([H])(C(=O)N1C([H])([H])C([H])([H])C([H])([H])[C@@]1([H])C(=O)N([H])[C@]([H])(C(=O)OC([H])([H])[H])C([H])([H])c1c([H])c([H])c([H])c([H])c1[H])N([H])C(=O)[C@@]([H])(N([H])C(=O)OC([H])([H])c1c([H])c([H])c([H])c([H])c1[H])[C@@]([H])(C([H])([H])[H])C([H])([H])C([H])([H])[H]


 51 53  0  0  0  0  0  0  0  0999 V2000
    9.5250   48.3827  131.6529 C   0  0  0  0  0  0  0  0  0  0  0  0
    9.1021   47.2087  132.3623 C   0  0  0  0  0  0  0  0  0  0  0  0
    7.7868   46.9713  132.1071 O   0  0  0  0  0  0  0  0  0  0  0  0
    9.6010   46.2539  133.2229 N   0  0  0  0  0  0  0  0  0  0  0  0
    8.7644   45.1219  133.7144 C   0  0  0  0  0  0  0  0  0  0  0  0
    8.9503   45.2837  135.2087 C   0  0  0  0  0  0  0  0  0  0  0  0
   10.3890   45.6572  135.3250 C   0  0  0  0  0  0  0  0  0  0  0  0
   10.8313   46.0573  133.8932 C   0  0  0  0  0  0  0  0  0  0  0  0
   11.6550   44.9286  133.4288 C   0  0  0  0  0  0  0  0  0  0  0  0
   12.0446   44.0626  134.2298 O   0  0  0  0  0  0  0  0  0  0  0  0
   12.0064   44.8328  132.0605 N   0  0  0  0  0  0  0  0  0  0  0  0
   11.6931   45.5291  131.3502 H   0  0  0  0  0  0  0  0  0  0  0  0
   12.8514   43.7088  131.6106 C   0  0  0  0  0  0  0  0  0  0  0  0
   13.4652   44.0171  130.3134 C   0  0  0  0  0  0  0  0  0  0  0  0
   12.7924   44.6872  129.4435 O   0  0  0  0  0  0  0  0  0  0  0  0
   14.7183   43.6553  129.9286 O   0  0  0  0  0  0  0  0  0  0  0  0
   15.2022   43.8667  128.5931 C   0  0  0  0  0  0  0  0  0  0  0  0
   11.9955   42.4866  131.5278 C   0  0  0  0  0  0  0  0  0  0  0  0
   10.6089   42.6852  131.1262 C   0  0  0  0  0  0  0  0  0  0  0  0
   10.3843   43.0605  129.8035 C   0  0  0  0  0  0  0  0  0  0  0  0
    9.0961   43.2337  129.3860 C   0  0  0  0  0  0  0  0  0  0  0  0
    8.0156   43.0505  130.2231 C   0  0  0  0  0  0  0  0  0  0  0  0
    8.2786   42.6706  131.5516 C   0  0  0  0  0  0  0  0  0  0  0  0
    9.5546   42.4956  131.9824 C   0  0  0  0  0  0  0  0  0  0  0  0
    7.9531   49.6578  130.1106 C   0  0  0  0  0  0  0  0  0  0  0  0
    8.9157   49.6228  129.2580 O   0  0  0  0  0  0  0  0  0  0  0  0
    8.1793   49.0524  131.3477 N   0  0  0  0  0  0  0  0  0  0  0  0
    7.4638   49.0352  132.0972 H   0  0  0  0  0  0  0  0  0  0  0  0
    6.7483   50.3344  129.6756 C   0  0  0  0  0  0  0  0  0  0  0  0
    6.9326   51.0810  128.4579 N   0  0  0  0  0  0  0  0  0  0  0  0
    7.0251   52.4634  128.2567 C   0  0  0  0  0  0  0  0  0  0  0  0
    6.9602   53.3757  129.1012 O   0  0  0  0  0  0  0  0  0  0  0  0
    7.0139   50.4913  127.5487 H   0  0  0  0  0  0  0  0  0  0  0  0
    7.2154   52.9480  126.9330 O   0  0  0  0  0  0  0  0  0  0  0  0
    7.4747   54.3023  126.6686 C   0  0  0  0  0  0  0  0  0  0  0  0
    7.8315   54.6022  125.2871 C   0  0  0  0  0  0  0  0  0  0  0  0
    7.6287   53.6435  124.2997 C   0  0  0  0  0  0  0  0  0  0  0  0
    7.9448   53.8520  122.9821 C   0  0  0  0  0  0  0  0  0  0  0  0
    8.4942   55.0698  122.5916 C   0  0  0  0  0  0  0  0  0  0  0  0
    8.6993   56.0294  123.5660 C   0  0  0  0  0  0  0  0  0  0  0  0
    8.3748   55.8023  124.8894 C   0  0  0  0  0  0  0  0  0  0  0  0
    5.5123   49.4741  129.5340 C   0  0  0  0  0  0  0  0  0  0  0  0
    4.3409   50.2003  128.8886 C   0  0  0  0  0  0  0  0  0  0  0  0
    5.7682   46.9864  129.2175 C   0  0  0  0  0  0  0  0  0  0  0  0
    5.8605   48.3517  128.5640 C   0  0  0  0  0  0  0  0  0  0  0  0
   10.4509   49.4009  132.1038 C   0  0  0  0  0  0  0  0  0  0  0  0
   10.2058   50.1207  133.3900 C   0  0  0  0  0  0  0  0  0  0  0  0
    9.6472   51.4999  133.1376 C   0  0  0  0  0  0  0  0  0  0  0  0
    9.0598   51.7476  132.0628 O   0  0  0  0  0  0  0  0  0  0  0  0
    9.7596   52.5268  134.0703 O   0  0  0  0  0  0  0  0  0  0  0  0
    9.1029   53.2667  134.1560 H   0  0  0  0  0  0  0  0  0  0  0  0
 44 45  1  0  0  0
 45 42  1  0  0  0
 42 43  1  0  0  0
 42 29  1  0  0  0
 29 30  1  0  0  0
 30 31  1  0  0  0
 31 32  2  0  0  0
 31 34  1  0  0  0
 34 35  1  0  0  0
 35 36  1  0  0  0
 36 37  2  0  0  0
 37 38  1  0  0  0
 38 39  2  0  0  0
 39 40  1  0  0  0
 40 41  2  0  0  0
 29 25  1  0  0  0
 25 26  2  0  0  0
 25 27  1  0  0  0
 27  1  1  0  0  0
  1 46  1  0  0  0
 46 47  1  0  0  0
 47 48  1  0  0  0
 48 49  2  0  0  0
 48 50  1  0  0  0
  1  2  1  0  0  0
  2  3  2  0  0  0
  2  4  1  0  0  0
  4  5  1  0  0  0
  5  6  1  0  0  0
  6  7  1  0  0  0
  7  8  1  0  0  0
  8  9  1  0  0  0
  9 10  2  0  0  0
  9 11  1  0  0  0
 11 13  1  0  0  0
 13 18  1  0  0  0
 18 19  1  0  0  0
 19 20  2  0  0  0
 20 21  1  0  0  0
 21 22  2  0  0  0
 22 23  1  0  0  0
 23 24  2  0  0  0
 13 14  1  0  0  0
 14 15  2  0  0  0
 14 16  1  0  0  0
 16 17  1  0  0  0
 41 36  1  0  0  0
  8  4  1  0  0  0
 24 19  1  0  0  0
 30 33  1  0  0  0
 27 28  1  0  0  0
 50 51  1  0  0  0
 11 12  1  0  0  0
M  END
> <minimizedAffinity>
2.06174

> <CNNscore>
0.3339082003

> <CNNaffinity>
7.5837302208

> <CNN_VS>
2.5322697163

> <CNNaffinity_variance>
0.2677648365

$$$$
[H]Oc1c([H])c([H])c([H])c(C2([H])C([H])([H])N(C([H])([H])C([H])([H])C([H])([H])C([H])([H])C([H])([H])C([H])([H])C([H])([H])C([H])([H])C([H])([H])[H])C([H])([H])C2([H])[H])c1[H]


 22 23  0  0  0  0  0  0  0  0999 V2000
   11.0540   46.3436  133.3427 N   0  0  0  0  0  0  0  0  0  0  0  0
    9.8088   46.1762  134.0409 C   0  0  0  0  0  0  0  0  0  0  0  0
    8.8524   47.1909  133.4663 C   0  0  0  0  0  0  0  0  0  0  0  0
    9.5700   47.7393  132.2675 C   0  0  0  0  0  0  0  0  0  0  0  0
   10.6592   46.7714  131.9922 C   0  0  0  0  0  0  0  0  0  0  0  0
    8.6519   47.9207  131.1083 C   0  0  0  0  0  0  0  0  0  0  0  0
    7.9913   46.8147  130.6200 C   0  0  0  0  0  0  0  0  0  0  0  0
    7.1146   46.9305  129.5361 C   0  0  0  0  0  0  0  0  0  0  0  0
    6.9266   48.1715  128.9688 C   0  0  0  0  0  0  0  0  0  0  0  0
    7.5946   49.2560  129.4718 C   0  0  0  0  0  0  0  0  0  0  0  0
    7.3902   50.4938  128.8856 O   0  0  0  0  0  0  0  0  0  0  0  0
    8.4731   49.1589  130.5524 C   0  0  0  0  0  0  0  0  0  0  0  0
    6.7611   50.6118  128.0964 H   0  0  0  0  0  0  0  0  0  0  0  0
   11.8720   45.1781  133.2795 C   0  0  0  0  0  0  0  0  0  0  0  0
   11.9844   44.5570  131.9239 C   0  0  0  0  0  0  0  0  0  0  0  0
   11.5251   43.1435  131.8558 C   0  0  0  0  0  0  0  0  0  0  0  0
   10.1715   42.8675  132.4201 C   0  0  0  0  0  0  0  0  0  0  0  0
    9.0548   43.4334  131.5063 C   0  0  0  0  0  0  0  0  0  0  0  0
    9.1227   42.8183  130.1633 C   0  0  0  0  0  0  0  0  0  0  0  0
    9.1081   43.6674  128.9676 C   0  0  0  0  0  0  0  0  0  0  0  0
   10.7381   45.4526  128.4705 C   0  0  0  0  0  0  0  0  0  0  0  0
   10.3746   44.0232  128.2795 C   0  0  0  0  0  0  0  0  0  0  0  0
 21 22  1  0  0  0
 22 20  1  0  0  0
 20 19  1  0  0  0
 19 18  1  0  0  0
 18 17  1  0  0  0
 17 16  1  0  0  0
 16 15  1  0  0  0
 15 14  1  0  0  0
 14  1  1  0  0  0
  1  2  1  0  0  0
  2  3  1  0  0  0
  3  4  1  0  0  0
  4  6  1  0  0  0
  6  7  2  0  0  0
  7  8  1  0  0  0
  8  9  2  0  0  0
  9 10  1  0  0  0
 10 11  1  0  0  0
 10 12  2  0  0  0
  4  5  1  0  0  0
  5  1  1  0  0  0
 12  6  1  0  0  0
 11 13  1  0  0  0
M  END
> <minimizedAffinity>
-7.89257

> <CNNscore>
0.9043256640

> <CNNaffinity>
7.7803773880

> <CNN_VS>
7.0359950066

> <CNNaffinity_variance>
0.0979526341

$$$$
[H]Oc1c([H])c([H])c([H])c(C2([H])C([H])([H])N(C([H])([H])C([H])([H])C([H])([H])C([H])([H])C([H])([H])C([H])([H])C([H])([H])C([H])([H])C([H])([H])[H])C([H])([H])C2([H])[H])c1[H]


 22 23  0  0  0  0  0  0  0  0999 V2000
    9.1221   44.0032  129.4675 N   0  0  0  0  0  0  0  0  0  0  0  0
   10.4349   44.5682  129.3140 C   0  0  0  0  0  0  0  0  0  0  0  0
   10.2414   45.9844  128.8333 C   0  0  0  0  0  0  0  0  0  0  0  0
    8.7661   46.2242  128.9705 C   0  0  0  0  0  0  0  0  0  0  0  0
    8.2794   45.1426  129.8606 C   0  0  0  0  0  0  0  0  0  0  0  0
    8.4738   47.5850  129.5021 C   0  0  0  0  0  0  0  0  0  0  0  0
    9.4453   48.2168  130.2471 C   0  0  0  0  0  0  0  0  0  0  0  0
    9.2240   49.4970  130.7660 C   0  0  0  0  0  0  0  0  0  0  0  0
    8.0163   50.1106  130.5164 C   0  0  0  0  0  0  0  0  0  0  0  0
    7.0663   49.4622  129.7733 C   0  0  0  0  0  0  0  0  0  0  0  0
    5.8595   50.0984  129.5351 O   0  0  0  0  0  0  0  0  0  0  0  0
    7.2699   48.1850  129.2480 C   0  0  0  0  0  0  0  0  0  0  0  0
    5.6666   51.0275  129.8985 H   0  0  0  0  0  0  0  0  0  0  0  0
    9.0249   42.9540  130.4273 C   0  0  0  0  0  0  0  0  0  0  0  0
    8.6456   43.3912  131.8060 C   0  0  0  0  0  0  0  0  0  0  0  0
    9.5680   42.9221  132.8749 C   0  0  0  0  0  0  0  0  0  0  0  0
   11.0170   42.8871  132.5196 C   0  0  0  0  0  0  0  0  0  0  0  0
   11.8289   43.8987  133.3680 C   0  0  0  0  0  0  0  0  0  0  0  0
   12.1221   45.1166  132.5823 C   0  0  0  0  0  0  0  0  0  0  0  0
   11.1473   46.2114  132.5378 C   0  0  0  0  0  0  0  0  0  0  0  0
    8.9632   46.6723  133.5905 C   0  0  0  0  0  0  0  0  0  0  0  0
   10.4393   46.6416  133.7697 C   0  0  0  0  0  0  0  0  0  0  0  0
 21 22  1  0  0  0
 22 20  1  0  0  0
 20 19  1  0  0  0
 19 18  1  0  0  0
 18 17  1  0  0  0
 17 16  1  0  0  0
 16 15  1  0  0  0
 15 14  1  0  0  0
 14  1  1  0  0  0
  1  2  1  0  0  0
  2  3  1  0  0  0
  3  4  1  0  0  0
  4  6  1  0  0  0
  6  7  2  0  0  0
  7  8  1  0  0  0
  8  9  2  0  0  0
  9 10  1  0  0  0
 10 11  1  0  0  0
 10 12  2  0  0  0
  4  5  1  0  0  0
  5  1  1  0  0  0
 12  6  1  0  0  0
 11 13  1  0  0  0
M  END
> <minimizedAffinity>
-7.57692

> <CNNscore>
0.8895233274

> <CNNaffinity>
7.6583685875

> <CNN_VS>
6.8122973442

> <CNNaffinity_variance>
0.0683529750

$$$$
[H]Oc1c([H])c([H])c([H])c(C2([H])C([H])([H])N(C([H])([H])C([H])([H])C([H])([H])C([H])([H])C([H])([H])C([H])([H])C([H])([H])C([H])([H])C([H])([H])[H])C([H])([H])C2([H])[H])c1[H]


 22 23  0  0  0  0  0  0  0  0999 V2000
    9.1607   44.1048  129.4459 N   0  0  0  0  0  0  0  0  0  0  0  0
   10.4538   44.6673  129.7248 C   0  0  0  0  0  0  0  0  0  0  0  0
   10.4019   46.1081  129.2825 C   0  0  0  0  0  0  0  0  0  0  0  0
    8.9517   46.3513  128.9810 C   0  0  0  0  0  0  0  0  0  0  0  0
    8.2289   45.2283  129.6255 C   0  0  0  0  0  0  0  0  0  0  0  0
    8.5010   47.6845  129.4699 C   0  0  0  0  0  0  0  0  0  0  0  0
    9.3805   48.4366  130.2176 C   0  0  0  0  0  0  0  0  0  0  0  0
    9.0093   49.6972  130.6973 C   0  0  0  0  0  0  0  0  0  0  0  0
    7.7483   50.1691  130.4066 C   0  0  0  0  0  0  0  0  0  0  0  0
    6.8919   49.4029  129.6617 C   0  0  0  0  0  0  0  0  0  0  0  0
    5.6291   49.8975  129.3818 O   0  0  0  0  0  0  0  0  0  0  0  0
    7.2453   48.1431  129.1751 C   0  0  0  0  0  0  0  0  0  0  0  0
    5.3280   50.8086  129.7162 H   0  0  0  0  0  0  0  0  0  0  0  0
    8.7880   43.0076  130.2758 C   0  0  0  0  0  0  0  0  0  0  0  0
    9.5516   42.8955  131.5566 C   0  0  0  0  0  0  0  0  0  0  0  0
    8.7607   43.2216  132.7738 C   0  0  0  0  0  0  0  0  0  0  0  0
    8.1398   44.5782  132.8066 C   0  0  0  0  0  0  0  0  0  0  0  0
    8.7940   45.4703  133.8922 C   0  0  0  0  0  0  0  0  0  0  0  0
    9.6964   46.4639  133.2719 C   0  0  0  0  0  0  0  0  0  0  0  0
   11.1368   46.4147  133.5434 C   0  0  0  0  0  0  0  0  0  0  0  0
   12.2216   44.2188  133.8469 C   0  0  0  0  0  0  0  0  0  0  0  0
   11.9851   45.3635  132.9274 C   0  0  0  0  0  0  0  0  0  0  0  0
 21 22  1  0  0  0
 22 20  1  0  0  0
 20 19  1  0  0  0
 19 18  1  0  0  0
 18 17  1  0  0  0
 17 16  1  0  0  0
 16 15  1  0  0  0
 15 14  1  0  0  0
 14  1  1  0  0  0
  1  2  1  0  0  0
  2  3  1  0  0  0
  3  4  1  0  0  0
  4  6  1  0  0  0
  6  7  2  0  0  0
  7  8  1  0  0  0
  8  9  2  0  0  0
  9 10  1  0  0  0
 10 11  1  0  0  0
 10 12  2  0  0  0
  4  5  1  0  0  0
  5  1  1  0  0  0
 12  6  1  0  0  0
 11 13  1  0  0  0
M  END
> <minimizedAffinity>
-7.41103

> <CNNscore>
0.7242789268

> <CNNaffinity>
7.4341936111

> <CNN_VS>
5.3844299316

> <CNNaffinity_variance>
0.0781016797

$$$$
[H]Oc1c([H])c([H])c([H])c(C2([H])C([H])([H])N(C([H])([H])C([H])([H])C([H])([H])C([H])([H])C([H])([H])C([H])([H])C([H])([H])C([H])([H])C([H])([H])[H])C([H])([H])C2([H])[H])c1[H]


 22 23  0  0  0  0  0  0  0  0999 V2000
   10.2393   46.6312  133.1746 N   0  0  0  0  0  0  0  0  0  0  0  0
   10.3006   48.0098  133.5769 C   0  0  0  0  0  0  0  0  0  0  0  0
    9.9521   48.8300  132.3603 C   0  0  0  0  0  0  0  0  0  0  0  0
    9.4670   47.8216  131.3599 C   0  0  0  0  0  0  0  0  0  0  0  0
    9.1856   46.5981  132.1491 C   0  0  0  0  0  0  0  0  0  0  0  0
    8.2759   48.3130  130.6120 C   0  0  0  0  0  0  0  0  0  0  0  0
    7.9832   49.6583  130.6626 C   0  0  0  0  0  0  0  0  0  0  0  0
    6.8789   50.1727  129.9749 C   0  0  0  0  0  0  0  0  0  0  0  0
    6.0923   49.3068  129.2477 C   0  0  0  0  0  0  0  0  0  0  0  0
    6.4035   47.9736  129.2128 C   0  0  0  0  0  0  0  0  0  0  0  0
    5.5985   47.1217  128.4753 O   0  0  0  0  0  0  0  0  0  0  0  0
    7.5012   47.4431  129.8929 C   0  0  0  0  0  0  0  0  0  0  0  0
    4.7885   47.4630  127.9654 H   0  0  0  0  0  0  0  0  0  0  0  0
    9.9478   45.7093  134.2218 C   0  0  0  0  0  0  0  0  0  0  0  0
   11.0434   44.7412  134.5353 C   0  0  0  0  0  0  0  0  0  0  0  0
   11.0198   43.5001  133.7152 C   0  0  0  0  0  0  0  0  0  0  0  0
   12.1650   43.3143  132.7766 C   0  0  0  0  0  0  0  0  0  0  0  0
   11.9340   44.0795  131.4487 C   0  0  0  0  0  0  0  0  0  0  0  0
   11.1619   43.2492  130.4995 C   0  0  0  0  0  0  0  0  0  0  0  0
   10.0178   43.8256  129.7856 C   0  0  0  0  0  0  0  0  0  0  0  0
   10.6345   45.8012  128.4411 C   0  0  0  0  0  0  0  0  0  0  0  0
   10.1842   44.3839  128.4200 C   0  0  0  0  0  0  0  0  0  0  0  0
 21 22  1  0  0  0
 22 20  1  0  0  0
 20 19  1  0  0  0
 19 18  1  0  0  0
 18 17  1  0  0  0
 17 16  1  0  0  0
 16 15  1  0  0  0
 15 14  1  0  0  0
 14  1  1  0  0  0
  1  2  1  0  0  0
  2  3  1  0  0  0
  3  4  1  0  0  0
  4  6  1  0  0  0
  6  7  2  0  0  0
  7  8  1  0  0  0
  8  9  2  0  0  0
  9 10  1  0  0  0
 10 11  1  0  0  0
 10 12  2  0  0  0
  4  5  1  0  0  0
  5  1  1  0  0  0
 12  6  1  0  0  0
 11 13  1  0  0  0
M  END
> <minimizedAffinity>
-7.41160

> <CNNscore>
0.7135602832

> <CNNaffinity>
7.4464101791

> <CNN_VS>
5.3134627342

> <CNNaffinity_variance>
0.1098473072

$$$$
[H]Oc1c([H])c([H])c([H])c(C2([H])C([H])([H])N(C([H])([H])C([H])([H])C([H])([H])C([H])([H])C([H])([H])C([H])([H])C([H])([H])C([H])([H])C([H])([H])[H])C([H])([H])C2([H])[H])c1[H]


 22 23  0  0  0  0  0  0  0  0999 V2000
   10.9473   46.5384  133.2886 N   0  0  0  0  0  0  0  0  0  0  0  0
    9.6732   46.4534  133.9485 C   0  0  0  0  0  0  0  0  0  0  0  0
    8.8291   47.5779  133.4032 C   0  0  0  0  0  0  0  0  0  0  0  0
    9.6264   48.1143  132.2501 C   0  0  0  0  0  0  0  0  0  0  0  0
   10.6304   47.0644  131.9522 C   0  0  0  0  0  0  0  0  0  0  0  0
    8.7610   48.4342  131.0804 C   0  0  0  0  0  0  0  0  0  0  0  0
    8.4154   47.4107  130.2253 C   0  0  0  0  0  0  0  0  0  0  0  0
    7.6013   47.6558  129.1143 C   0  0  0  0  0  0  0  0  0  0  0  0
    7.1539   48.9399  128.8943 C   0  0  0  0  0  0  0  0  0  0  0  0
    7.5111   49.9405  129.7583 C   0  0  0  0  0  0  0  0  0  0  0  0
    7.0497   51.2237  129.5174 O   0  0  0  0  0  0  0  0  0  0  0  0
    8.3225   49.7141  130.8715 C   0  0  0  0  0  0  0  0  0  0  0  0
    6.4579   51.4356  128.7189 H   0  0  0  0  0  0  0  0  0  0  0  0
   11.6575   45.3069  133.1864 C   0  0  0  0  0  0  0  0  0  0  0  0
   12.5658   45.1968  132.0037 C   0  0  0  0  0  0  0  0  0  0  0  0
   12.1619   44.1629  131.0130 C   0  0  0  0  0  0  0  0  0  0  0  0
   12.4396   44.4840  129.5824 C   0  0  0  0  0  0  0  0  0  0  0  0
   11.1694   45.0101  128.8669 C   0  0  0  0  0  0  0  0  0  0  0  0
   10.2875   43.8868  128.4836 C   0  0  0  0  0  0  0  0  0  0  0  0
    8.9204   43.8168  129.0098 C   0  0  0  0  0  0  0  0  0  0  0  0
    8.5875   43.9258  131.4528 C   0  0  0  0  0  0  0  0  0  0  0  0
    8.6272   43.0535  130.2489 C   0  0  0  0  0  0  0  0  0  0  0  0
 21 22  1  0  0  0
 22 20  1  0  0  0
 20 19  1  0  0  0
 19 18  1  0  0  0
 18 17  1  0  0  0
 17 16  1  0  0  0
 16 15  1  0  0  0
 15 14  1  0  0  0
 14  1  1  0  0  0
  1  2  1  0  0  0
  2  3  1  0  0  0
  3  4  1  0  0  0
  4  6  1  0  0  0
  6  7  2  0  0  0
  7  8  1  0  0  0
  8  9  2  0  0  0
  9 10  1  0  0  0
 10 11  1  0  0  0
 10 12  2  0  0  0
  4  5  1  0  0  0
  5  1  1  0  0  0
 12  6  1  0  0  0
 11 13  1  0  0  0
M  END
> <minimizedAffinity>
-8.24815

> <CNNscore>
0.6850299239

> <CNNaffinity>
7.3720979691

> <CNN_VS>
5.0501074791

> <CNNaffinity_variance>
0.0120042991

$$$$
[H]Oc1c([H])c([H])c([H])c(C2([H])C([H])([H])N(C([H])([H])C([H])([H])C([H])([H])C([H])([H])C([H])([H])C([H])([H])C([H])([H])C([H])([H])C([H])([H])[H])C([H])([H])C2([H])[H])c1[H]


 22 23  0  0  0  0  0  0  0  0999 V2000
   11.3282   46.9001  132.8014 N   0  0  0  0  0  0  0  0  0  0  0  0
   10.4041   47.5318  133.7031 C   0  0  0  0  0  0  0  0  0  0  0  0
    9.7048   48.6122  132.9170 C   0  0  0  0  0  0  0  0  0  0  0  0
   10.1229   48.3667  131.4965 C   0  0  0  0  0  0  0  0  0  0  0  0
   10.6734   46.9897  131.4876 C   0  0  0  0  0  0  0  0  0  0  0  0
    8.9877   48.5409  130.5475 C   0  0  0  0  0  0  0  0  0  0  0  0
    8.4380   47.4151  129.9744 C   0  0  0  0  0  0  0  0  0  0  0  0
    7.3675   47.5222  129.0801 C   0  0  0  0  0  0  0  0  0  0  0  0
    6.8762   48.7750  128.7857 C   0  0  0  0  0  0  0  0  0  0  0  0
    7.4395   49.8791  129.3680 C   0  0  0  0  0  0  0  0  0  0  0  0
    6.9293   51.1283  129.0573 O   0  0  0  0  0  0  0  0  0  0  0  0
    8.5079   49.7908  130.2622 C   0  0  0  0  0  0  0  0  0  0  0  0
    6.1533   51.2409  128.4108 H   0  0  0  0  0  0  0  0  0  0  0  0
   11.6438   45.5453  133.1120 C   0  0  0  0  0  0  0  0  0  0  0  0
   12.2239   44.7560  131.9822 C   0  0  0  0  0  0  0  0  0  0  0  0
   12.1776   43.2815  132.1755 C   0  0  0  0  0  0  0  0  0  0  0  0
   10.9315   42.6004  131.7172 C   0  0  0  0  0  0  0  0  0  0  0  0
   10.3868   43.2405  130.4150 C   0  0  0  0  0  0  0  0  0  0  0  0
    9.0081   43.7352  130.6179 C   0  0  0  0  0  0  0  0  0  0  0  0
    8.4741   43.8781  131.9763 C   0  0  0  0  0  0  0  0  0  0  0  0
    8.0088   45.3350  133.9132 C   0  0  0  0  0  0  0  0  0  0  0  0
    7.9219   45.1769  132.4370 C   0  0  0  0  0  0  0  0  0  0  0  0
 21 22  1  0  0  0
 22 20  1  0  0  0
 20 19  1  0  0  0
 19 18  1  0  0  0
 18 17  1  0  0  0
 17 16  1  0  0  0
 16 15  1  0  0  0
 15 14  1  0  0  0
 14  1  1  0  0  0
  1  2  1  0  0  0
  2  3  1  0  0  0
  3  4  1  0  0  0
  4  6  1  0  0  0
  6  7  2  0  0  0
  7  8  1  0  0  0
  8  9  2  0  0  0
  9 10  1  0  0  0
 10 11  1  0  0  0
 10 12  2  0  0  0
  4  5  1  0  0  0
  5  1  1  0  0  0
 12  6  1  0  0  0
 11 13  1  0  0  0
M  END
> <minimizedAffinity>
-7.34671

> <CNNscore>
0.6151995659

> <CNNaffinity>
7.3410506248

> <CNN_VS>
4.5162110329

> <CNNaffinity_variance>
0.0399581119

$$$$
[H]Oc1c([H])c([H])c([H])c(C2([H])C([H])([H])N(C([H])([H])C([H])([H])C([H])([H])C([H])([H])C([H])([H])C([H])([H])C([H])([H])C([H])([H])C([H])([H])[H])C([H])([H])C2([H])[H])c1[H]


 22 23  0  0  0  0  0  0  0  0999 V2000
   10.6443   43.5529  130.3408 N   0  0  0  0  0  0  0  0  0  0  0  0
   11.2159   44.0115  131.5774 C   0  0  0  0  0  0  0  0  0  0  0  0
   11.3044   45.5138  131.4807 C   0  0  0  0  0  0  0  0  0  0  0  0
   10.5319   45.8515  130.2388 C   0  0  0  0  0  0  0  0  0  0  0  0
    9.7369   44.6370  129.9354 C   0  0  0  0  0  0  0  0  0  0  0  0
    9.6861   47.0636  130.4258 C   0  0  0  0  0  0  0  0  0  0  0  0
    9.7759   47.7438  131.6206 C   0  0  0  0  0  0  0  0  0  0  0  0
    9.0071   48.8905  131.8461 C   0  0  0  0  0  0  0  0  0  0  0  0
    8.1601   49.3238  130.8500 C   0  0  0  0  0  0  0  0  0  0  0  0
    8.0882   48.6308  129.6711 C   0  0  0  0  0  0  0  0  0  0  0  0
    7.2298   49.0847  128.6838 O   0  0  0  0  0  0  0  0  0  0  0  0
    8.8477   47.4848  129.4290 C   0  0  0  0  0  0  0  0  0  0  0  0
    6.6568   49.9134  128.8163 H   0  0  0  0  0  0  0  0  0  0  0  0
    9.9409   42.3160  130.4231 C   0  0  0  0  0  0  0  0  0  0  0  0
   10.8060   41.1049  130.5682 C   0  0  0  0  0  0  0  0  0  0  0  0
   10.1242   39.8213  130.2505 C   0  0  0  0  0  0  0  0  0  0  0  0
    9.4939   39.7318  128.9009 C   0  0  0  0  0  0  0  0  0  0  0  0
   10.4792   40.1745  127.7893 C   0  0  0  0  0  0  0  0  0  0  0  0
   10.9917   38.9993  127.0526 C   0  0  0  0  0  0  0  0  0  0  0  0
   10.9590   38.9830  125.5865 C   0  0  0  0  0  0  0  0  0  0  0  0
    9.7045   38.5758  123.5006 C   0  0  0  0  0  0  0  0  0  0  0  0
    9.6809   39.1826  124.8582 C   0  0  0  0  0  0  0  0  0  0  0  0
 21 22  1  0  0  0
 22 20  1  0  0  0
 20 19  1  0  0  0
 19 18  1  0  0  0
 18 17  1  0  0  0
 17 16  1  0  0  0
 16 15  1  0  0  0
 15 14  1  0  0  0
 14  1  1  0  0  0
  1  2  1  0  0  0
  2  3  1  0  0  0
  3  4  1  0  0  0
  4  6  1  0  0  0
  6  7  2  0  0  0
  7  8  1  0  0  0
  8  9  2  0  0  0
  9 10  1  0  0  0
 10 11  1  0  0  0
 10 12  2  0  0  0
  4  5  1  0  0  0
  5  1  1  0  0  0
 12  6  1  0  0  0
 11 13  1  0  0  0
M  END
> <minimizedAffinity>
12.93289

> <CNNscore>
0.5352159739

> <CNNaffinity>
6.8695960045

> <CNN_VS>
3.6767175198

> <CNNaffinity_variance>
2.4334785938

$$$$
[H]Oc1c([H])c([H])c([H])c(C2([H])C([H])([H])N(C([H])([H])C([H])([H])C([H])([H])C([H])([H])C([H])([H])C([H])([H])C([H])([H])C([H])([H])C([H])([H])[H])C([H])([H])C2([H])[H])c1[H]


 22 23  0  0  0  0  0  0  0  0999 V2000
    7.8136   47.0950  129.0791 N   0  0  0  0  0  0  0  0  0  0  0  0
    7.0734   46.5963  130.2060 C   0  0  0  0  0  0  0  0  0  0  0  0
    7.7075   45.2835  130.5915 C   0  0  0  0  0  0  0  0  0  0  0  0
    8.9654   45.2253  129.7747 C   0  0  0  0  0  0  0  0  0  0  0  0
    9.1852   46.6140  129.3031 C   0  0  0  0  0  0  0  0  0  0  0  0
   10.1130   44.6948  130.5629 C   0  0  0  0  0  0  0  0  0  0  0  0
   11.1691   45.5392  130.8267 C   0  0  0  0  0  0  0  0  0  0  0  0
   12.2696   45.0929  131.5662 C   0  0  0  0  0  0  0  0  0  0  0  0
   12.2742   43.7937  132.0238 C   0  0  0  0  0  0  0  0  0  0  0  0
   11.2128   42.9733  131.7487 C   0  0  0  0  0  0  0  0  0  0  0  0
   11.2391   41.6711  132.2188 O   0  0  0  0  0  0  0  0  0  0  0  0
   10.1068   43.4017  131.0123 C   0  0  0  0  0  0  0  0  0  0  0  0
   12.0237   41.3154  132.7578 H   0  0  0  0  0  0  0  0  0  0  0  0
    7.7987   48.5121  128.9267 C   0  0  0  0  0  0  0  0  0  0  0  0
    7.2717   49.2694  130.1034 C   0  0  0  0  0  0  0  0  0  0  0  0
    8.2801   50.1249  130.7851 C   0  0  0  0  0  0  0  0  0  0  0  0
    9.6134   49.4994  131.0256 C   0  0  0  0  0  0  0  0  0  0  0  0
    9.8695   49.2849  132.5391 C   0  0  0  0  0  0  0  0  0  0  0  0
    9.4198   47.9391  132.9553 C   0  0  0  0  0  0  0  0  0  0  0  0
   10.2183   47.1632  133.9099 C   0  0  0  0  0  0  0  0  0  0  0  0
    8.2973   45.6228  134.0763 C   0  0  0  0  0  0  0  0  0  0  0  0
    9.7231   45.8620  134.4253 C   0  0  0  0  0  0  0  0  0  0  0  0
 21 22  1  0  0  0
 22 20  1  0  0  0
 20 19  1  0  0  0
 19 18  1  0  0  0
 18 17  1  0  0  0
 17 16  1  0  0  0
 16 15  1  0  0  0
 15 14  1  0  0  0
 14  1  1  0  0  0
  1  2  1  0  0  0
  2  3  1  0  0  0
  3  4  1  0  0  0
  4  6  1  0  0  0
  6  7  2  0  0  0
  7  8  1  0  0  0
  8  9  2  0  0  0
  9 10  1  0  0  0
 10 11  1  0  0  0
 10 12  2  0  0  0
  4  5  1  0  0  0
  5  1  1  0  0  0
 12  6  1  0  0  0
 11 13  1  0  0  0
M  END
> <minimizedAffinity>
-7.74856

> <CNNscore>
0.4645175040

> <CNNaffinity>
7.0743513107

> <CNN_VS>
3.2861599922

> <CNNaffinity_variance>
0.3129634857

$$$$
[H]Oc1c([H])c([H])c([H])c(C2([H])C([H])([H])N(C([H])([H])C([H])([H])C([H])([H])C([H])([H])C([H])([H])C([H])([H])C([H])([H])C([H])([H])C([H])([H])[H])C([H])([H])C2([H])[H])c1[H]


 22 23  0  0  0  0  0  0  0  0999 V2000
    8.3621   44.8724  130.2091 N   0  0  0  0  0  0  0  0  0  0  0  0
    8.0298   45.6138  129.0233 C   0  0  0  0  0  0  0  0  0  0  0  0
    7.5569   46.9706  129.4814 C   0  0  0  0  0  0  0  0  0  0  0  0
    7.8822   47.0014  130.9464 C   0  0  0  0  0  0  0  0  0  0  0  0
    8.8446   45.8923  131.1525 C   0  0  0  0  0  0  0  0  0  0  0  0
    8.4266   48.3237  131.3646 C   0  0  0  0  0  0  0  0  0  0  0  0
    8.0295   49.4430  130.6664 C   0  0  0  0  0  0  0  0  0  0  0  0
    8.5072   50.7093  131.0205 C   0  0  0  0  0  0  0  0  0  0  0  0
    9.3813   50.8124  132.0800 C   0  0  0  0  0  0  0  0  0  0  0  0
    9.7615   49.6852  132.7585 C   0  0  0  0  0  0  0  0  0  0  0  0
   10.6412   49.8128  133.8203 O   0  0  0  0  0  0  0  0  0  0  0  0
    9.2950   48.4140  132.4190 C   0  0  0  0  0  0  0  0  0  0  0  0
   11.0076   50.7177  134.1024 H   0  0  0  0  0  0  0  0  0  0  0  0
    9.3422   43.8535  130.0289 C   0  0  0  0  0  0  0  0  0  0  0  0
    9.1324   42.9780  128.8350 C   0  0  0  0  0  0  0  0  0  0  0  0
   10.0690   41.8255  128.7460 C   0  0  0  0  0  0  0  0  0  0  0  0
   10.1667   41.1632  127.4123 C   0  0  0  0  0  0  0  0  0  0  0  0
   10.3263   39.6283  127.5566 C   0  0  0  0  0  0  0  0  0  0  0  0
   10.2693   38.9744  126.2316 C   0  0  0  0  0  0  0  0  0  0  0  0
   11.4252   39.0420  125.3315 C   0  0  0  0  0  0  0  0  0  0  0  0
    9.8369   38.7102  123.4720 C   0  0  0  0  0  0  0  0  0  0  0  0
   11.2363   39.0324  123.8590 C   0  0  0  0  0  0  0  0  0  0  0  0
 21 22  1  0  0  0
 22 20  1  0  0  0
 20 19  1  0  0  0
 19 18  1  0  0  0
 18 17  1  0  0  0
 17 16  1  0  0  0
 16 15  1  0  0  0
 15 14  1  0  0  0
 14  1  1  0  0  0
  1  2  1  0  0  0
  2  3  1  0  0  0
  3  4  1  0  0  0
  4  6  1  0  0  0
  6  7  2  0  0  0
  7  8  1  0  0  0
  8  9  2  0  0  0
  9 10  1  0  0  0
 10 11  1  0  0  0
 10 12  2  0  0  0
  4  5  1  0  0  0
  5  1  1  0  0  0
 12  6  1  0  0  0
 11 13  1  0  0  0
M  END
> <minimizedAffinity>
10.03143

> <CNNscore>
0.4162335098

> <CNNaffinity>
6.1313047409

> <CNN_VS>
2.5520544052

> <CNNaffinity_variance>
1.6164678335

$$$$
[H]OC(=O)/C([H])=C(\[H])c1c([H])c([H])c(Oc2c(-c3c([H])c([H])c(OC(F)(F)F)c([H])c3C([H])([H])[H])c(=O)oc3c([H])c(OC([H])([H])C([H])([H])[H])c([H])c([H])c23)c([H])c1[H]


 39 42  0  0  0  0  0  0  0  0999 V2000
    9.6511   51.2124  133.0458 C   0  0  0  0  0  0  0  0  0  0  0  0
    8.9737   50.7810  131.9317 C   0  0  0  0  0  0  0  0  0  0  0  0
    8.9249   49.4286  131.6734 C   0  0  0  0  0  0  0  0  0  0  0  0
    9.5327   48.5005  132.4953 C   0  0  0  0  0  0  0  0  0  0  0  0
    9.4848   47.1190  132.2412 C   0  0  0  0  0  0  0  0  0  0  0  0
   10.1374   46.3227  133.1599 C   0  0  0  0  0  0  0  0  0  0  0  0
   10.8084   46.8202  134.2752 C   0  0  0  0  0  0  0  0  0  0  0  0
   11.3933   46.0430  135.0908 O   0  0  0  0  0  0  0  0  0  0  0  0
   10.8173   48.1064  134.4550 O   0  0  0  0  0  0  0  0  0  0  0  0
   10.2106   48.9242  133.6114 C   0  0  0  0  0  0  0  0  0  0  0  0
   10.2560   50.2915  133.8657 C   0  0  0  0  0  0  0  0  0  0  0  0
   10.1753   44.8852  132.9887 C   0  0  0  0  0  0  0  0  0  0  0  0
    9.0890   44.1412  133.3423 C   0  0  0  0  0  0  0  0  0  0  0  0
    9.0910   42.7779  133.1901 C   0  0  0  0  0  0  0  0  0  0  0  0
   10.2049   42.1614  132.6744 C   0  0  0  0  0  0  0  0  0  0  0  0
   11.3079   42.9150  132.3152 C   0  0  0  0  0  0  0  0  0  0  0  0
   11.2879   44.2754  132.4744 C   0  0  0  0  0  0  0  0  0  0  0  0
   12.5104   45.0165  132.0696 C   0  0  0  0  0  0  0  0  0  0  0  0
   10.2067   40.7702  132.5191 O   0  0  0  0  0  0  0  0  0  0  0  0
   10.9403   40.1537  131.4666 C   0  0  0  0  0  0  0  0  0  0  0  0
   11.0987   41.0730  130.4594 F   0  0  0  0  0  0  0  0  0  0  0  0
   12.1746   39.7509  131.9420 F   0  0  0  0  0  0  0  0  0  0  0  0
   10.2946   39.0222  130.9910 F   0  0  0  0  0  0  0  0  0  0  0  0
    9.7083   52.5611  133.3158 O   0  0  0  0  0  0  0  0  0  0  0  0
   11.2366   53.6682  134.7878 C   0  0  0  0  0  0  0  0  0  0  0  0
    9.8510   53.0873  134.6210 C   0  0  0  0  0  0  0  0  0  0  0  0
    8.8219   46.7046  131.1481 O   0  0  0  0  0  0  0  0  0  0  0  0
    9.1447   46.3786  129.8826 C   0  0  0  0  0  0  0  0  0  0  0  0
    9.0894   47.2023  128.7894 C   0  0  0  0  0  0  0  0  0  0  0  0
    9.4345   46.8017  127.4991 C   0  0  0  0  0  0  0  0  0  0  0  0
    9.8653   45.4997  127.2633 C   0  0  0  0  0  0  0  0  0  0  0  0
    9.9301   44.6524  128.3443 C   0  0  0  0  0  0  0  0  0  0  0  0
    9.5844   45.0705  129.6075 C   0  0  0  0  0  0  0  0  0  0  0  0
   10.2194   45.1045  125.9112 C   0  0  0  0  0  0  0  0  0  0  0  0
   10.3763   45.9453  124.9091 C   0  0  0  0  0  0  0  0  0  0  0  0
   10.7376   45.4156  123.5797 C   0  0  0  0  0  0  0  0  0  0  0  0
    9.8718   44.9914  122.7837 O   0  0  0  0  0  0  0  0  0  0  0  0
   12.0581   45.3765  123.1805 O   0  0  0  0  0  0  0  0  0  0  0  0
   12.4312   45.9648  122.4266 H   0  0  0  0  0  0  0  0  0  0  0  0
 25 26  1  0  0  0
 26 24  1  0  0  0
 24  1  1  0  0  0
  1  2  2  0  0  0
  2  3  1  0  0  0
  3  4  2  0  0  0
  4  5  1  0  0  0
  5 27  1  0  0  0
 27 28  1  0  0  0
 28 29  2  0  0  0
 29 30  1  0  0  0
 30 31  2  0  0  0
 31 34  1  0  0  0
 34 35  2  0  0  0
 35 36  1  0  0  0
 36 37  2  0  0  0
 36 38  1  0  0  0
 31 32  1  0  0  0
 32 33  2  0  0  0
  5  6  2  0  0  0
  6 12  1  0  0  0
 12 13  2  0  0  0
 13 14  1  0  0  0
 14 15  2  0  0  0
 15 19  1  0  0  0
 19 20  1  0  0  0
 20 21  1  0  0  0
 20 22  1  0  0  0
 20 23  1  0  0  0
 15 16  1  0  0  0
 16 17  2  0  0  0
 17 18  1  0  0  0
  6  7  1  0  0  0
  7  8  2  0  0  0
  7  9  1  0  0  0
  9 10  1  0  0  0
 10 11  2  0  0  0
 11  1  1  0  0  0
 10  4  1  0  0  0
 33 28  1  0  0  0
 17 12  1  0  0  0
 38 39  1  0  0  0
M  END
> <minimizedAffinity>
30.53991

> <CNNscore>
0.5330884457

> <CNNaffinity>
7.6686391830

> <CNN_VS>
4.0880627632

> <CNNaffinity_variance>
1.4087964296

$$$$
[H]OC(=O)/C([H])=C(\[H])c1c([H])c([H])c(Oc2c(-c3c([H])c([H])c(OC(F)(F)F)c([H])c3C([H])([H])[H])c(=O)oc3c([H])c(OC([H])([H])C([H])([H])[H])c([H])c([H])c23)c([H])c1[H]


 39 42  0  0  0  0  0  0  0  0999 V2000
    9.6150   52.0550  133.4867 C   0  0  0  0  0  0  0  0  0  0  0  0
   10.2197   51.0170  134.1522 C   0  0  0  0  0  0  0  0  0  0  0  0
   10.2345   49.7738  133.5586 C   0  0  0  0  0  0  0  0  0  0  0  0
    9.6630   49.5419  132.3233 C   0  0  0  0  0  0  0  0  0  0  0  0
    9.6767   48.2778  131.7091 C   0  0  0  0  0  0  0  0  0  0  0  0
    9.0681   48.2112  130.4725 C   0  0  0  0  0  0  0  0  0  0  0  0
    8.4706   49.3028  129.8455 C   0  0  0  0  0  0  0  0  0  0  0  0
    7.9238   49.1875  128.7058 O   0  0  0  0  0  0  0  0  0  0  0  0
    8.4902   50.4444  130.4644 O   0  0  0  0  0  0  0  0  0  0  0  0
    9.0577   50.5748  131.6515 C   0  0  0  0  0  0  0  0  0  0  0  0
    9.0464   51.8275  132.2574 C   0  0  0  0  0  0  0  0  0  0  0  0
    9.0001   46.9551  129.7550 C   0  0  0  0  0  0  0  0  0  0  0  0
    7.7822   46.4395  129.4243 C   0  0  0  0  0  0  0  0  0  0  0  0
    7.6827   45.2535  128.7421 C   0  0  0  0  0  0  0  0  0  0  0  0
    8.8288   44.5825  128.3912 C   0  0  0  0  0  0  0  0  0  0  0  0
   10.0652   45.1045  128.7262 C   0  0  0  0  0  0  0  0  0  0  0  0
   10.1452   46.2901  129.4076 C   0  0  0  0  0  0  0  0  0  0  0  0
   11.5072   46.7855  129.7350 C   0  0  0  0  0  0  0  0  0  0  0  0
    8.7271   43.3723  127.6951 O   0  0  0  0  0  0  0  0  0  0  0  0
    9.8013   42.4385  127.6927 C   0  0  0  0  0  0  0  0  0  0  0  0
   10.9435   43.1006  127.3160 F   0  0  0  0  0  0  0  0  0  0  0  0
    9.9535   41.9106  128.9614 F   0  0  0  0  0  0  0  0  0  0  0  0
    9.5520   41.3781  126.8342 F   0  0  0  0  0  0  0  0  0  0  0  0
    9.5925   53.3025  134.0683 O   0  0  0  0  0  0  0  0  0  0  0  0
    8.1136   53.2991  135.9501 C   0  0  0  0  0  0  0  0  0  0  0  0
    9.5306   53.5075  135.4665 C   0  0  0  0  0  0  0  0  0  0  0  0
   10.2686   47.2666  132.3673 O   0  0  0  0  0  0  0  0  0  0  0  0
    9.9153   46.0312  132.7689 C   0  0  0  0  0  0  0  0  0  0  0  0
   10.6453   45.1956  133.5722 C   0  0  0  0  0  0  0  0  0  0  0  0
   10.2244   43.9210  133.9502 C   0  0  0  0  0  0  0  0  0  0  0  0
    8.9992   43.4303  133.5092 C   0  0  0  0  0  0  0  0  0  0  0  0
    8.2465   44.2499  132.7016 C   0  0  0  0  0  0  0  0  0  0  0  0
    8.6828   45.5031  132.3421 C   0  0  0  0  0  0  0  0  0  0  0  0
    8.5812   42.0998  133.9154 C   0  0  0  0  0  0  0  0  0  0  0  0
    7.3802   41.8055  134.3699 C   0  0  0  0  0  0  0  0  0  0  0  0
    7.0802   40.4113  134.7501 C   0  0  0  0  0  0  0  0  0  0  0  0
    5.9400   39.9204  134.6017 O   0  0  0  0  0  0  0  0  0  0  0  0
    8.0662   39.6075  135.2854 O   0  0  0  0  0  0  0  0  0  0  0  0
    8.4554   38.7967  134.7906 H   0  0  0  0  0  0  0  0  0  0  0  0
 25 26  1  0  0  0
 26 24  1  0  0  0
 24  1  1  0  0  0
  1  2  2  0  0  0
  2  3  1  0  0  0
  3  4  2  0  0  0
  4  5  1  0  0  0
  5 27  1  0  0  0
 27 28  1  0  0  0
 28 29  2  0  0  0
 29 30  1  0  0  0
 30 31  2  0  0  0
 31 34  1  0  0  0
 34 35  2  0  0  0
 35 36  1  0  0  0
 36 37  2  0  0  0
 36 38  1  0  0  0
 31 32  1  0  0  0
 32 33  2  0  0  0
  5  6  2  0  0  0
  6 12  1  0  0  0
 12 13  2  0  0  0
 13 14  1  0  0  0
 14 15  2  0  0  0
 15 19  1  0  0  0
 19 20  1  0  0  0
 20 21  1  0  0  0
 20 22  1  0  0  0
 20 23  1  0  0  0
 15 16  1  0  0  0
 16 17  2  0  0  0
 17 18  1  0  0  0
  6  7  1  0  0  0
  7  8  2  0  0  0
  7  9  1  0  0  0
  9 10  1  0  0  0
 10 11  2  0  0  0
 11  1  1  0  0  0
 10  4  1  0  0  0
 33 28  1  0  0  0
 17 12  1  0  0  0
 38 39  1  0  0  0
M  END
> <minimizedAffinity>
23.33994

> <CNNscore>
0.4775708616

> <CNNaffinity>
7.7874617577

> <CNN_VS>
3.7190647125

> <CNNaffinity_variance>
3.0723402500

$$$$
[H]OC(=O)/C([H])=C(\[H])c1c([H])c([H])c(Oc2c(-c3c([H])c([H])c(OC(F)(F)F)c([H])c3C([H])([H])[H])c(=O)oc3c([H])c(OC([H])([H])C([H])([H])[H])c([H])c([H])c23)c([H])c1[H]


 39 42  0  0  0  0  0  0  0  0999 V2000
   10.3073   40.8337  127.5912 C   0  0  0  0  0  0  0  0  0  0  0  0
   10.2883   40.7313  128.9606 C   0  0  0  0  0  0  0  0  0  0  0  0
   10.2132   41.8873  129.7063 C   0  0  0  0  0  0  0  0  0  0  0  0
   10.1572   43.1371  129.1220 C   0  0  0  0  0  0  0  0  0  0  0  0
   10.0769   44.3210  129.8750 C   0  0  0  0  0  0  0  0  0  0  0  0
   10.0229   45.4890  129.1423 C   0  0  0  0  0  0  0  0  0  0  0  0
   10.0446   45.5292  127.7496 C   0  0  0  0  0  0  0  0  0  0  0  0
    9.9922   46.6321  127.1233 O   0  0  0  0  0  0  0  0  0  0  0  0
   10.1202   44.4012  127.1104 O   0  0  0  0  0  0  0  0  0  0  0  0
   10.1746   43.2472  127.7537 C   0  0  0  0  0  0  0  0  0  0  0  0
   10.2510   42.0754  127.0071 C   0  0  0  0  0  0  0  0  0  0  0  0
    9.9622   46.7722  129.8107 C   0  0  0  0  0  0  0  0  0  0  0  0
    9.0434   47.6941  129.4053 C   0  0  0  0  0  0  0  0  0  0  0  0
    8.9573   48.9179  130.0191 C   0  0  0  0  0  0  0  0  0  0  0  0
    9.8109   49.2112  131.0546 C   0  0  0  0  0  0  0  0  0  0  0  0
   10.7437   48.2768  131.4670 C   0  0  0  0  0  0  0  0  0  0  0  0
   10.8152   47.0599  130.8421 C   0  0  0  0  0  0  0  0  0  0  0  0
   11.8444   46.1101  131.3383 C   0  0  0  0  0  0  0  0  0  0  0  0
    9.7229   50.4600  131.6810 O   0  0  0  0  0  0  0  0  0  0  0  0
    9.6888   50.5646  133.1000 C   0  0  0  0  0  0  0  0  0  0  0  0
    9.5661   51.8919  133.4287 F   0  0  0  0  0  0  0  0  0  0  0  0
    8.6088   49.8518  133.5871 F   0  0  0  0  0  0  0  0  0  0  0  0
   10.8293   50.0272  133.6776 F   0  0  0  0  0  0  0  0  0  0  0  0
   10.3826   39.6867  126.8336 O   0  0  0  0  0  0  0  0  0  0  0  0
   12.3207   38.5611  125.9937 C   0  0  0  0  0  0  0  0  0  0  0  0
   11.2207   39.5562  125.7017 C   0  0  0  0  0  0  0  0  0  0  0  0
   10.0607   44.2130  131.2145 O   0  0  0  0  0  0  0  0  0  0  0  0
    9.4057   43.4625  132.1199 C   0  0  0  0  0  0  0  0  0  0  0  0
    9.9557   42.8228  133.1992 C   0  0  0  0  0  0  0  0  0  0  0  0
    9.2211   42.0539  134.1013 C   0  0  0  0  0  0  0  0  0  0  0  0
    7.8482   41.9013  133.9336 C   0  0  0  0  0  0  0  0  0  0  0  0
    7.2712   42.5338  132.8576 C   0  0  0  0  0  0  0  0  0  0  0  0
    8.0164   43.2868  131.9814 C   0  0  0  0  0  0  0  0  0  0  0  0
    7.1033   41.0957  134.8853 C   0  0  0  0  0  0  0  0  0  0  0  0
    6.0943   40.3116  134.5648 C   0  0  0  0  0  0  0  0  0  0  0  0
    5.4189   39.5427  135.6284 C   0  0  0  0  0  0  0  0  0  0  0  0
    5.3178   39.9827  136.7943 O   0  0  0  0  0  0  0  0  0  0  0  0
    4.8763   38.3036  135.3550 O   0  0  0  0  0  0  0  0  0  0  0  0
    3.8658   38.1233  135.3591 H   0  0  0  0  0  0  0  0  0  0  0  0
 25 26  1  0  0  0
 26 24  1  0  0  0
 24  1  1  0  0  0
  1  2  2  0  0  0
  2  3  1  0  0  0
  3  4  2  0  0  0
  4  5  1  0  0  0
  5 27  1  0  0  0
 27 28  1  0  0  0
 28 29  2  0  0  0
 29 30  1  0  0  0
 30 31  2  0  0  0
 31 34  1  0  0  0
 34 35  2  0  0  0
 35 36  1  0  0  0
 36 37  2  0  0  0
 36 38  1  0  0  0
 31 32  1  0  0  0
 32 33  2  0  0  0
  5  6  2  0  0  0
  6 12  1  0  0  0
 12 13  2  0  0  0
 13 14  1  0  0  0
 14 15  2  0  0  0
 15 19  1  0  0  0
 19 20  1  0  0  0
 20 21  1  0  0  0
 20 22  1  0  0  0
 20 23  1  0  0  0
 15 16  1  0  0  0
 16 17  2  0  0  0
 17 18  1  0  0  0
  6  7  1  0  0  0
  7  8  2  0  0  0
  7  9  1  0  0  0
  9 10  1  0  0  0
 10 11  2  0  0  0
 11  1  1  0  0  0
 10  4  1  0  0  0
 33 28  1  0  0  0
 17 12  1  0  0  0
 38 39  1  0  0  0
M  END
> <minimizedAffinity>
31.21735

> <CNNscore>
0.4428429902

> <CNNaffinity>
7.2498641014

> <CNN_VS>
3.2105515003

> <CNNaffinity_variance>
2.1466155052

$$$$
[H]OC(=O)/C([H])=C(\[H])c1c([H])c([H])c(Oc2c(-c3c([H])c([H])c(OC(F)(F)F)c([H])c3C([H])([H])[H])c(=O)oc3c([H])c(OC([H])([H])C([H])([H])[H])c([H])c([H])c23)c([H])c1[H]


 39 42  0  0  0  0  0  0  0  0999 V2000
   10.0037   40.8751  129.2885 C   0  0  0  0  0  0  0  0  0  0  0  0
    9.8381   41.1732  130.6189 C   0  0  0  0  0  0  0  0  0  0  0  0
    9.5488   42.4732  130.9713 C   0  0  0  0  0  0  0  0  0  0  0  0
    9.4215   43.4785  130.0334 C   0  0  0  0  0  0  0  0  0  0  0  0
    9.1230   44.8064  130.3839 C   0  0  0  0  0  0  0  0  0  0  0  0
    9.0241   45.6915  129.3300 C   0  0  0  0  0  0  0  0  0  0  0  0
    9.2018   45.3283  127.9965 C   0  0  0  0  0  0  0  0  0  0  0  0
    9.0994   46.1828  127.0636 O   0  0  0  0  0  0  0  0  0  0  0  0
    9.4762   44.0857  127.7369 O   0  0  0  0  0  0  0  0  0  0  0  0
    9.5844   43.1879  128.7016 C   0  0  0  0  0  0  0  0  0  0  0  0
    9.8769   41.8729  128.3532 C   0  0  0  0  0  0  0  0  0  0  0  0
    8.7436   47.0915  129.5716 C   0  0  0  0  0  0  0  0  0  0  0  0
    9.7748   47.9824  129.6113 C   0  0  0  0  0  0  0  0  0  0  0  0
    9.5435   49.3160  129.8349 C   0  0  0  0  0  0  0  0  0  0  0  0
    8.2541   49.7520  130.0203 C   0  0  0  0  0  0  0  0  0  0  0  0
    7.2069   48.8492  129.9804 C   0  0  0  0  0  0  0  0  0  0  0  0
    7.4570   47.5212  129.7560 C   0  0  0  0  0  0  0  0  0  0  0  0
    6.2821   46.6120  129.7303 C   0  0  0  0  0  0  0  0  0  0  0  0
    8.0182   51.1128  130.2484 O   0  0  0  0  0  0  0  0  0  0  0  0
    6.9003   51.7689  129.6605 C   0  0  0  0  0  0  0  0  0  0  0  0
    7.1401   53.1206  129.6762 F   0  0  0  0  0  0  0  0  0  0  0  0
    6.7415   51.3287  128.3595 F   0  0  0  0  0  0  0  0  0  0  0  0
    5.7255   51.4786  130.3381 F   0  0  0  0  0  0  0  0  0  0  0  0
   10.2935   39.5802  128.9220 O   0  0  0  0  0  0  0  0  0  0  0  0
   11.0335   39.3858  126.6542 C   0  0  0  0  0  0  0  0  0  0  0  0
    9.9601   39.0362  127.6596 C   0  0  0  0  0  0  0  0  0  0  0  0
    8.9644   45.0909  131.6878 O   0  0  0  0  0  0  0  0  0  0  0  0
    9.6809   45.7196  132.6383 C   0  0  0  0  0  0  0  0  0  0  0  0
   10.7897   45.2326  133.2787 C   0  0  0  0  0  0  0  0  0  0  0  0
   11.4876   45.9341  134.2613 C   0  0  0  0  0  0  0  0  0  0  0  0
   11.0685   47.2047  134.6436 C   0  0  0  0  0  0  0  0  0  0  0  0
    9.9577   47.7169  134.0156 C   0  0  0  0  0  0  0  0  0  0  0  0
    9.2859   47.0060  133.0494 C   0  0  0  0  0  0  0  0  0  0  0  0
   11.8106   47.9167  135.6694 C   0  0  0  0  0  0  0  0  0  0  0  0
   13.1168   48.0877  135.6568 C   0  0  0  0  0  0  0  0  0  0  0  0
   13.7522   48.8322  136.7615 C   0  0  0  0  0  0  0  0  0  0  0  0
   14.9128   48.5725  137.1471 O   0  0  0  0  0  0  0  0  0  0  0  0
   13.0692   49.8460  137.4021 O   0  0  0  0  0  0  0  0  0  0  0  0
   13.3384   50.8339  137.3288 H   0  0  0  0  0  0  0  0  0  0  0  0
 25 26  1  0  0  0
 26 24  1  0  0  0
 24  1  1  0  0  0
  1  2  2  0  0  0
  2  3  1  0  0  0
  3  4  2  0  0  0
  4  5  1  0  0  0
  5 27  1  0  0  0
 27 28  1  0  0  0
 28 29  2  0  0  0
 29 30  1  0  0  0
 30 31  2  0  0  0
 31 34  1  0  0  0
 34 35  2  0  0  0
 35 36  1  0  0  0
 36 37  2  0  0  0
 36 38  1  0  0  0
 31 32  1  0  0  0
 32 33  2  0  0  0
  5  6  2  0  0  0
  6 12  1  0  0  0
 12 13  2  0  0  0
 13 14  1  0  0  0
 14 15  2  0  0  0
 15 19  1  0  0  0
 19 20  1  0  0  0
 20 21  1  0  0  0
 20 22  1  0  0  0
 20 23  1  0  0  0
 15 16  1  0  0  0
 16 17  2  0  0  0
 17 18  1  0  0  0
  6  7  1  0  0  0
  7  8  2  0  0  0
  7  9  1  0  0  0
  9 10  1  0  0  0
 10 11  2  0  0  0
 11  1  1  0  0  0
 10  4  1  0  0  0
 33 28  1  0  0  0
 17 12  1  0  0  0
 38 39  1  0  0  0
M  END
> <minimizedAffinity>
20.50170

> <CNNscore>
0.4305772781

> <CNNaffinity>
7.6277656555

> <CNN_VS>
3.2843425274

> <CNNaffinity_variance>
2.3925454617

$$$$
[H]OC(=O)/C([H])=C(\[H])c1c([H])c([H])c(Oc2c(-c3c([H])c([H])c(OC(F)(F)F)c([H])c3C([H])([H])[H])c(=O)oc3c([H])c(OC([H])([H])C([H])([H])[H])c([H])c([H])c23)c([H])c1[H]


 39 42  0  0  0  0  0  0  0  0999 V2000
    9.3213   43.2658  128.1058 C   0  0  0  0  0  0  0  0  0  0  0  0
    9.0253   42.5522  129.2413 C   0  0  0  0  0  0  0  0  0  0  0  0
    9.2984   43.1207  130.4662 C   0  0  0  0  0  0  0  0  0  0  0  0
    9.8574   44.3776  130.5854 C   0  0  0  0  0  0  0  0  0  0  0  0
   10.1360   44.9664  131.8307 C   0  0  0  0  0  0  0  0  0  0  0  0
   10.6893   46.2294  131.7806 C   0  0  0  0  0  0  0  0  0  0  0  0
   10.9664   46.9052  130.5939 C   0  0  0  0  0  0  0  0  0  0  0  0
   11.4763   48.0676  130.6035 O   0  0  0  0  0  0  0  0  0  0  0  0
   10.6866   46.3078  129.4752 O   0  0  0  0  0  0  0  0  0  0  0  0
   10.1549   45.0973  129.4548 C   0  0  0  0  0  0  0  0  0  0  0  0
    9.8766   44.5166  128.2213 C   0  0  0  0  0  0  0  0  0  0  0  0
   11.0404   46.9254  133.0011 C   0  0  0  0  0  0  0  0  0  0  0  0
   12.2229   46.6399  133.6166 C   0  0  0  0  0  0  0  0  0  0  0  0
   12.5872   47.2832  134.7722 C   0  0  0  0  0  0  0  0  0  0  0  0
   11.7450   48.2256  135.3101 C   0  0  0  0  0  0  0  0  0  0  0  0
   10.5449   48.5163  134.6867 C   0  0  0  0  0  0  0  0  0  0  0  0
   10.1977   47.8638  133.5334 C   0  0  0  0  0  0  0  0  0  0  0  0
    8.8923   48.2269  132.9238 C   0  0  0  0  0  0  0  0  0  0  0  0
   12.1169   48.8821  136.4892 O   0  0  0  0  0  0  0  0  0  0  0  0
   13.4427   49.3680  136.6678 C   0  0  0  0  0  0  0  0  0  0  0  0
   13.6507   50.3850  135.7693 F   0  0  0  0  0  0  0  0  0  0  0  0
   13.5897   49.8370  137.9601 F   0  0  0  0  0  0  0  0  0  0  0  0
   14.3817   48.3635  136.4865 F   0  0  0  0  0  0  0  0  0  0  0  0
    9.0540   42.7097  126.8752 O   0  0  0  0  0  0  0  0  0  0  0  0
   11.4021   42.8611  126.4373 C   0  0  0  0  0  0  0  0  0  0  0  0
   10.0588   42.3835  125.9346 C   0  0  0  0  0  0  0  0  0  0  0  0
    9.8454   44.2613  132.9374 O   0  0  0  0  0  0  0  0  0  0  0  0
    8.7384   43.9940  133.6552 C   0  0  0  0  0  0  0  0  0  0  0  0
    8.1758   42.7614  133.8568 C   0  0  0  0  0  0  0  0  0  0  0  0
    7.0213   42.5504  134.6100 C   0  0  0  0  0  0  0  0  0  0  0  0
    6.3716   43.6252  135.2091 C   0  0  0  0  0  0  0  0  0  0  0  0
    6.9163   44.8738  135.0222 C   0  0  0  0  0  0  0  0  0  0  0  0
    8.0558   45.0570  134.2750 C   0  0  0  0  0  0  0  0  0  0  0  0
    5.1706   43.3819  135.9889 C   0  0  0  0  0  0  0  0  0  0  0  0
    4.2722   44.3020  136.2751 C   0  0  0  0  0  0  0  0  0  0  0  0
    3.0924   43.9257  137.0781 C   0  0  0  0  0  0  0  0  0  0  0  0
    3.0310   44.1583  138.3050 O   0  0  0  0  0  0  0  0  0  0  0  0
    2.0156   43.2998  136.4835 O   0  0  0  0  0  0  0  0  0  0  0  0
    1.0989   43.7488  136.3751 H   0  0  0  0  0  0  0  0  0  0  0  0
 25 26  1  0  0  0
 26 24  1  0  0  0
 24  1  1  0  0  0
  1  2  2  0  0  0
  2  3  1  0  0  0
  3  4  2  0  0  0
  4  5  1  0  0  0
  5 27  1  0  0  0
 27 28  1  0  0  0
 28 29  2  0  0  0
 29 30  1  0  0  0
 30 31  2  0  0  0
 31 34  1  0  0  0
 34 35  2  0  0  0
 35 36  1  0  0  0
 36 37  2  0  0  0
 36 38  1  0  0  0
 31 32  1  0  0  0
 32 33  2  0  0  0
  5  6  2  0  0  0
  6 12  1  0  0  0
 12 13  2  0  0  0
 13 14  1  0  0  0
 14 15  2  0  0  0
 15 19  1  0  0  0
 19 20  1  0  0  0
 20 21  1  0  0  0
 20 22  1  0  0  0
 20 23  1  0  0  0
 15 16  1  0  0  0
 16 17  2  0  0  0
 17 18  1  0  0  0
  6  7  1  0  0  0
  7  8  2  0  0  0
  7  9  1  0  0  0
  9 10  1  0  0  0
 10 11  2  0  0  0
 11  1  1  0  0  0
 10  4  1  0  0  0
 33 28  1  0  0  0
 17 12  1  0  0  0
 38 39  1  0  0  0
M  END
> <minimizedAffinity>
43.33290

> <CNNscore>
0.4221094549

> <CNNaffinity>
7.1069273949

> <CNN_VS>
2.9999012947

> <CNNaffinity_variance>
1.5653610229

$$$$
[H]OC(=O)/C([H])=C(\[H])c1c([H])c([H])c(Oc2c(-c3c([H])c([H])c(OC(F)(F)F)c([H])c3C([H])([H])[H])c(=O)oc3c([H])c(OC([H])([H])C([H])([H])[H])c([H])c([H])c23)c([H])c1[H]


 39 42  0  0  0  0  0  0  0  0999 V2000
   10.7360   45.2814  125.5220 C   0  0  0  0  0  0  0  0  0  0  0  0
   11.1601   44.3404  126.4279 C   0  0  0  0  0  0  0  0  0  0  0  0
   10.9780   44.5898  127.7705 C   0  0  0  0  0  0  0  0  0  0  0  0
   10.3862   45.7498  128.2294 C   0  0  0  0  0  0  0  0  0  0  0  0
   10.1933   46.0107  129.5968 C   0  0  0  0  0  0  0  0  0  0  0  0
    9.5826   47.2122  129.8924 C   0  0  0  0  0  0  0  0  0  0  0  0
    9.1720   48.1286  128.9264 C   0  0  0  0  0  0  0  0  0  0  0  0
    8.6138   49.2211  129.2523 O   0  0  0  0  0  0  0  0  0  0  0  0
    9.3785   47.8302  127.6794 O   0  0  0  0  0  0  0  0  0  0  0  0
    9.9586   46.6946  127.3297 C   0  0  0  0  0  0  0  0  0  0  0  0
   10.1462   46.4359  125.9754 C   0  0  0  0  0  0  0  0  0  0  0  0
    9.3532   47.5994  131.2688 C   0  0  0  0  0  0  0  0  0  0  0  0
    8.4428   46.9104  132.0139 C   0  0  0  0  0  0  0  0  0  0  0  0
    8.2038   47.2493  133.3216 C   0  0  0  0  0  0  0  0  0  0  0  0
    8.8941   48.2971  133.8806 C   0  0  0  0  0  0  0  0  0  0  0  0
    9.8181   48.9971  133.1258 C   0  0  0  0  0  0  0  0  0  0  0  0
   10.0435   48.6445  131.8215 C   0  0  0  0  0  0  0  0  0  0  0  0
   11.0477   49.4447  131.0738 C   0  0  0  0  0  0  0  0  0  0  0  0
    8.6503   48.6428  135.2150 O   0  0  0  0  0  0  0  0  0  0  0  0
    8.4569   47.6395  136.2059 C   0  0  0  0  0  0  0  0  0  0  0  0
    8.5238   48.2377  137.4398 F   0  0  0  0  0  0  0  0  0  0  0  0
    7.2181   47.0516  136.0284 F   0  0  0  0  0  0  0  0  0  0  0  0
    9.4066   46.6339  136.1042 F   0  0  0  0  0  0  0  0  0  0  0  0
   10.9121   45.0454  124.1772 O   0  0  0  0  0  0  0  0  0  0  0  0
   12.5752   45.4325  122.5002 C   0  0  0  0  0  0  0  0  0  0  0  0
   12.1125   44.5380  123.6276 C   0  0  0  0  0  0  0  0  0  0  0  0
   10.6127   45.0861  130.4774 O   0  0  0  0  0  0  0  0  0  0  0  0
   10.0307   44.2428  131.3505 C   0  0  0  0  0  0  0  0  0  0  0  0
   10.6709   43.4230  132.2419 C   0  0  0  0  0  0  0  0  0  0  0  0
   10.0086   42.5660  133.1202 C   0  0  0  0  0  0  0  0  0  0  0  0
    8.6183   42.5086  133.1253 C   0  0  0  0  0  0  0  0  0  0  0  0
    7.9513   43.3222  132.2399 C   0  0  0  0  0  0  0  0  0  0  0  0
    8.6265   44.1590  131.3832 C   0  0  0  0  0  0  0  0  0  0  0  0
    7.9497   41.6085  134.0486 C   0  0  0  0  0  0  0  0  0  0  0  0
    6.6485   41.4038  134.0746 C   0  0  0  0  0  0  0  0  0  0  0  0
    6.0915   40.4612  135.0643 C   0  0  0  0  0  0  0  0  0  0  0  0
    5.8881   39.2595  134.7855 O   0  0  0  0  0  0  0  0  0  0  0  0
    5.7786   40.8919  136.3376 O   0  0  0  0  0  0  0  0  0  0  0  0
    6.2935   40.5881  137.1721 H   0  0  0  0  0  0  0  0  0  0  0  0
 25 26  1  0  0  0
 26 24  1  0  0  0
 24  1  1  0  0  0
  1  2  2  0  0  0
  2  3  1  0  0  0
  3  4  2  0  0  0
  4  5  1  0  0  0
  5 27  1  0  0  0
 27 28  1  0  0  0
 28 29  2  0  0  0
 29 30  1  0  0  0
 30 31  2  0  0  0
 31 34  1  0  0  0
 34 35  2  0  0  0
 35 36  1  0  0  0
 36 37  2  0  0  0
 36 38  1  0  0  0
 31 32  1  0  0  0
 32 33  2  0  0  0
  5  6  2  0  0  0
  6 12  1  0  0  0
 12 13  2  0  0  0
 13 14  1  0  0  0
 14 15  2  0  0  0
 15 19  1  0  0  0
 19 20  1  0  0  0
 20 21  1  0  0  0
 20 22  1  0  0  0
 20 23  1  0  0  0
 15 16  1  0  0  0
 16 17  2  0  0  0
 17 18  1  0  0  0
  6  7  1  0  0  0
  7  8  2  0  0  0
  7  9  1  0  0  0
  9 10  1  0  0  0
 10 11  2  0  0  0
 11  1  1  0  0  0
 10  4  1  0  0  0
 33 28  1  0  0  0
 17 12  1  0  0  0
 38 39  1  0  0  0
M  END
> <minimizedAffinity>
34.60931

> <CNNscore>
0.4190624356

> <CNNaffinity>
7.3406267166

> <CNN_VS>
3.0761809349

> <CNNaffinity_variance>
1.5439163446

$$$$
[H]OC(=O)/C([H])=C(\[H])c1c([H])c([H])c(Oc2c(-c3c([H])c([H])c(OC(F)(F)F)c([H])c3C([H])([H])[H])c(=O)oc3c([H])c(OC([H])([H])C([H])([H])[H])c([H])c([H])c23)c([H])c1[H]


 39 42  0  0  0  0  0  0  0  0999 V2000
    9.2440   42.4182  130.8656 C   0  0  0  0  0  0  0  0  0  0  0  0
    9.2447   43.1007  132.0574 C   0  0  0  0  0  0  0  0  0  0  0  0
    8.9149   44.4383  132.0503 C   0  0  0  0  0  0  0  0  0  0  0  0
    8.5865   45.1087  130.8888 C   0  0  0  0  0  0  0  0  0  0  0  0
    8.2455   46.4720  130.8730 C   0  0  0  0  0  0  0  0  0  0  0  0
    7.9374   46.9934  129.6332 C   0  0  0  0  0  0  0  0  0  0  0  0
    7.9531   46.2482  128.4559 C   0  0  0  0  0  0  0  0  0  0  0  0
    7.6606   46.7771  127.3396 O   0  0  0  0  0  0  0  0  0  0  0  0
    8.2769   44.9930  128.5358 O   0  0  0  0  0  0  0  0  0  0  0  0
    8.5826   44.4327  129.6938 C   0  0  0  0  0  0  0  0  0  0  0  0
    8.9170   43.0821  129.7087 C   0  0  0  0  0  0  0  0  0  0  0  0
    7.5939   48.3930  129.4907 C   0  0  0  0  0  0  0  0  0  0  0  0
    8.5816   49.3315  129.5369 C   0  0  0  0  0  0  0  0  0  0  0  0
    8.2907   50.6654  129.4022 C   0  0  0  0  0  0  0  0  0  0  0  0
    6.9857   51.0529  129.2188 C   0  0  0  0  0  0  0  0  0  0  0  0
    5.9825   50.1017  129.1717 C   0  0  0  0  0  0  0  0  0  0  0  0
    6.2918   48.7742  129.3082 C   0  0  0  0  0  0  0  0  0  0  0  0
    5.1609   47.8122  129.2504 C   0  0  0  0  0  0  0  0  0  0  0  0
    6.6890   52.4139  129.0812 O   0  0  0  0  0  0  0  0  0  0  0  0
    7.0215   53.1172  127.8893 C   0  0  0  0  0  0  0  0  0  0  0  0
    7.8288   54.1750  128.2274 F   0  0  0  0  0  0  0  0  0  0  0  0
    7.6872   52.2675  127.0253 F   0  0  0  0  0  0  0  0  0  0  0  0
    5.8871   53.5666  127.2301 F   0  0  0  0  0  0  0  0  0  0  0  0
    9.5720   41.0812  130.8579 O   0  0  0  0  0  0  0  0  0  0  0  0
   11.1312   41.0223  132.6728 C   0  0  0  0  0  0  0  0  0  0  0  0
   10.8372   40.5887  131.2548 C   0  0  0  0  0  0  0  0  0  0  0  0
    8.2502   47.1337  132.0428 O   0  0  0  0  0  0  0  0  0  0  0  0
    9.1301   47.3324  133.0420 C   0  0  0  0  0  0  0  0  0  0  0  0
    8.9461   47.0224  134.3636 C   0  0  0  0  0  0  0  0  0  0  0  0
    9.8983   47.2581  135.3547 C   0  0  0  0  0  0  0  0  0  0  0  0
   11.1193   47.8394  135.0265 C   0  0  0  0  0  0  0  0  0  0  0  0
   11.3294   48.1600  133.7060 C   0  0  0  0  0  0  0  0  0  0  0  0
   10.3750   47.9180  132.7465 C   0  0  0  0  0  0  0  0  0  0  0  0
   12.0961   48.0758  136.0752 C   0  0  0  0  0  0  0  0  0  0  0  0
   13.1717   48.8232  135.9331 C   0  0  0  0  0  0  0  0  0  0  0  0
   14.0882   48.9844  137.0787 C   0  0  0  0  0  0  0  0  0  0  0  0
   13.8929   49.8495  137.9599 O   0  0  0  0  0  0  0  0  0  0  0  0
   15.1967   48.1719  137.2039 O   0  0  0  0  0  0  0  0  0  0  0  0
   15.2931   47.4694  137.9462 H   0  0  0  0  0  0  0  0  0  0  0  0
 25 26  1  0  0  0
 26 24  1  0  0  0
 24  1  1  0  0  0
  1  2  2  0  0  0
  2  3  1  0  0  0
  3  4  2  0  0  0
  4  5  1  0  0  0
  5 27  1  0  0  0
 27 28  1  0  0  0
 28 29  2  0  0  0
 29 30  1  0  0  0
 30 31  2  0  0  0
 31 34  1  0  0  0
 34 35  2  0  0  0
 35 36  1  0  0  0
 36 37  2  0  0  0
 36 38  1  0  0  0
 31 32  1  0  0  0
 32 33  2  0  0  0
  5  6  2  0  0  0
  6 12  1  0  0  0
 12 13  2  0  0  0
 13 14  1  0  0  0
 14 15  2  0  0  0
 15 19  1  0  0  0
 19 20  1  0  0  0
 20 21  1  0  0  0
 20 22  1  0  0  0
 20 23  1  0  0  0
 15 16  1  0  0  0
 16 17  2  0  0  0
 17 18  1  0  0  0
  6  7  1  0  0  0
  7  8  2  0  0  0
  7  9  1  0  0  0
  9 10  1  0  0  0
 10 11  2  0  0  0
 11  1  1  0  0  0
 10  4  1  0  0  0
 33 28  1  0  0  0
 17 12  1  0  0  0
 38 39  1  0  0  0
M  END
> <minimizedAffinity>
15.01181

> <CNNscore>
0.4056081772

> <CNNaffinity>
7.5950355530

> <CNN_VS>
3.0806086063

> <CNNaffinity_variance>
1.8448359966

$$$$
[H]OC(=O)/C([H])=C(\[H])c1c([H])c([H])c(Oc2c(-c3c([H])c([H])c(OC(F)(F)F)c([H])c3C([H])([H])[H])c(=O)oc3c([H])c(OC([H])([H])C([H])([H])[H])c([H])c([H])c23)c([H])c1[H]


 39 42  0  0  0  0  0  0  0  0999 V2000
    9.5316   43.9934  127.1039 C   0  0  0  0  0  0  0  0  0  0  0  0
    9.7807   43.0351  128.0556 C   0  0  0  0  0  0  0  0  0  0  0  0
   10.1078   43.4425  129.3304 C   0  0  0  0  0  0  0  0  0  0  0  0
   10.1924   44.7762  129.6773 C   0  0  0  0  0  0  0  0  0  0  0  0
   10.5219   45.2004  130.9760 C   0  0  0  0  0  0  0  0  0  0  0  0
   10.5601   46.5670  131.1631 C   0  0  0  0  0  0  0  0  0  0  0  0
   10.2957   47.4927  130.1558 C   0  0  0  0  0  0  0  0  0  0  0  0
   10.3443   48.7409  130.3812 O   0  0  0  0  0  0  0  0  0  0  0  0
    9.9974   47.0382  128.9763 O   0  0  0  0  0  0  0  0  0  0  0  0
    9.9437   45.7398  128.7316 C   0  0  0  0  0  0  0  0  0  0  0  0
    9.6143   45.3209  127.4462 C   0  0  0  0  0  0  0  0  0  0  0  0
   10.9113   47.1210  132.4542 C   0  0  0  0  0  0  0  0  0  0  0  0
   12.1768   46.9519  132.9322 C   0  0  0  0  0  0  0  0  0  0  0  0
   12.5430   47.4666  134.1499 C   0  0  0  0  0  0  0  0  0  0  0  0
   11.6177   48.1600  134.8915 C   0  0  0  0  0  0  0  0  0  0  0  0
   10.3333   48.3324  134.4078 C   0  0  0  0  0  0  0  0  0  0  0  0
    9.9856   47.8112  133.1897 C   0  0  0  0  0  0  0  0  0  0  0  0
    8.5875   48.0342  132.7386 C   0  0  0  0  0  0  0  0  0  0  0  0
   11.9915   48.6853  136.1340 O   0  0  0  0  0  0  0  0  0  0  0  0
   13.3191   49.1441  136.3636 C   0  0  0  0  0  0  0  0  0  0  0  0
   13.4699   49.3622  137.7107 F   0  0  0  0  0  0  0  0  0  0  0  0
   14.2173   48.1851  135.9332 F   0  0  0  0  0  0  0  0  0  0  0  0
   13.5865   50.3049  135.6533 F   0  0  0  0  0  0  0  0  0  0  0  0
    9.2041   43.6005  125.8258 O   0  0  0  0  0  0  0  0  0  0  0  0
    7.9453   42.5442  124.0857 C   0  0  0  0  0  0  0  0  0  0  0  0
    7.9002   43.2077  125.4433 C   0  0  0  0  0  0  0  0  0  0  0  0
   10.7662   44.2570  131.9014 O   0  0  0  0  0  0  0  0  0  0  0  0
   10.0315   43.3798  132.6107 C   0  0  0  0  0  0  0  0  0  0  0  0
   10.5083   42.4165  133.4598 C   0  0  0  0  0  0  0  0  0  0  0  0
    9.6924   41.5322  134.1649 C   0  0  0  0  0  0  0  0  0  0  0  0
    8.3091   41.5972  134.0278 C   0  0  0  0  0  0  0  0  0  0  0  0
    7.8047   42.5561  133.1812 C   0  0  0  0  0  0  0  0  0  0  0  0
    8.6295   43.4170  132.4965 C   0  0  0  0  0  0  0  0  0  0  0  0
    7.4789   40.6661  134.7717 C   0  0  0  0  0  0  0  0  0  0  0  0
    6.1624   40.7061  134.8019 C   0  0  0  0  0  0  0  0  0  0  0  0
    5.4335   39.6996  135.5981 C   0  0  0  0  0  0  0  0  0  0  0  0
    5.0567   38.6158  135.1016 O   0  0  0  0  0  0  0  0  0  0  0  0
    5.1479   39.9363  136.9275 O   0  0  0  0  0  0  0  0  0  0  0  0
    5.5811   39.4089  137.6942 H   0  0  0  0  0  0  0  0  0  0  0  0
 25 26  1  0  0  0
 26 24  1  0  0  0
 24  1  1  0  0  0
  1  2  2  0  0  0
  2  3  1  0  0  0
  3  4  2  0  0  0
  4  5  1  0  0  0
  5 27  1  0  0  0
 27 28  1  0  0  0
 28 29  2  0  0  0
 29 30  1  0  0  0
 30 31  2  0  0  0
 31 34  1  0  0  0
 34 35  2  0  0  0
 35 36  1  0  0  0
 36 37  2  0  0  0
 36 38  1  0  0  0
 31 32  1  0  0  0
 32 33  2  0  0  0
  5  6  2  0  0  0
  6 12  1  0  0  0
 12 13  2  0  0  0
 13 14  1  0  0  0
 14 15  2  0  0  0
 15 19  1  0  0  0
 19 20  1  0  0  0
 20 21  1  0  0  0
 20 22  1  0  0  0
 20 23  1  0  0  0
 15 16  1  0  0  0
 16 17  2  0  0  0
 17 18  1  0  0  0
  6  7  1  0  0  0
  7  8  2  0  0  0
  7  9  1  0  0  0
  9 10  1  0  0  0
 10 11  2  0  0  0
 11  1  1  0  0  0
 10  4  1  0  0  0
 33 28  1  0  0  0
 17 12  1  0  0  0
 38 39  1  0  0  0
M  END
> <minimizedAffinity>
36.06116

> <CNNscore>
0.3903467953

> <CNNaffinity>
7.3415288925

> <CNN_VS>
2.8657422066

> <CNNaffinity_variance>
2.6684794426

$$$$
[H]OC(=O)/C([H])=C(\[H])c1c([H])c([H])c(Oc2c(-c3c([H])c([H])c(OC(F)(F)F)c([H])c3C([H])([H])[H])c(=O)oc3c([H])c(OC([H])([H])C([H])([H])[H])c([H])c([H])c23)c([H])c1[H]


 39 42  0  0  0  0  0  0  0  0999 V2000
   10.0683   40.5574  127.7848 C   0  0  0  0  0  0  0  0  0  0  0  0
   10.1395   40.4946  129.1549 C   0  0  0  0  0  0  0  0  0  0  0  0
   10.0530   41.6671  129.8732 C   0  0  0  0  0  0  0  0  0  0  0  0
    9.8982   42.8949  129.2609 C   0  0  0  0  0  0  0  0  0  0  0  0
    9.8055   44.0953  129.9861 C   0  0  0  0  0  0  0  0  0  0  0  0
    9.6477   45.2372  129.2277 C   0  0  0  0  0  0  0  0  0  0  0  0
    9.5808   45.2374  127.8359 C   0  0  0  0  0  0  0  0  0  0  0  0
    9.4344   46.3175  127.1854 O   0  0  0  0  0  0  0  0  0  0  0  0
    9.6731   44.0960  127.2231 O   0  0  0  0  0  0  0  0  0  0  0  0
    9.8251   42.9655  127.8918 C   0  0  0  0  0  0  0  0  0  0  0  0
    9.9136   41.7773  127.1730 C   0  0  0  0  0  0  0  0  0  0  0  0
    9.5643   46.5350  129.8647 C   0  0  0  0  0  0  0  0  0  0  0  0
   10.6794   47.3157  129.9393 C   0  0  0  0  0  0  0  0  0  0  0  0
   10.6340   48.5515  130.5332 C   0  0  0  0  0  0  0  0  0  0  0  0
    9.4466   49.0014  131.0571 C   0  0  0  0  0  0  0  0  0  0  0  0
    8.3143   48.2105  130.9821 C   0  0  0  0  0  0  0  0  0  0  0  0
    8.3786   46.9791  130.3854 C   0  0  0  0  0  0  0  0  0  0  0  0
    7.1227   46.1861  130.3459 C   0  0  0  0  0  0  0  0  0  0  0  0
    9.4004   50.2625  131.6630 O   0  0  0  0  0  0  0  0  0  0  0  0
    9.6000   50.4071  133.0648 C   0  0  0  0  0  0  0  0  0  0  0  0
    9.6640   51.7481  133.3521 F   0  0  0  0  0  0  0  0  0  0  0  0
    8.5440   49.8252  133.7414 F   0  0  0  0  0  0  0  0  0  0  0  0
   10.7574   49.7676  133.4828 F   0  0  0  0  0  0  0  0  0  0  0  0
   10.1539   39.3936  127.0545 O   0  0  0  0  0  0  0  0  0  0  0  0
   12.2929   38.8335  126.1383 C   0  0  0  0  0  0  0  0  0  0  0  0
   10.8805   39.2860  125.8457 C   0  0  0  0  0  0  0  0  0  0  0  0
    9.8779   44.0261  131.3263 O   0  0  0  0  0  0  0  0  0  0  0  0
   10.5835   44.6419  132.2933 C   0  0  0  0  0  0  0  0  0  0  0  0
   11.9151   44.4706  132.5651 C   0  0  0  0  0  0  0  0  0  0  0  0
   12.5893   45.1376  133.5875 C   0  0  0  0  0  0  0  0  0  0  0  0
   11.9091   46.0376  134.4021 C   0  0  0  0  0  0  0  0  0  0  0  0
   10.5709   46.2280  134.1498 C   0  0  0  0  0  0  0  0  0  0  0  0
    9.9278   45.5585  133.1357 C   0  0  0  0  0  0  0  0  0  0  0  0
   12.6315   46.7207  135.4609 C   0  0  0  0  0  0  0  0  0  0  0  0
   13.5267   47.6660  135.2587 C   0  0  0  0  0  0  0  0  0  0  0  0
   14.1922   48.2829  136.4226 C   0  0  0  0  0  0  0  0  0  0  0  0
   13.7380   49.3107  136.9709 O   0  0  0  0  0  0  0  0  0  0  0  0
   15.3470   47.7308  136.9386 O   0  0  0  0  0  0  0  0  0  0  0  0
   15.3879   47.2834  137.8616 H   0  0  0  0  0  0  0  0  0  0  0  0
 25 26  1  0  0  0
 26 24  1  0  0  0
 24  1  1  0  0  0
  1  2  2  0  0  0
  2  3  1  0  0  0
  3  4  2  0  0  0
  4  5  1  0  0  0
  5 27  1  0  0  0
 27 28  1  0  0  0
 28 29  2  0  0  0
 29 30  1  0  0  0
 30 31  2  0  0  0
 31 34  1  0  0  0
 34 35  2  0  0  0
 35 36  1  0  0  0
 36 37  2  0  0  0
 36 38  1  0  0  0
 31 32  1  0  0  0
 32 33  2  0  0  0
  5  6  2  0  0  0
  6 12  1  0  0  0
 12 13  2  0  0  0
 13 14  1  0  0  0
 14 15  2  0  0  0
 15 19  1  0  0  0
 19 20  1  0  0  0
 20 21  1  0  0  0
 20 22  1  0  0  0
 20 23  1  0  0  0
 15 16  1  0  0  0
 16 17  2  0  0  0
 17 18  1  0  0  0
  6  7  1  0  0  0
  7  8  2  0  0  0
  7  9  1  0  0  0
  9 10  1  0  0  0
 10 11  2  0  0  0
 11  1  1  0  0  0
 10  4  1  0  0  0
 33 28  1  0  0  0
 17 12  1  0  0  0
 38 39  1  0  0  0
M  END
> <minimizedAffinity>
19.50034

> <CNNscore>
0.3861044347

> <CNNaffinity>
7.3268814087

> <CNN_VS>
2.8289413452

> <CNNaffinity_variance>
1.3271524906

$$$$
[H]N=C(c1c([H])c([H])c([H])c(Oc2c([H])c([H])c(N([H])[H])c([H])c2C(=O)N([H])c2c([H])c([H])c(-c3c([H])c([H])c([H])c([H])c3S(=O)(=O)N([H])[H])c([H])c2[H])c1[H])N([H])[H]


 44 47  0  0  0  0  0  0  0  0999 V2000
   12.5351   43.5762  133.0653 C   0  0  0  0  0  0  0  0  0  0  0  0
   12.7817   43.4645  134.4573 C   0  0  0  0  0  0  0  0  0  0  0  0
   13.3099   44.5198  135.1512 C   0  0  0  0  0  0  0  0  0  0  0  0
   13.5900   45.6732  134.4623 C   0  0  0  0  0  0  0  0  0  0  0  0
   14.1486   46.7466  135.1987 N   0  0  0  0  0  0  0  0  0  0  0  0
   13.3451   45.7819  133.1169 C   0  0  0  0  0  0  0  0  0  0  0  0
   12.7853   44.6927  132.3690 C   0  0  0  0  0  0  0  0  0  0  0  0
   13.7962   47.7039  135.1044 H   0  0  0  0  0  0  0  0  0  0  0  0
   14.9339   46.5173  135.8290 H   0  0  0  0  0  0  0  0  0  0  0  0
   12.2233   45.0862  131.0484 C   0  0  0  0  0  0  0  0  0  0  0  0
   13.0367   44.7234  130.0995 O   0  0  0  0  0  0  0  0  0  0  0  0
   11.0968   45.7001  130.7510 N   0  0  0  0  0  0  0  0  0  0  0  0
   11.2369   45.2592  129.4387 H   0  0  0  0  0  0  0  0  0  0  0  0
    9.9168   46.3430  130.4395 C   0  0  0  0  0  0  0  0  0  0  0  0
    9.0986   46.8373  131.4822 C   0  0  0  0  0  0  0  0  0  0  0  0
    7.8725   47.4112  131.2341 C   0  0  0  0  0  0  0  0  0  0  0  0
    7.3881   47.5298  129.9564 C   0  0  0  0  0  0  0  0  0  0  0  0
    8.1619   47.0637  128.9255 C   0  0  0  0  0  0  0  0  0  0  0  0
    9.3966   46.4843  129.1631 C   0  0  0  0  0  0  0  0  0  0  0  0
    6.0843   48.0797  129.6622 C   0  0  0  0  0  0  0  0  0  0  0  0
    4.9626   47.2758  129.5859 C   0  0  0  0  0  0  0  0  0  0  0  0
    3.7271   47.7816  129.2716 C   0  0  0  0  0  0  0  0  0  0  0  0
    3.5989   49.1310  129.0240 C   0  0  0  0  0  0  0  0  0  0  0  0
    4.6974   49.9431  129.0958 C   0  0  0  0  0  0  0  0  0  0  0  0
    5.9473   49.4239  129.4165 C   0  0  0  0  0  0  0  0  0  0  0  0
    7.2692   50.5121  129.5168 S   0  0  0  0  0  0  0  0  0  0  0  0
    6.9172   51.9137  128.5235 N   0  0  0  0  0  0  0  0  0  0  0  0
    8.4885   49.9041  128.8439 O   0  0  0  0  0  0  0  0  0  0  0  0
    7.5866   50.9878  130.9050 O   0  0  0  0  0  0  0  0  0  0  0  0
    6.9706   51.6755  127.5107 H   0  0  0  0  0  0  0  0  0  0  0  0
    5.9617   52.2470  128.7329 H   0  0  0  0  0  0  0  0  0  0  0  0
   12.0176   42.4112  132.4508 O   0  0  0  0  0  0  0  0  0  0  0  0
    9.3086   42.9541  130.0496 C   0  0  0  0  0  0  0  0  0  0  0  0
    8.1937   42.9904  130.8608 C   0  0  0  0  0  0  0  0  0  0  0  0
    8.2785   42.8368  132.2220 C   0  0  0  0  0  0  0  0  0  0  0  0
    9.5619   42.6394  132.7585 C   0  0  0  0  0  0  0  0  0  0  0  0
   10.6817   42.5966  132.0206 C   0  0  0  0  0  0  0  0  0  0  0  0
   10.5429   42.7596  130.6133 C   0  0  0  0  0  0  0  0  0  0  0  0
    8.1569   43.5437  128.0026 N   0  0  0  0  0  0  0  0  0  0  0  0
    9.1976   43.1333  128.5966 C   0  0  0  0  0  0  0  0  0  0  0  0
   10.3271   42.8099  127.7991 N   0  0  0  0  0  0  0  0  0  0  0  0
    7.2529   43.8246  128.3777 H   0  0  0  0  0  0  0  0  0  0  0  0
   10.2012   41.9938  127.1464 H   0  0  0  0  0  0  0  0  0  0  0  0
   11.2358   43.2815  127.7957 H   0  0  0  0  0  0  0  0  0  0  0  0
 39 40  2  0  0  0
 40 41  1  0  0  0
 40 33  1  0  0  0
 33 34  2  0  0  0
 34 35  1  0  0  0
 35 36  2  0  0  0
 36 37  1  0  0  0
 37 32  1  0  0  0
 32  1  1  0  0  0
  1  2  2  0  0  0
  2  3  1  0  0  0
  3  4  2  0  0  0
  4  5  1  0  0  0
  4  6  1  0  0  0
  6  7  2  0  0  0
  7 10  1  0  0  0
 10 11  2  0  0  0
 10 12  1  0  0  0
 12 14  1  0  0  0
 14 15  2  0  0  0
 15 16  1  0  0  0
 16 17  2  0  0  0
 17 20  1  0  0  0
 20 21  2  0  0  0
 21 22  1  0  0  0
 22 23  2  0  0  0
 23 24  1  0  0  0
 24 25  2  0  0  0
 25 26  1  0  0  0
 26 27  1  0  0  0
 26 28  2  0  0  0
 26 29  2  0  0  0
 17 18  1  0  0  0
 18 19  2  0  0  0
 37 38  2  0  0  0
 38 33  1  0  0  0
  7  1  1  0  0  0
 19 14  1  0  0  0
 25 20  1  0  0  0
 39 42  1  0  0  0
 41 43  1  0  0  0
 41 44  1  0  0  0
  5  8  1  0  0  0
  5  9  1  0  0  0
 12 13  1  0  0  0
 27 30  1  0  0  0
 27 31  1  0  0  0
M  END
> <minimizedAffinity>
8.28320

> <CNNscore>
0.4721186161

> <CNNaffinity>
7.6293134689

> <CNN_VS>
3.6019408703

> <CNNaffinity_variance>
0.9631401300

$$$$
[H]N=C(c1c([H])c([H])c([H])c(Oc2c([H])c([H])c(N([H])[H])c([H])c2C(=O)N([H])c2c([H])c([H])c(-c3c([H])c([H])c([H])c([H])c3S(=O)(=O)N([H])[H])c([H])c2[H])c1[H])N([H])[H]


 44 47  0  0  0  0  0  0  0  0999 V2000
   12.7365   43.9316  132.0795 C   0  0  0  0  0  0  0  0  0  0  0  0
   12.6456   42.6256  132.6245 C   0  0  0  0  0  0  0  0  0  0  0  0
   12.3080   42.4487  133.9393 C   0  0  0  0  0  0  0  0  0  0  0  0
   12.0652   43.5637  134.7017 C   0  0  0  0  0  0  0  0  0  0  0  0
   11.7311   43.3562  136.0624 N   0  0  0  0  0  0  0  0  0  0  0  0
   12.1475   44.8262  134.1715 C   0  0  0  0  0  0  0  0  0  0  0  0
   12.4923   45.0374  132.7947 C   0  0  0  0  0  0  0  0  0  0  0  0
   10.9453   43.8438  136.5033 H   0  0  0  0  0  0  0  0  0  0  0  0
   12.3240   42.6954  136.5899 H   0  0  0  0  0  0  0  0  0  0  0  0
   12.1587   46.3952  132.2849 C   0  0  0  0  0  0  0  0  0  0  0  0
   13.1897   47.1786  132.4157 O   0  0  0  0  0  0  0  0  0  0  0  0
   11.0435   46.8571  131.7584 N   0  0  0  0  0  0  0  0  0  0  0  0
   11.7637   47.9336  131.2497 H   0  0  0  0  0  0  0  0  0  0  0  0
    9.8754   47.3409  131.2070 C   0  0  0  0  0  0  0  0  0  0  0  0
    8.9598   48.0436  132.0250 C   0  0  0  0  0  0  0  0  0  0  0  0
    7.7425   48.4747  131.5491 C   0  0  0  0  0  0  0  0  0  0  0  0
    7.3622   48.2403  130.2523 C   0  0  0  0  0  0  0  0  0  0  0  0
    8.2318   47.5657  129.4352 C   0  0  0  0  0  0  0  0  0  0  0  0
    9.4587   47.1271  129.9030 C   0  0  0  0  0  0  0  0  0  0  0  0
    6.0720   48.6326  129.7325 C   0  0  0  0  0  0  0  0  0  0  0  0
    5.0287   47.7312  129.6354 C   0  0  0  0  0  0  0  0  0  0  0  0
    3.8117   48.0834  129.1101 C   0  0  0  0  0  0  0  0  0  0  0  0
    3.6221   49.3736  128.6652 C   0  0  0  0  0  0  0  0  0  0  0  0
    4.6425   50.2805  128.7540 C   0  0  0  0  0  0  0  0  0  0  0  0
    5.8738   49.9172  129.2892 C   0  0  0  0  0  0  0  0  0  0  0  0
    7.0920   51.1200  129.3944 S   0  0  0  0  0  0  0  0  0  0  0  0
    6.8522   52.2747  128.0967 N   0  0  0  0  0  0  0  0  0  0  0  0
    8.4464   50.5101  129.0737 O   0  0  0  0  0  0  0  0  0  0  0  0
    7.1208   51.8722  130.6934 O   0  0  0  0  0  0  0  0  0  0  0  0
    7.1048   51.8582  127.1759 H   0  0  0  0  0  0  0  0  0  0  0  0
    5.8575   52.5535  128.0698 H   0  0  0  0  0  0  0  0  0  0  0  0
   13.1234   43.9902  130.7196 O   0  0  0  0  0  0  0  0  0  0  0  0
    9.6094   43.6012  129.7709 C   0  0  0  0  0  0  0  0  0  0  0  0
    9.6203   43.9500  128.4364 C   0  0  0  0  0  0  0  0  0  0  0  0
   10.7715   44.3284  127.7922 C   0  0  0  0  0  0  0  0  0  0  0  0
   11.9495   44.3454  128.5578 C   0  0  0  0  0  0  0  0  0  0  0  0
   12.0008   44.0153  129.8573 C   0  0  0  0  0  0  0  0  0  0  0  0
   10.7810   43.6307  130.4820 C   0  0  0  0  0  0  0  0  0  0  0  0
    7.8984   42.0113  130.4103 N   0  0  0  0  0  0  0  0  0  0  0  0
    8.3689   43.1869  130.4382 C   0  0  0  0  0  0  0  0  0  0  0  0
    7.6365   44.1730  131.1505 N   0  0  0  0  0  0  0  0  0  0  0  0
    8.2578   41.1693  129.9644 H   0  0  0  0  0  0  0  0  0  0  0  0
    6.6887   44.4053  130.7560 H   0  0  0  0  0  0  0  0  0  0  0  0
    7.9323   44.6726  131.9938 H   0  0  0  0  0  0  0  0  0  0  0  0
 39 40  2  0  0  0
 40 41  1  0  0  0
 40 33  1  0  0  0
 33 34  2  0  0  0
 34 35  1  0  0  0
 35 36  2  0  0  0
 36 37  1  0  0  0
 37 32  1  0  0  0
 32  1  1  0  0  0
  1  2  2  0  0  0
  2  3  1  0  0  0
  3  4  2  0  0  0
  4  5  1  0  0  0
  4  6  1  0  0  0
  6  7  2  0  0  0
  7 10  1  0  0  0
 10 11  2  0  0  0
 10 12  1  0  0  0
 12 14  1  0  0  0
 14 15  2  0  0  0
 15 16  1  0  0  0
 16 17  2  0  0  0
 17 20  1  0  0  0
 20 21  2  0  0  0
 21 22  1  0  0  0
 22 23  2  0  0  0
 23 24  1  0  0  0
 24 25  2  0  0  0
 25 26  1  0  0  0
 26 27  1  0  0  0
 26 28  2  0  0  0
 26 29  2  0  0  0
 17 18  1  0  0  0
 18 19  2  0  0  0
 37 38  2  0  0  0
 38 33  1  0  0  0
  7  1  1  0  0  0
 19 14  1  0  0  0
 25 20  1  0  0  0
 39 42  1  0  0  0
 41 43  1  0  0  0
 41 44  1  0  0  0
  5  8  1  0  0  0
  5  9  1  0  0  0
 12 13  1  0  0  0
 27 30  1  0  0  0
 27 31  1  0  0  0
M  END
> <minimizedAffinity>
9.85181

> <CNNscore>
0.4038431048

> <CNNaffinity>
7.5508956909

> <CNN_VS>
3.0493772030

> <CNNaffinity_variance>
0.9367367625

$$$$
[H]N=C(c1c([H])c([H])c([H])c(Oc2c([H])c([H])c(N([H])[H])c([H])c2C(=O)N([H])c2c([H])c([H])c(-c3c([H])c([H])c([H])c([H])c3S(=O)(=O)N([H])[H])c([H])c2[H])c1[H])N([H])[H]


 44 47  0  0  0  0  0  0  0  0999 V2000
    7.9669   50.0652  129.6277 C   0  0  0  0  0  0  0  0  0  0  0  0
    7.2365   51.1831  130.1048 C   0  0  0  0  0  0  0  0  0  0  0  0
    5.8856   51.2638  129.8982 C   0  0  0  0  0  0  0  0  0  0  0  0
    5.2713   50.2401  129.2213 C   0  0  0  0  0  0  0  0  0  0  0  0
    3.8755   50.3523  129.0077 N   0  0  0  0  0  0  0  0  0  0  0  0
    5.9781   49.1563  128.7658 C   0  0  0  0  0  0  0  0  0  0  0  0
    7.3932   49.0451  128.9763 C   0  0  0  0  0  0  0  0  0  0  0  0
    3.2396   49.5694  129.1873 H   0  0  0  0  0  0  0  0  0  0  0  0
    3.5321   51.2598  128.6540 H   0  0  0  0  0  0  0  0  0  0  0  0
    7.9312   47.6708  128.7844 C   0  0  0  0  0  0  0  0  0  0  0  0
    8.4526   47.5655  127.5966 O   0  0  0  0  0  0  0  0  0  0  0  0
    7.9456   46.6398  129.6035 N   0  0  0  0  0  0  0  0  0  0  0  0
    8.9266   46.0575  128.8067 H   0  0  0  0  0  0  0  0  0  0  0  0
    7.9608   45.5598  130.4615 C   0  0  0  0  0  0  0  0  0  0  0  0
    7.6498   45.7535  131.8278 C   0  0  0  0  0  0  0  0  0  0  0  0
    7.7312   44.7296  132.7439 C   0  0  0  0  0  0  0  0  0  0  0  0
    8.1195   43.4687  132.3690 C   0  0  0  0  0  0  0  0  0  0  0  0
    8.4223   43.2507  131.0500 C   0  0  0  0  0  0  0  0  0  0  0  0
    8.3444   44.2730  130.1197 C   0  0  0  0  0  0  0  0  0  0  0  0
    8.2655   42.3827  133.3113 C   0  0  0  0  0  0  0  0  0  0  0  0
    7.2339   41.4960  133.5559 C   0  0  0  0  0  0  0  0  0  0  0  0
    7.3492   40.4840  134.4746 C   0  0  0  0  0  0  0  0  0  0  0  0
    8.5275   40.3464  135.1753 C   0  0  0  0  0  0  0  0  0  0  0  0
    9.5604   41.2137  134.9463 C   0  0  0  0  0  0  0  0  0  0  0  0
    9.4375   42.2369  134.0122 C   0  0  0  0  0  0  0  0  0  0  0  0
   10.7883   43.2634  133.7606 S   0  0  0  0  0  0  0  0  0  0  0  0
   11.7037   42.6589  132.3925 N   0  0  0  0  0  0  0  0  0  0  0  0
   11.7612   43.1271  134.9198 O   0  0  0  0  0  0  0  0  0  0  0  0
   10.4439   44.7007  133.4972 O   0  0  0  0  0  0  0  0  0  0  0  0
   12.2036   41.7786  132.6384 H   0  0  0  0  0  0  0  0  0  0  0  0
   11.0565   42.4623  131.6111 H   0  0  0  0  0  0  0  0  0  0  0  0
    9.3599   50.1077  129.8731 O   0  0  0  0  0  0  0  0  0  0  0  0
   10.8664   47.3686  131.7776 C   0  0  0  0  0  0  0  0  0  0  0  0
   10.5414   47.6951  133.0777 C   0  0  0  0  0  0  0  0  0  0  0  0
    9.8210   48.8215  133.3871 C   0  0  0  0  0  0  0  0  0  0  0  0
    9.4251   49.6353  132.3124 C   0  0  0  0  0  0  0  0  0  0  0  0
    9.7099   49.3684  131.0286 C   0  0  0  0  0  0  0  0  0  0  0  0
   10.4603   48.1896  130.7577 C   0  0  0  0  0  0  0  0  0  0  0  0
   11.3665   45.3697  130.5055 N   0  0  0  0  0  0  0  0  0  0  0  0
   11.6272   46.1518  131.4669 C   0  0  0  0  0  0  0  0  0  0  0  0
   12.7201   45.8183  132.3099 N   0  0  0  0  0  0  0  0  0  0  0  0
   10.6394   45.4207  129.7944 H   0  0  0  0  0  0  0  0  0  0  0  0
   12.6066   44.9338  132.8690 H   0  0  0  0  0  0  0  0  0  0  0  0
   13.5917   46.3426  132.4272 H   0  0  0  0  0  0  0  0  0  0  0  0
 39 40  2  0  0  0
 40 41  1  0  0  0
 40 33  1  0  0  0
 33 34  2  0  0  0
 34 35  1  0  0  0
 35 36  2  0  0  0
 36 37  1  0  0  0
 37 32  1  0  0  0
 32  1  1  0  0  0
  1  2  2  0  0  0
  2  3  1  0  0  0
  3  4  2  0  0  0
  4  5  1  0  0  0
  4  6  1  0  0  0
  6  7  2  0  0  0
  7 10  1  0  0  0
 10 11  2  0  0  0
 10 12  1  0  0  0
 12 14  1  0  0  0
 14 15  2  0  0  0
 15 16  1  0  0  0
 16 17  2  0  0  0
 17 20  1  0  0  0
 20 21  2  0  0  0
 21 22  1  0  0  0
 22 23  2  0  0  0
 23 24  1  0  0  0
 24 25  2  0  0  0
 25 26  1  0  0  0
 26 27  1  0  0  0
 26 28  2  0  0  0
 26 29  2  0  0  0
 17 18  1  0  0  0
 18 19  2  0  0  0
 37 38  2  0  0  0
 38 33  1  0  0  0
  7  1  1  0  0  0
 19 14  1  0  0  0
 25 20  1  0  0  0
 39 42  1  0  0  0
 41 43  1  0  0  0
 41 44  1  0  0  0
  5  8  1  0  0  0
  5  9  1  0  0  0
 12 13  1  0  0  0
 27 30  1  0  0  0
 27 31  1  0  0  0
M  END
> <minimizedAffinity>
11.63060

> <CNNscore>
0.4024612904

> <CNNaffinity>
7.5809402466

> <CNN_VS>
3.0510349274

> <CNNaffinity_variance>
0.5208729506

$$$$
[H]N=C(c1c([H])c([H])c([H])c(Oc2c([H])c([H])c(N([H])[H])c([H])c2C(=O)N([H])c2c([H])c([H])c(-c3c([H])c([H])c([H])c([H])c3S(=O)(=O)N([H])[H])c([H])c2[H])c1[H])N([H])[H]


 44 47  0  0  0  0  0  0  0  0999 V2000
    8.9177   48.6103  134.1168 C   0  0  0  0  0  0  0  0  0  0  0  0
    8.3069   49.8221  134.5285 C   0  0  0  0  0  0  0  0  0  0  0  0
    7.4946   49.8456  135.6302 C   0  0  0  0  0  0  0  0  0  0  0  0
    7.2935   48.6717  136.3122 C   0  0  0  0  0  0  0  0  0  0  0  0
    6.4384   48.7180  137.4405 N   0  0  0  0  0  0  0  0  0  0  0  0
    7.8900   47.5016  135.9163 C   0  0  0  0  0  0  0  0  0  0  0  0
    8.7511   47.4527  134.7695 C   0  0  0  0  0  0  0  0  0  0  0  0
    6.6965   48.2780  138.3289 H   0  0  0  0  0  0  0  0  0  0  0  0
    5.5385   49.2102  137.3204 H   0  0  0  0  0  0  0  0  0  0  0  0
    9.6123   46.2406  134.7061 C   0  0  0  0  0  0  0  0  0  0  0  0
    9.5667   45.6097  135.8435 O   0  0  0  0  0  0  0  0  0  0  0  0
   10.3473   45.7686  133.7206 N   0  0  0  0  0  0  0  0  0  0  0  0
   10.3905   44.5432  134.3783 H   0  0  0  0  0  0  0  0  0  0  0  0
   11.1171   45.2742  132.6882 C   0  0  0  0  0  0  0  0  0  0  0  0
   12.0294   46.1315  132.0296 C   0  0  0  0  0  0  0  0  0  0  0  0
   12.7607   45.7157  130.9403 C   0  0  0  0  0  0  0  0  0  0  0  0
   12.6359   44.4434  130.4434 C   0  0  0  0  0  0  0  0  0  0  0  0
   11.7625   43.5891  131.0649 C   0  0  0  0  0  0  0  0  0  0  0  0
   11.0215   43.9964  132.1611 C   0  0  0  0  0  0  0  0  0  0  0  0
   13.3486   43.9881  129.2714 C   0  0  0  0  0  0  0  0  0  0  0  0
   14.7051   43.7257  129.3085 C   0  0  0  0  0  0  0  0  0  0  0  0
   15.3982   43.3282  128.1937 C   0  0  0  0  0  0  0  0  0  0  0  0
   14.7236   43.1863  127.0006 C   0  0  0  0  0  0  0  0  0  0  0  0
   13.3805   43.4403  126.9443 C   0  0  0  0  0  0  0  0  0  0  0  0
   12.6833   43.8417  128.0789 C   0  0  0  0  0  0  0  0  0  0  0  0
   10.9957   44.1108  127.9333 S   0  0  0  0  0  0  0  0  0  0  0  0
   10.6557   44.6656  126.3049 N   0  0  0  0  0  0  0  0  0  0  0  0
   10.5865   45.2918  128.7975 O   0  0  0  0  0  0  0  0  0  0  0  0
   10.1422   42.9065  128.2071 O   0  0  0  0  0  0  0  0  0  0  0  0
   10.9952   45.6405  126.1649 H   0  0  0  0  0  0  0  0  0  0  0  0
   11.1369   44.0496  125.6289 H   0  0  0  0  0  0  0  0  0  0  0  0
    9.7096   48.7029  132.9477 O   0  0  0  0  0  0  0  0  0  0  0  0
    7.5347   48.0961  130.0665 C   0  0  0  0  0  0  0  0  0  0  0  0
    7.3482   49.3658  129.5608 C   0  0  0  0  0  0  0  0  0  0  0  0
    7.9208   50.4709  130.1389 C   0  0  0  0  0  0  0  0  0  0  0  0
    8.7125   50.2514  131.2787 C   0  0  0  0  0  0  0  0  0  0  0  0
    8.9312   49.0408  131.8145 C   0  0  0  0  0  0  0  0  0  0  0  0
    8.3152   47.9251  131.1804 C   0  0  0  0  0  0  0  0  0  0  0  0
    5.8240   46.9447  128.7968 N   0  0  0  0  0  0  0  0  0  0  0  0
    6.9234   46.9252  129.4254 C   0  0  0  0  0  0  0  0  0  0  0  0
    7.6009   45.6816  129.5295 N   0  0  0  0  0  0  0  0  0  0  0  0
    5.1877   47.7169  128.6083 H   0  0  0  0  0  0  0  0  0  0  0  0
    7.1023   44.9401  130.0859 H   0  0  0  0  0  0  0  0  0  0  0  0
    8.5097   45.4379  129.1258 H   0  0  0  0  0  0  0  0  0  0  0  0
 39 40  2  0  0  0
 40 41  1  0  0  0
 40 33  1  0  0  0
 33 34  2  0  0  0
 34 35  1  0  0  0
 35 36  2  0  0  0
 36 37  1  0  0  0
 37 32  1  0  0  0
 32  1  1  0  0  0
  1  2  2  0  0  0
  2  3  1  0  0  0
  3  4  2  0  0  0
  4  5  1  0  0  0
  4  6  1  0  0  0
  6  7  2  0  0  0
  7 10  1  0  0  0
 10 11  2  0  0  0
 10 12  1  0  0  0
 12 14  1  0  0  0
 14 15  2  0  0  0
 15 16  1  0  0  0
 16 17  2  0  0  0
 17 20  1  0  0  0
 20 21  2  0  0  0
 21 22  1  0  0  0
 22 23  2  0  0  0
 23 24  1  0  0  0
 24 25  2  0  0  0
 25 26  1  0  0  0
 26 27  1  0  0  0
 26 28  2  0  0  0
 26 29  2  0  0  0
 17 18  1  0  0  0
 18 19  2  0  0  0
 37 38  2  0  0  0
 38 33  1  0  0  0
  7  1  1  0  0  0
 19 14  1  0  0  0
 25 20  1  0  0  0
 39 42  1  0  0  0
 41 43  1  0  0  0
 41 44  1  0  0  0
  5  8  1  0  0  0
  5  9  1  0  0  0
 12 13  1  0  0  0
 27 30  1  0  0  0
 27 31  1  0  0  0
M  END
> <minimizedAffinity>
23.12178

> <CNNscore>
0.3768431246

> <CNNaffinity>
7.4102959633

> <CNN_VS>
2.7925190926

> <CNNaffinity_variance>
0.5284070373

$$$$
[H]N=C(c1c([H])c([H])c([H])c(Oc2c([H])c([H])c(N([H])[H])c([H])c2C(=O)N([H])c2c([H])c([H])c(-c3c([H])c([H])c([H])c([H])c3S(=O)(=O)N([H])[H])c([H])c2[H])c1[H])N([H])[H]


 44 47  0  0  0  0  0  0  0  0999 V2000
    7.1333   49.2083  128.7180 C   0  0  0  0  0  0  0  0  0  0  0  0
    7.2726   50.6161  128.6191 C   0  0  0  0  0  0  0  0  0  0  0  0
    6.4021   51.4433  129.2764 C   0  0  0  0  0  0  0  0  0  0  0  0
    5.4028   50.8710  130.0228 C   0  0  0  0  0  0  0  0  0  0  0  0
    4.5062   51.7469  130.6826 N   0  0  0  0  0  0  0  0  0  0  0  0
    5.2730   49.5090  130.1226 C   0  0  0  0  0  0  0  0  0  0  0  0
    6.1770   48.6211  129.4492 C   0  0  0  0  0  0  0  0  0  0  0  0
    4.2462   51.6107  131.6641 H   0  0  0  0  0  0  0  0  0  0  0  0
    4.1215   52.5247  130.1226 H   0  0  0  0  0  0  0  0  0  0  0  0
    6.1526   47.2239  129.9612 C   0  0  0  0  0  0  0  0  0  0  0  0
    5.2486   46.5385  129.3235 O   0  0  0  0  0  0  0  0  0  0  0  0
    6.8768   46.6473  130.8978 N   0  0  0  0  0  0  0  0  0  0  0  0
    6.4909   45.4093  130.3933 H   0  0  0  0  0  0  0  0  0  0  0  0
    7.6355   46.0432  131.8788 C   0  0  0  0  0  0  0  0  0  0  0  0
    8.2741   46.8437  132.8548 C   0  0  0  0  0  0  0  0  0  0  0  0
    9.1100   46.3028  133.8049 C   0  0  0  0  0  0  0  0  0  0  0  0
    9.3613   44.9551  133.8470 C   0  0  0  0  0  0  0  0  0  0  0  0
    8.7520   44.1542  132.9162 C   0  0  0  0  0  0  0  0  0  0  0  0
    7.9095   44.6872  131.9556 C   0  0  0  0  0  0  0  0  0  0  0  0
   10.2725   44.3586  134.7971 C   0  0  0  0  0  0  0  0  0  0  0  0
   10.0466   44.4339  136.1586 C   0  0  0  0  0  0  0  0  0  0  0  0
   10.9232   43.9032  137.0702 C   0  0  0  0  0  0  0  0  0  0  0  0
   12.0635   43.2765  136.6168 C   0  0  0  0  0  0  0  0  0  0  0  0
   12.3040   43.1910  135.2728 C   0  0  0  0  0  0  0  0  0  0  0  0
   11.4101   43.7301  134.3535 C   0  0  0  0  0  0  0  0  0  0  0  0
   11.7676   43.5546  132.6852 S   0  0  0  0  0  0  0  0  0  0  0  0
   13.2603   42.6484  132.5249 N   0  0  0  0  0  0  0  0  0  0  0  0
   12.1147   44.9082  132.0882 O   0  0  0  0  0  0  0  0  0  0  0  0
   10.7059   42.8563  131.8859 O   0  0  0  0  0  0  0  0  0  0  0  0
   14.0788   43.2244  132.8137 H   0  0  0  0  0  0  0  0  0  0  0  0
   13.2166   41.8122  133.1306 H   0  0  0  0  0  0  0  0  0  0  0  0
    8.0713   48.4572  127.9707 O   0  0  0  0  0  0  0  0  0  0  0  0
   10.1676   45.7261  129.2141 C   0  0  0  0  0  0  0  0  0  0  0  0
   10.8337   46.3170  130.2675 C   0  0  0  0  0  0  0  0  0  0  0  0
   10.6292   47.6291  130.6139 C   0  0  0  0  0  0  0  0  0  0  0  0
    9.7036   48.3513  129.8420 C   0  0  0  0  0  0  0  0  0  0  0  0
    9.0252   47.8303  128.8082 C   0  0  0  0  0  0  0  0  0  0  0  0
    9.2719   46.4659  128.4864 C   0  0  0  0  0  0  0  0  0  0  0  0
    9.5084   43.5492  128.3828 N   0  0  0  0  0  0  0  0  0  0  0  0
   10.3913   44.3168  128.8678 C   0  0  0  0  0  0  0  0  0  0  0  0
   11.6799   43.7705  129.1072 N   0  0  0  0  0  0  0  0  0  0  0  0
    8.5372   43.7348  128.1391 H   0  0  0  0  0  0  0  0  0  0  0  0
   11.7227   43.0177  129.8415 H   0  0  0  0  0  0  0  0  0  0  0  0
   12.5563   44.0309  128.6462 H   0  0  0  0  0  0  0  0  0  0  0  0
 39 40  2  0  0  0
 40 41  1  0  0  0
 40 33  1  0  0  0
 33 34  2  0  0  0
 34 35  1  0  0  0
 35 36  2  0  0  0
 36 37  1  0  0  0
 37 32  1  0  0  0
 32  1  1  0  0  0
  1  2  2  0  0  0
  2  3  1  0  0  0
  3  4  2  0  0  0
  4  5  1  0  0  0
  4  6  1  0  0  0
  6  7  2  0  0  0
  7 10  1  0  0  0
 10 11  2  0  0  0
 10 12  1  0  0  0
 12 14  1  0  0  0
 14 15  2  0  0  0
 15 16  1  0  0  0
 16 17  2  0  0  0
 17 20  1  0  0  0
 20 21  2  0  0  0
 21 22  1  0  0  0
 22 23  2  0  0  0
 23 24  1  0  0  0
 24 25  2  0  0  0
 25 26  1  0  0  0
 26 27  1  0  0  0
 26 28  2  0  0  0
 26 29  2  0  0  0
 17 18  1  0  0  0
 18 19  2  0  0  0
 37 38  2  0  0  0
 38 33  1  0  0  0
  7  1  1  0  0  0
 19 14  1  0  0  0
 25 20  1  0  0  0
 39 42  1  0  0  0
 41 43  1  0  0  0
 41 44  1  0  0  0
  5  8  1  0  0  0
  5  9  1  0  0  0
 12 13  1  0  0  0
 27 30  1  0  0  0
 27 31  1  0  0  0
M  END
> <minimizedAffinity>
9.06274

> <CNNscore>
0.3753317595

> <CNNaffinity>
7.5014686584

> <CNN_VS>
2.8155393600

> <CNNaffinity_variance>
0.4620005488

$$$$
[H]N=C(c1c([H])c([H])c([H])c(Oc2c([H])c([H])c(N([H])[H])c([H])c2C(=O)N([H])c2c([H])c([H])c(-c3c([H])c([H])c([H])c([H])c3S(=O)(=O)N([H])[H])c([H])c2[H])c1[H])N([H])[H]


 44 47  0  0  0  0  0  0  0  0999 V2000
   12.5371   43.6185  132.8784 C   0  0  0  0  0  0  0  0  0  0  0  0
   12.8964   43.5074  134.2457 C   0  0  0  0  0  0  0  0  0  0  0  0
   13.5345   44.5408  134.8774 C   0  0  0  0  0  0  0  0  0  0  0  0
   13.8119   45.6718  134.1513 C   0  0  0  0  0  0  0  0  0  0  0  0
   14.4847   46.7221  134.8226 N   0  0  0  0  0  0  0  0  0  0  0  0
   13.4582   45.7803  132.8304 C   0  0  0  0  0  0  0  0  0  0  0  0
   12.7823   44.7141  132.1480 C   0  0  0  0  0  0  0  0  0  0  0  0
   14.1740   47.6953  134.7456 H   0  0  0  0  0  0  0  0  0  0  0  0
   15.3087   46.4590  135.3867 H   0  0  0  0  0  0  0  0  0  0  0  0
   12.1294   45.1234  130.8748 C   0  0  0  0  0  0  0  0  0  0  0  0
   12.9309   44.8913  129.8761 O   0  0  0  0  0  0  0  0  0  0  0  0
   10.9391   45.6428  130.6567 N   0  0  0  0  0  0  0  0  0  0  0  0
   11.0623   45.2889  129.3166 H   0  0  0  0  0  0  0  0  0  0  0  0
    9.6922   46.1868  130.4282 C   0  0  0  0  0  0  0  0  0  0  0  0
    9.3481   46.6119  129.1236 C   0  0  0  0  0  0  0  0  0  0  0  0
    8.1522   47.2377  128.8549 C   0  0  0  0  0  0  0  0  0  0  0  0
    7.2361   47.4774  129.8470 C   0  0  0  0  0  0  0  0  0  0  0  0
    7.5408   47.0718  131.1204 C   0  0  0  0  0  0  0  0  0  0  0  0
    8.7408   46.4417  131.4026 C   0  0  0  0  0  0  0  0  0  0  0  0
    5.9935   48.1770  129.6119 C   0  0  0  0  0  0  0  0  0  0  0  0
    4.8027   47.4959  129.4431 C   0  0  0  0  0  0  0  0  0  0  0  0
    3.6242   48.1478  129.1833 C   0  0  0  0  0  0  0  0  0  0  0  0
    3.6260   49.5223  129.0870 C   0  0  0  0  0  0  0  0  0  0  0  0
    4.7947   50.2142  129.2522 C   0  0  0  0  0  0  0  0  0  0  0  0
    5.9861   49.5471  129.5169 C   0  0  0  0  0  0  0  0  0  0  0  0
    7.4024   50.4879  129.7418 S   0  0  0  0  0  0  0  0  0  0  0  0
    6.9937   52.1779  129.5151 N   0  0  0  0  0  0  0  0  0  0  0  0
    8.3870   50.2125  128.6176 O   0  0  0  0  0  0  0  0  0  0  0  0
    8.0486   50.3373  131.0885 O   0  0  0  0  0  0  0  0  0  0  0  0
    6.8104   52.3856  128.5108 H   0  0  0  0  0  0  0  0  0  0  0  0
    6.1414   52.3968  130.0570 H   0  0  0  0  0  0  0  0  0  0  0  0
   11.9111   42.4758  132.3263 O   0  0  0  0  0  0  0  0  0  0  0  0
    8.6117   43.8842  133.0541 C   0  0  0  0  0  0  0  0  0  0  0  0
    7.8089   43.2610  132.1215 C   0  0  0  0  0  0  0  0  0  0  0  0
    8.3098   42.3593  131.2163 C   0  0  0  0  0  0  0  0  0  0  0  0
    9.6883   42.0956  131.2811 C   0  0  0  0  0  0  0  0  0  0  0  0
   10.5178   42.6690  132.1664 C   0  0  0  0  0  0  0  0  0  0  0  0
    9.9521   43.5985  133.0841 C   0  0  0  0  0  0  0  0  0  0  0  0
    6.8169   44.9818  134.2534 N   0  0  0  0  0  0  0  0  0  0  0  0
    8.0537   44.8366  134.0223 C   0  0  0  0  0  0  0  0  0  0  0  0
    8.9592   45.6637  134.7380 N   0  0  0  0  0  0  0  0  0  0  0  0
    6.0125   44.4996  133.8568 H   0  0  0  0  0  0  0  0  0  0  0  0
    8.8926   46.6933  134.5298 H   0  0  0  0  0  0  0  0  0  0  0  0
    9.6587   45.3648  135.4234 H   0  0  0  0  0  0  0  0  0  0  0  0
 39 40  2  0  0  0
 40 41  1  0  0  0
 40 33  1  0  0  0
 33 34  2  0  0  0
 34 35  1  0  0  0
 35 36  2  0  0  0
 36 37  1  0  0  0
 37 32  1  0  0  0
 32  1  1  0  0  0
  1  2  2  0  0  0
  2  3  1  0  0  0
  3  4  2  0  0  0
  4  5  1  0  0  0
  4  6  1  0  0  0
  6  7  2  0  0  0
  7 10  1  0  0  0
 10 11  2  0  0  0
 10 12  1  0  0  0
 12 14  1  0  0  0
 14 15  2  0  0  0
 15 16  1  0  0  0
 16 17  2  0  0  0
 17 20  1  0  0  0
 20 21  2  0  0  0
 21 22  1  0  0  0
 22 23  2  0  0  0
 23 24  1  0  0  0
 24 25  2  0  0  0
 25 26  1  0  0  0
 26 27  1  0  0  0
 26 28  2  0  0  0
 26 29  2  0  0  0
 17 18  1  0  0  0
 18 19  2  0  0  0
 37 38  2  0  0  0
 38 33  1  0  0  0
  7  1  1  0  0  0
 19 14  1  0  0  0
 25 20  1  0  0  0
 39 42  1  0  0  0
 41 43  1  0  0  0
 41 44  1  0  0  0
  5  8  1  0  0  0
  5  9  1  0  0  0
 12 13  1  0  0  0
 27 30  1  0  0  0
 27 31  1  0  0  0
M  END
> <minimizedAffinity>
12.49341

> <CNNscore>
0.3540589213

> <CNNaffinity>
7.5802230835

> <CNN_VS>
2.6838455200

> <CNNaffinity_variance>
1.1683393717

$$$$
[H]N=C(c1c([H])c([H])c([H])c(Oc2c([H])c([H])c(N([H])[H])c([H])c2C(=O)N([H])c2c([H])c([H])c(-c3c([H])c([H])c([H])c([H])c3S(=O)(=O)N([H])[H])c([H])c2[H])c1[H])N([H])[H]


 44 47  0  0  0  0  0  0  0  0999 V2000
    6.9147   49.8096  129.6111 C   0  0  0  0  0  0  0  0  0  0  0  0
    6.2827   49.8729  128.3432 C   0  0  0  0  0  0  0  0  0  0  0  0
    6.3116   51.0318  127.6150 C   0  0  0  0  0  0  0  0  0  0  0  0
    6.9632   52.1157  128.1479 C   0  0  0  0  0  0  0  0  0  0  0  0
    6.9681   53.3075  127.3823 N   0  0  0  0  0  0  0  0  0  0  0  0
    7.5795   52.0511  129.3717 C   0  0  0  0  0  0  0  0  0  0  0  0
    7.5693   50.8460  130.1506 C   0  0  0  0  0  0  0  0  0  0  0  0
    7.8249   53.8506  127.2388 H   0  0  0  0  0  0  0  0  0  0  0  0
    6.0636   53.6059  126.9832 H   0  0  0  0  0  0  0  0  0  0  0  0
    8.5880   50.8134  131.2351 C   0  0  0  0  0  0  0  0  0  0  0  0
    8.7789   52.0162  131.6943 O   0  0  0  0  0  0  0  0  0  0  0  0
    9.2574   49.8003  131.7447 N   0  0  0  0  0  0  0  0  0  0  0  0
    9.5651   50.5947  132.8450 H   0  0  0  0  0  0  0  0  0  0  0  0
    9.9585   48.7391  132.2785 C   0  0  0  0  0  0  0  0  0  0  0  0
   10.0777   47.5411  131.5358 C   0  0  0  0  0  0  0  0  0  0  0  0
   10.6926   46.4236  132.0527 C   0  0  0  0  0  0  0  0  0  0  0  0
   11.2203   46.4234  133.3187 C   0  0  0  0  0  0  0  0  0  0  0  0
   11.1235   47.5724  134.0598 C   0  0  0  0  0  0  0  0  0  0  0  0
   10.5070   48.7025  133.5504 C   0  0  0  0  0  0  0  0  0  0  0  0
   11.8270   45.2540  133.9130 C   0  0  0  0  0  0  0  0  0  0  0  0
   12.9865   44.7033  133.4004 C   0  0  0  0  0  0  0  0  0  0  0  0
   13.5506   43.5727  133.9341 C   0  0  0  0  0  0  0  0  0  0  0  0
   12.9444   42.9667  135.0129 C   0  0  0  0  0  0  0  0  0  0  0  0
   11.7967   43.4977  135.5350 C   0  0  0  0  0  0  0  0  0  0  0  0
   11.2306   44.6453  134.9899 C   0  0  0  0  0  0  0  0  0  0  0  0
    9.8085   45.2662  135.7207 S   0  0  0  0  0  0  0  0  0  0  0  0
    9.6564   44.5757  137.3253 N   0  0  0  0  0  0  0  0  0  0  0  0
    8.5834   44.7364  134.9945 O   0  0  0  0  0  0  0  0  0  0  0  0
    9.7695   46.7617  135.8470 O   0  0  0  0  0  0  0  0  0  0  0  0
    9.3945   43.5687  137.2744 H   0  0  0  0  0  0  0  0  0  0  0  0
   10.5621   44.6555  137.8166 H   0  0  0  0  0  0  0  0  0  0  0  0
    6.7915   48.5704  130.2833 O   0  0  0  0  0  0  0  0  0  0  0  0
    8.3208   45.2638  129.9274 C   0  0  0  0  0  0  0  0  0  0  0  0
    9.1104   45.4192  128.8071 C   0  0  0  0  0  0  0  0  0  0  0  0
    9.1747   46.6059  128.1208 C   0  0  0  0  0  0  0  0  0  0  0  0
    8.3944   47.6656  128.6131 C   0  0  0  0  0  0  0  0  0  0  0  0
    7.6096   47.5744  129.6976 C   0  0  0  0  0  0  0  0  0  0  0  0
    7.5749   46.3231  130.3752 C   0  0  0  0  0  0  0  0  0  0  0  0
    8.2317   42.8501  130.1028 N   0  0  0  0  0  0  0  0  0  0  0  0
    8.2760   43.9892  130.6549 C   0  0  0  0  0  0  0  0  0  0  0  0
    8.2652   44.0344  132.0741 N   0  0  0  0  0  0  0  0  0  0  0  0
    8.2293   42.5967  129.1166 H   0  0  0  0  0  0  0  0  0  0  0  0
    7.3834   43.6858  132.5310 H   0  0  0  0  0  0  0  0  0  0  0  0
    9.0150   44.3667  132.6869 H   0  0  0  0  0  0  0  0  0  0  0  0
 39 40  2  0  0  0
 40 41  1  0  0  0
 40 33  1  0  0  0
 33 34  2  0  0  0
 34 35  1  0  0  0
 35 36  2  0  0  0
 36 37  1  0  0  0
 37 32  1  0  0  0
 32  1  1  0  0  0
  1  2  2  0  0  0
  2  3  1  0  0  0
  3  4  2  0  0  0
  4  5  1  0  0  0
  4  6  1  0  0  0
  6  7  2  0  0  0
  7 10  1  0  0  0
 10 11  2  0  0  0
 10 12  1  0  0  0
 12 14  1  0  0  0
 14 15  2  0  0  0
 15 16  1  0  0  0
 16 17  2  0  0  0
 17 20  1  0  0  0
 20 21  2  0  0  0
 21 22  1  0  0  0
 22 23  2  0  0  0
 23 24  1  0  0  0
 24 25  2  0  0  0
 25 26  1  0  0  0
 26 27  1  0  0  0
 26 28  2  0  0  0
 26 29  2  0  0  0
 17 18  1  0  0  0
 18 19  2  0  0  0
 37 38  2  0  0  0
 38 33  1  0  0  0
  7  1  1  0  0  0
 19 14  1  0  0  0
 25 20  1  0  0  0
 39 42  1  0  0  0
 41 43  1  0  0  0
 41 44  1  0  0  0
  5  8  1  0  0  0
  5  9  1  0  0  0
 12 13  1  0  0  0
 27 30  1  0  0  0
 27 31  1  0  0  0
M  END
> <minimizedAffinity>
15.65322

> <CNNscore>
0.3520757556

> <CNNaffinity>
7.4001150131

> <CNN_VS>
2.6054010391

> <CNNaffinity_variance>
1.3144290447

$$$$
[H]N=C(c1c([H])c([H])c([H])c(Oc2c([H])c([H])c(N([H])[H])c([H])c2C(=O)N([H])c2c([H])c([H])c(-c3c([H])c([H])c([H])c([H])c3S(=O)(=O)N([H])[H])c([H])c2[H])c1[H])N([H])[H]


 44 47  0  0  0  0  0  0  0  0999 V2000
    7.0110   49.0970  128.6108 C   0  0  0  0  0  0  0  0  0  0  0  0
    7.1741   50.5017  128.5058 C   0  0  0  0  0  0  0  0  0  0  0  0
    6.3565   51.3456  129.2083 C   0  0  0  0  0  0  0  0  0  0  0  0
    5.3860   50.7926  130.0058 C   0  0  0  0  0  0  0  0  0  0  0  0
    4.5436   51.6857  130.7123 N   0  0  0  0  0  0  0  0  0  0  0  0
    5.2335   49.4334  130.1112 C   0  0  0  0  0  0  0  0  0  0  0  0
    6.0824   48.5283  129.3907 C   0  0  0  0  0  0  0  0  0  0  0  0
    4.3326   51.5531  131.7060 H   0  0  0  0  0  0  0  0  0  0  0  0
    4.1462   52.4722  130.1738 H   0  0  0  0  0  0  0  0  0  0  0  0
    6.0558   47.1310  129.9023 C   0  0  0  0  0  0  0  0  0  0  0  0
    5.1341   46.4537  129.2815 O   0  0  0  0  0  0  0  0  0  0  0  0
    6.7929   46.5475  130.8246 N   0  0  0  0  0  0  0  0  0  0  0  0
    6.3869   45.3132  130.3268 H   0  0  0  0  0  0  0  0  0  0  0  0
    7.5650   45.9364  131.7906 C   0  0  0  0  0  0  0  0  0  0  0  0
    7.9646   46.6737  132.9297 C   0  0  0  0  0  0  0  0  0  0  0  0
    8.8035   46.1417  133.8823 C   0  0  0  0  0  0  0  0  0  0  0  0
    9.2911   44.8648  133.7676 C   0  0  0  0  0  0  0  0  0  0  0  0
    8.9165   44.1252  132.6761 C   0  0  0  0  0  0  0  0  0  0  0  0
    8.0734   44.6500  131.7114 C   0  0  0  0  0  0  0  0  0  0  0  0
   10.2138   44.2914  134.7208 C   0  0  0  0  0  0  0  0  0  0  0  0
    9.9451   44.2941  136.0766 C   0  0  0  0  0  0  0  0  0  0  0  0
   10.8299   43.7855  136.9929 C   0  0  0  0  0  0  0  0  0  0  0  0
   12.0226   43.2562  136.5502 C   0  0  0  0  0  0  0  0  0  0  0  0
   12.3060   43.2435  135.2118 C   0  0  0  0  0  0  0  0  0  0  0  0
   11.4036   43.7596  134.2877 C   0  0  0  0  0  0  0  0  0  0  0  0
   11.8190   43.6787  132.6256 S   0  0  0  0  0  0  0  0  0  0  0  0
   13.3253   42.7950  132.4674 N   0  0  0  0  0  0  0  0  0  0  0  0
   12.1723   45.0658  132.1154 O   0  0  0  0  0  0  0  0  0  0  0  0
   10.7919   43.0165  131.7536 O   0  0  0  0  0  0  0  0  0  0  0  0
   14.1278   43.3612  132.8150 H   0  0  0  0  0  0  0  0  0  0  0  0
   13.2697   41.9266  133.0248 H   0  0  0  0  0  0  0  0  0  0  0  0
    7.8928   48.3279  127.8148 O   0  0  0  0  0  0  0  0  0  0  0  0
   10.1112   47.7792  130.6744 C   0  0  0  0  0  0  0  0  0  0  0  0
   10.7004   46.5705  130.3673 C   0  0  0  0  0  0  0  0  0  0  0  0
   10.3973   45.8840  129.2182 C   0  0  0  0  0  0  0  0  0  0  0  0
    9.4522   46.4710  128.3601 C   0  0  0  0  0  0  0  0  0  0  0  0
    8.8479   47.6438  128.6046 C   0  0  0  0  0  0  0  0  0  0  0  0
    9.1939   48.3178  129.8097 C   0  0  0  0  0  0  0  0  0  0  0  0
   11.2396   48.0639  132.7980 N   0  0  0  0  0  0  0  0  0  0  0  0
   10.4589   48.5040  131.9031 C   0  0  0  0  0  0  0  0  0  0  0  0
    9.8684   49.7783  132.1123 N   0  0  0  0  0  0  0  0  0  0  0  0
   11.7588   47.1893  132.8460 H   0  0  0  0  0  0  0  0  0  0  0  0
    9.2052   49.8411  132.9272 H   0  0  0  0  0  0  0  0  0  0  0  0
   10.0194   50.6269  131.5598 H   0  0  0  0  0  0  0  0  0  0  0  0
 39 40  2  0  0  0
 40 41  1  0  0  0
 40 33  1  0  0  0
 33 34  2  0  0  0
 34 35  1  0  0  0
 35 36  2  0  0  0
 36 37  1  0  0  0
 37 32  1  0  0  0
 32  1  1  0  0  0
  1  2  2  0  0  0
  2  3  1  0  0  0
  3  4  2  0  0  0
  4  5  1  0  0  0
  4  6  1  0  0  0
  6  7  2  0  0  0
  7 10  1  0  0  0
 10 11  2  0  0  0
 10 12  1  0  0  0
 12 14  1  0  0  0
 14 15  2  0  0  0
 15 16  1  0  0  0
 16 17  2  0  0  0
 17 20  1  0  0  0
 20 21  2  0  0  0
 21 22  1  0  0  0
 22 23  2  0  0  0
 23 24  1  0  0  0
 24 25  2  0  0  0
 25 26  1  0  0  0
 26 27  1  0  0  0
 26 28  2  0  0  0
 26 29  2  0  0  0
 17 18  1  0  0  0
 18 19  2  0  0  0
 37 38  2  0  0  0
 38 33  1  0  0  0
  7  1  1  0  0  0
 19 14  1  0  0  0
 25 20  1  0  0  0
 39 42  1  0  0  0
 41 43  1  0  0  0
 41 44  1  0  0  0
  5  8  1  0  0  0
  5  9  1  0  0  0
 12 13  1  0  0  0
 27 30  1  0  0  0
 27 31  1  0  0  0
M  END
> <minimizedAffinity>
9.47324

> <CNNscore>
0.3498125076

> <CNNaffinity>
7.3527474403

> <CNN_VS>
2.5720829964

> <CNNaffinity_variance>
0.5094513893

$$$$
[H]N=C(c1c([H])c([H])c([H])c(Oc2c([H])c([H])c(N([H])[H])c([H])c2C(=O)N([H])c2c([H])c([H])c(-c3c([H])c([H])c([H])c([H])c3S(=O)(=O)N([H])[H])c([H])c2[H])c1[H])N([H])[H]


 44 47  0  0  0  0  0  0  0  0999 V2000
   11.1375   44.3363  131.4241 C   0  0  0  0  0  0  0  0  0  0  0  0
   12.1388   43.6824  132.1863 C   0  0  0  0  0  0  0  0  0  0  0  0
   12.0770   42.3303  132.3909 C   0  0  0  0  0  0  0  0  0  0  0  0
   11.0263   41.6391  131.8417 C   0  0  0  0  0  0  0  0  0  0  0  0
   10.9764   40.2434  132.0784 N   0  0  0  0  0  0  0  0  0  0  0  0
   10.0618   42.2720  131.0994 C   0  0  0  0  0  0  0  0  0  0  0  0
   10.1083   43.6868  130.8647 C   0  0  0  0  0  0  0  0  0  0  0  0
   10.7911   39.5764  131.3231 H   0  0  0  0  0  0  0  0  0  0  0  0
   11.1278   39.9324  133.0515 H   0  0  0  0  0  0  0  0  0  0  0  0
    9.2430   44.1469  129.7447 C   0  0  0  0  0  0  0  0  0  0  0  0
    8.8641   43.1245  129.0342 O   0  0  0  0  0  0  0  0  0  0  0  0
    8.8456   45.3592  129.4180 N   0  0  0  0  0  0  0  0  0  0  0  0
    7.8494   44.7892  128.6313 H   0  0  0  0  0  0  0  0  0  0  0  0
    8.4293   46.6290  129.0759 C   0  0  0  0  0  0  0  0  0  0  0  0
    9.3923   47.6457  128.8764 C   0  0  0  0  0  0  0  0  0  0  0  0
    9.0310   48.9481  128.6167 C   0  0  0  0  0  0  0  0  0  0  0  0
    7.7128   49.3188  128.5393 C   0  0  0  0  0  0  0  0  0  0  0  0
    6.7576   48.3531  128.7237 C   0  0  0  0  0  0  0  0  0  0  0  0
    7.1091   47.0399  128.9857 C   0  0  0  0  0  0  0  0  0  0  0  0
    7.2961   50.6851  128.3195 C   0  0  0  0  0  0  0  0  0  0  0  0
    7.8284   51.4460  127.2957 C   0  0  0  0  0  0  0  0  0  0  0  0
    7.4670   52.7546  127.1006 C   0  0  0  0  0  0  0  0  0  0  0  0
    6.5465   53.3292  127.9497 C   0  0  0  0  0  0  0  0  0  0  0  0
    6.0076   52.5918  128.9682 C   0  0  0  0  0  0  0  0  0  0  0  0
    6.3774   51.2647  129.1597 C   0  0  0  0  0  0  0  0  0  0  0  0
    5.6336   50.3988  130.4399 S   0  0  0  0  0  0  0  0  0  0  0  0
    4.7116   51.5259  131.4167 N   0  0  0  0  0  0  0  0  0  0  0  0
    6.6946   49.8896  131.4013 O   0  0  0  0  0  0  0  0  0  0  0  0
    4.7141   49.2962  130.0007 O   0  0  0  0  0  0  0  0  0  0  0  0
    5.3430   52.1404  131.9726 H   0  0  0  0  0  0  0  0  0  0  0  0
    4.1360   52.1202  130.7973 H   0  0  0  0  0  0  0  0  0  0  0  0
   11.2902   45.7382  131.3071 O   0  0  0  0  0  0  0  0  0  0  0  0
    9.6682   48.6336  132.8516 C   0  0  0  0  0  0  0  0  0  0  0  0
    9.0300   48.0735  133.9385 C   0  0  0  0  0  0  0  0  0  0  0  0
    9.0997   46.7303  134.2110 C   0  0  0  0  0  0  0  0  0  0  0  0
    9.8562   45.9429  133.3269 C   0  0  0  0  0  0  0  0  0  0  0  0
   10.4998   46.4311  132.2554 C   0  0  0  0  0  0  0  0  0  0  0  0
   10.3969   47.8300  132.0135 C   0  0  0  0  0  0  0  0  0  0  0  0
    9.5799   50.9703  133.4811 N   0  0  0  0  0  0  0  0  0  0  0  0
    9.5916   50.0754  132.5849 C   0  0  0  0  0  0  0  0  0  0  0  0
    9.5086   50.4972  131.2316 N   0  0  0  0  0  0  0  0  0  0  0  0
    9.6286   50.8868  134.4948 H   0  0  0  0  0  0  0  0  0  0  0  0
    8.6061   50.9647  130.9581 H   0  0  0  0  0  0  0  0  0  0  0  0
   10.2250   50.3935  130.5075 H   0  0  0  0  0  0  0  0  0  0  0  0
 39 40  2  0  0  0
 40 41  1  0  0  0
 40 33  1  0  0  0
 33 34  2  0  0  0
 34 35  1  0  0  0
 35 36  2  0  0  0
 36 37  1  0  0  0
 37 32  1  0  0  0
 32  1  1  0  0  0
  1  2  2  0  0  0
  2  3  1  0  0  0
  3  4  2  0  0  0
  4  5  1  0  0  0
  4  6  1  0  0  0
  6  7  2  0  0  0
  7 10  1  0  0  0
 10 11  2  0  0  0
 10 12  1  0  0  0
 12 14  1  0  0  0
 14 15  2  0  0  0
 15 16  1  0  0  0
 16 17  2  0  0  0
 17 20  1  0  0  0
 20 21  2  0  0  0
 21 22  1  0  0  0
 22 23  2  0  0  0
 23 24  1  0  0  0
 24 25  2  0  0  0
 25 26  1  0  0  0
 26 27  1  0  0  0
 26 28  2  0  0  0
 26 29  2  0  0  0
 17 18  1  0  0  0
 18 19  2  0  0  0
 37 38  2  0  0  0
 38 33  1  0  0  0
  7  1  1  0  0  0
 19 14  1  0  0  0
 25 20  1  0  0  0
 39 42  1  0  0  0
 41 43  1  0  0  0
 41 44  1  0  0  0
  5  8  1  0  0  0
  5  9  1  0  0  0
 12 13  1  0  0  0
 27 30  1  0  0  0
 27 31  1  0  0  0
M  END
> <minimizedAffinity>
13.35252

> <CNNscore>
0.3367373049

> <CNNaffinity>
7.2932496071

> <CNN_VS>
2.4559092522

> <CNNaffinity_variance>
0.6136059761

$$$$
[H]N1C(=NC2([H])C([H])([H])C([H])([H])C([H])([H])C([H])([H])C([H])([H])C([H])([H])C2([H])[H])O[C@@]2([H])C([H])([H])C([H])([H])C([H])([H])C([H])([H])[C@@]2([H])S1(=O)=O


 22 24  0  0  0  0  0  0  0  0999 V2000
   10.4983   42.5667  131.3402 O   0  0  0  0  0  0  0  0  0  0  0  0
    9.5574   43.4213  132.1308 S   0  0  0  0  0  0  0  0  0  0  0  0
    8.4826   42.6076  132.7960 O   0  0  0  0  0  0  0  0  0  0  0  0
    8.8169   44.6375  131.1195 N   0  0  0  0  0  0  0  0  0  0  0  0
    8.4847   45.8773  131.7064 C   0  0  0  0  0  0  0  0  0  0  0  0
    7.5378   46.5720  131.2110 N   0  0  0  0  0  0  0  0  0  0  0  0
    9.1612   46.3445  132.7964 O   0  0  0  0  0  0  0  0  0  0  0  0
    9.8105   45.5957  133.7612 C   0  0  0  0  0  0  0  0  0  0  0  0
    8.8290   45.4142  134.9289 C   0  0  0  0  0  0  0  0  0  0  0  0
    9.6579   45.1524  136.1541 C   0  0  0  0  0  0  0  0  0  0  0  0
   10.8254   44.2775  135.8372 C   0  0  0  0  0  0  0  0  0  0  0  0
   10.5181   43.4231  134.6058 C   0  0  0  0  0  0  0  0  0  0  0  0
   10.4210   44.3124  133.3834 C   0  0  0  0  0  0  0  0  0  0  0  0
    8.6681   44.3788  130.1507 H   0  0  0  0  0  0  0  0  0  0  0  0
    6.7618   46.1782  130.0701 C   0  0  0  0  0  0  0  0  0  0  0  0
    5.3757   46.7767  130.0777 C   0  0  0  0  0  0  0  0  0  0  0  0
    5.2477   48.0489  129.3105 C   0  0  0  0  0  0  0  0  0  0  0  0
    6.0312   49.1982  129.8475 C   0  0  0  0  0  0  0  0  0  0  0  0
    6.9472   49.8164  128.7977 C   0  0  0  0  0  0  0  0  0  0  0  0
    7.6836   48.7917  127.9977 C   0  0  0  0  0  0  0  0  0  0  0  0
    8.3008   47.7784  128.9061 C   0  0  0  0  0  0  0  0  0  0  0  0
    7.5108   46.4947  128.7977 C   0  0  0  0  0  0  0  0  0  0  0  0
  1  2  2  0  0  0
  2  3  2  0  0  0
  2  4  1  0  0  0
  4  5  1  0  0  0
  5  6  2  0  0  0
  6 15  1  0  0  0
 15 16  1  0  0  0
 16 17  1  0  0  0
 17 18  1  0  0  0
 18 19  1  0  0  0
 19 20  1  0  0  0
 20 21  1  0  0  0
 21 22  1  0  0  0
  5  7  1  0  0  0
  7  8  1  0  0  0
  8  9  1  0  0  0
  9 10  1  0  0  0
 10 11  1  0  0  0
 11 12  1  0  0  0
 12 13  1  0  0  0
 13  2  1  0  0  0
 22 15  1  0  0  0
 13  8  1  0  0  0
  4 14  1  0  0  0
M  END
> <minimizedAffinity>
-0.70957

> <CNNscore>
0.4670940936

> <CNNaffinity>
6.7215752602

> <CNN_VS>
3.1396081448

> <CNNaffinity_variance>
0.7564417720

$$$$
[H]N1C(=NC2([H])C([H])([H])C([H])([H])C([H])([H])C([H])([H])C([H])([H])C([H])([H])C2([H])[H])O[C@@]2([H])C([H])([H])C([H])([H])C([H])([H])C([H])([H])[C@@]2([H])S1(=O)=O


 22 24  0  0  0  0  0  0  0  0999 V2000
    9.3861   45.6979  135.1917 O   0  0  0  0  0  0  0  0  0  0  0  0
   10.1159   45.9559  133.9105 S   0  0  0  0  0  0  0  0  0  0  0  0
   11.3557   46.7784  134.1255 O   0  0  0  0  0  0  0  0  0  0  0  0
    9.0841   46.7603  132.7537 N   0  0  0  0  0  0  0  0  0  0  0  0
    9.2881   46.4932  131.3830 C   0  0  0  0  0  0  0  0  0  0  0  0
    8.9568   47.3681  130.5173 N   0  0  0  0  0  0  0  0  0  0  0  0
    9.8347   45.3125  130.9691 O   0  0  0  0  0  0  0  0  0  0  0  0
   10.6987   44.4976  131.6781 C   0  0  0  0  0  0  0  0  0  0  0  0
   12.1256   44.8663  131.2449 C   0  0  0  0  0  0  0  0  0  0  0  0
   12.9852   43.6653  131.5200 C   0  0  0  0  0  0  0  0  0  0  0  0
   12.5934   43.0050  132.8004 C   0  0  0  0  0  0  0  0  0  0  0  0
   11.9249   44.0212  133.7283 C   0  0  0  0  0  0  0  0  0  0  0  0
   10.5922   44.4413  133.1436 C   0  0  0  0  0  0  0  0  0  0  0  0
    8.3834   47.3822  133.1409 H   0  0  0  0  0  0  0  0  0  0  0  0
    8.3762   48.6402  130.8397 C   0  0  0  0  0  0  0  0  0  0  0  0
    8.6254   49.6780  129.7717 C   0  0  0  0  0  0  0  0  0  0  0  0
    7.5313   49.8056  128.7667 C   0  0  0  0  0  0  0  0  0  0  0  0
    7.3058   48.6031  127.9145 C   0  0  0  0  0  0  0  0  0  0  0  0
    5.8599   48.1229  127.9603 C   0  0  0  0  0  0  0  0  0  0  0  0
    5.3013   48.1024  129.3459 C   0  0  0  0  0  0  0  0  0  0  0  0
    6.2572   47.4259  130.2741 C   0  0  0  0  0  0  0  0  0  0  0  0
    6.9059   48.4784  131.1432 C   0  0  0  0  0  0  0  0  0  0  0  0
  1  2  2  0  0  0
  2  3  2  0  0  0
  2  4  1  0  0  0
  4  5  1  0  0  0
  5  6  2  0  0  0
  6 15  1  0  0  0
 15 16  1  0  0  0
 16 17  1  0  0  0
 17 18  1  0  0  0
 18 19  1  0  0  0
 19 20  1  0  0  0
 20 21  1  0  0  0
 21 22  1  0  0  0
  5  7  1  0  0  0
  7  8  1  0  0  0
  8  9  1  0  0  0
  9 10  1  0  0  0
 10 11  1  0  0  0
 11 12  1  0  0  0
 12 13  1  0  0  0
 13  2  1  0  0  0
 22 15  1  0  0  0
 13  8  1  0  0  0
  4 14  1  0  0  0
M  END
> <minimizedAffinity>
-2.73714

> <CNNscore>
0.4298027754

> <CNNaffinity>
6.8032188416

> <CNN_VS>
2.9240422249

> <CNNaffinity_variance>
0.7872568965

$$$$
[H]N1C(=NC2([H])C([H])([H])C([H])([H])C([H])([H])C([H])([H])C([H])([H])C([H])([H])C2([H])[H])O[C@@]2([H])C([H])([H])C([H])([H])C([H])([H])C([H])([H])[C@@]2([H])S1(=O)=O


 22 24  0  0  0  0  0  0  0  0999 V2000
    8.2704   43.4023  128.2154 O   0  0  0  0  0  0  0  0  0  0  0  0
    9.1491   44.1828  129.1425 S   0  0  0  0  0  0  0  0  0  0  0  0
    9.3716   43.4645  130.4442 O   0  0  0  0  0  0  0  0  0  0  0  0
    8.4747   45.7614  129.4633 N   0  0  0  0  0  0  0  0  0  0  0  0
    9.3665   46.8294  129.6993 C   0  0  0  0  0  0  0  0  0  0  0  0
    8.9859   47.8200  130.4054 N   0  0  0  0  0  0  0  0  0  0  0  0
   10.6306   46.8188  129.1837 O   0  0  0  0  0  0  0  0  0  0  0  0
   11.3944   45.7100  128.8665 C   0  0  0  0  0  0  0  0  0  0  0  0
   12.2992   45.4238  130.0744 C   0  0  0  0  0  0  0  0  0  0  0  0
   13.4845   44.6602  129.5558 C   0  0  0  0  0  0  0  0  0  0  0  0
   13.0761   43.6804  128.5060 C   0  0  0  0  0  0  0  0  0  0  0  0
   11.6097   43.2893  128.6994 C   0  0  0  0  0  0  0  0  0  0  0  0
   10.7243   44.4836  128.4093 C   0  0  0  0  0  0  0  0  0  0  0  0
    7.4627   45.8211  129.4587 H   0  0  0  0  0  0  0  0  0  0  0  0
    7.6828   47.9349  130.9954 C   0  0  0  0  0  0  0  0  0  0  0  0
    7.5244   49.1972  131.8084 C   0  0  0  0  0  0  0  0  0  0  0  0
    6.9244   50.3410  131.0633 C   0  0  0  0  0  0  0  0  0  0  0  0
    7.7412   50.8615  129.9299 C   0  0  0  0  0  0  0  0  0  0  0  0
    6.9634   50.8890  128.6193 C   0  0  0  0  0  0  0  0  0  0  0  0
    6.1768   49.6400  128.3877 C   0  0  0  0  0  0  0  0  0  0  0  0
    7.0361   48.4411  128.6269 C   0  0  0  0  0  0  0  0  0  0  0  0
    6.6179   47.8056  129.9327 C   0  0  0  0  0  0  0  0  0  0  0  0
  1  2  2  0  0  0
  2  3  2  0  0  0
  2  4  1  0  0  0
  4  5  1  0  0  0
  5  6  2  0  0  0
  6 15  1  0  0  0
 15 16  1  0  0  0
 16 17  1  0  0  0
 17 18  1  0  0  0
 18 19  1  0  0  0
 19 20  1  0  0  0
 20 21  1  0  0  0
 21 22  1  0  0  0
  5  7  1  0  0  0
  7  8  1  0  0  0
  8  9  1  0  0  0
  9 10  1  0  0  0
 10 11  1  0  0  0
 11 12  1  0  0  0
 12 13  1  0  0  0
 13  2  1  0  0  0
 22 15  1  0  0  0
 13  8  1  0  0  0
  4 14  1  0  0  0
M  END
> <minimizedAffinity>
4.80901

> <CNNscore>
0.4212535620

> <CNNaffinity>
6.5036087036

> <CNN_VS>
2.7396683693

> <CNNaffinity_variance>
0.9726852179

$$$$
[H]N1C(=NC2([H])C([H])([H])C([H])([H])C([H])([H])C([H])([H])C([H])([H])C([H])([H])C2([H])[H])O[C@@]2([H])C([H])([H])C([H])([H])C([H])([H])C([H])([H])[C@@]2([H])S1(=O)=O


 22 24  0  0  0  0  0  0  0  0999 V2000
    8.0647   43.8226  128.5873 O   0  0  0  0  0  0  0  0  0  0  0  0
    9.1611   44.2637  129.5060 S   0  0  0  0  0  0  0  0  0  0  0  0
    9.5732   43.1726  130.4544 O   0  0  0  0  0  0  0  0  0  0  0  0
    8.6823   45.6721  130.4209 N   0  0  0  0  0  0  0  0  0  0  0  0
    9.6813   46.6018  130.7807 C   0  0  0  0  0  0  0  0  0  0  0  0
    9.5190   47.3277  131.8159 N   0  0  0  0  0  0  0  0  0  0  0  0
   10.8190   46.7362  130.0381 O   0  0  0  0  0  0  0  0  0  0  0  0
   11.4216   45.7720  129.2505 C   0  0  0  0  0  0  0  0  0  0  0  0
   12.5163   45.1118  130.1023 C   0  0  0  0  0  0  0  0  0  0  0  0
   13.5191   44.5328  129.1452 C   0  0  0  0  0  0  0  0  0  0  0  0
   12.8444   43.9345  127.9554 C   0  0  0  0  0  0  0  0  0  0  0  0
   11.4165   43.5215  128.3181 C   0  0  0  0  0  0  0  0  0  0  0  0
   10.5853   44.7579  128.5913 C   0  0  0  0  0  0  0  0  0  0  0  0
    7.6956   45.7432  130.6424 H   0  0  0  0  0  0  0  0  0  0  0  0
    8.3653   47.2695  132.6673 C   0  0  0  0  0  0  0  0  0  0  0  0
    7.6918   45.9185  132.6386 C   0  0  0  0  0  0  0  0  0  0  0  0
    8.1263   44.9884  133.7201 C   0  0  0  0  0  0  0  0  0  0  0  0
    9.5558   44.5686  133.6630 C   0  0  0  0  0  0  0  0  0  0  0  0
   10.2937   44.8449  134.9678 C   0  0  0  0  0  0  0  0  0  0  0  0
    9.9925   46.1973  135.5270 C   0  0  0  0  0  0  0  0  0  0  0  0
   10.1191   47.2339  134.4581 C   0  0  0  0  0  0  0  0  0  0  0  0
    8.7324   47.6922  134.0696 C   0  0  0  0  0  0  0  0  0  0  0  0
  1  2  2  0  0  0
  2  3  2  0  0  0
  2  4  1  0  0  0
  4  5  1  0  0  0
  5  6  2  0  0  0
  6 15  1  0  0  0
 15 16  1  0  0  0
 16 17  1  0  0  0
 17 18  1  0  0  0
 18 19  1  0  0  0
 19 20  1  0  0  0
 20 21  1  0  0  0
 21 22  1  0  0  0
  5  7  1  0  0  0
  7  8  1  0  0  0
  8  9  1  0  0  0
  9 10  1  0  0  0
 10 11  1  0  0  0
 11 12  1  0  0  0
 12 13  1  0  0  0
 13  2  1  0  0  0
 22 15  1  0  0  0
 13  8  1  0  0  0
  4 14  1  0  0  0
M  END
> <minimizedAffinity>
0.61995

> <CNNscore>
0.4064213932

> <CNNaffinity>
6.8248414993

> <CNN_VS>
2.7737615108

> <CNNaffinity_variance>
0.8141299486

$$$$
[H]N1C(=NC2([H])C([H])([H])C([H])([H])C([H])([H])C([H])([H])C([H])([H])C([H])([H])C2([H])[H])O[C@@]2([H])C([H])([H])C([H])([H])C([H])([H])C([H])([H])[C@@]2([H])S1(=O)=O


 22 24  0  0  0  0  0  0  0  0999 V2000
   12.9241   45.3551  134.0059 O   0  0  0  0  0  0  0  0  0  0  0  0
   11.8936   45.3113  132.9211 S   0  0  0  0  0  0  0  0  0  0  0  0
   12.5119   45.4062  131.5541 O   0  0  0  0  0  0  0  0  0  0  0  0
   10.7254   46.5948  133.1156 N   0  0  0  0  0  0  0  0  0  0  0  0
    9.4006   46.3572  132.6911 C   0  0  0  0  0  0  0  0  0  0  0  0
    8.6692   47.3398  132.3386 N   0  0  0  0  0  0  0  0  0  0  0  0
    8.8896   45.0918  132.6519 O   0  0  0  0  0  0  0  0  0  0  0  0
    9.5915   43.9120  132.4827 C   0  0  0  0  0  0  0  0  0  0  0  0
    9.5393   43.5654  130.9870 C   0  0  0  0  0  0  0  0  0  0  0  0
    9.7500   42.0819  130.8790 C   0  0  0  0  0  0  0  0  0  0  0  0
   10.7721   41.6107  131.8599 C   0  0  0  0  0  0  0  0  0  0  0  0
   11.7199   42.7572  132.2172 C   0  0  0  0  0  0  0  0  0  0  0  0
   10.9655   43.8140  132.9972 C   0  0  0  0  0  0  0  0  0  0  0  0
   11.0722   47.4513  133.5323 H   0  0  0  0  0  0  0  0  0  0  0  0
    9.1028   48.7077  132.3403 C   0  0  0  0  0  0  0  0  0  0  0  0
   10.2836   48.9421  131.4290 C   0  0  0  0  0  0  0  0  0  0  0  0
    9.9237   49.4041  130.0577 C   0  0  0  0  0  0  0  0  0  0  0  0
    9.1518   48.4265  129.2383 C   0  0  0  0  0  0  0  0  0  0  0  0
    7.8527   49.0170  128.7028 C   0  0  0  0  0  0  0  0  0  0  0  0
    7.1043   49.7975  129.7339 C   0  0  0  0  0  0  0  0  0  0  0  0
    7.0058   49.0111  131.0007 C   0  0  0  0  0  0  0  0  0  0  0  0
    7.9444   49.6205  132.0162 C   0  0  0  0  0  0  0  0  0  0  0  0
  1  2  2  0  0  0
  2  3  2  0  0  0
  2  4  1  0  0  0
  4  5  1  0  0  0
  5  6  2  0  0  0
  6 15  1  0  0  0
 15 16  1  0  0  0
 16 17  1  0  0  0
 17 18  1  0  0  0
 18 19  1  0  0  0
 19 20  1  0  0  0
 20 21  1  0  0  0
 21 22  1  0  0  0
  5  7  1  0  0  0
  7  8  1  0  0  0
  8  9  1  0  0  0
  9 10  1  0  0  0
 10 11  1  0  0  0
 11 12  1  0  0  0
 12 13  1  0  0  0
 13  2  1  0  0  0
 22 15  1  0  0  0
 13  8  1  0  0  0
  4 14  1  0  0  0
M  END
> <minimizedAffinity>
-4.44771

> <CNNscore>
0.3449949324

> <CNNaffinity>
6.7631940842

> <CNN_VS>
2.3332676888

> <CNNaffinity_variance>
0.4521468282

$$$$
[H]N1C(=NC2([H])C([H])([H])C([H])([H])C([H])([H])C([H])([H])C([H])([H])C([H])([H])C2([H])[H])O[C@@]2([H])C([H])([H])C([H])([H])C([H])([H])C([H])([H])[C@@]2([H])S1(=O)=O


 22 24  0  0  0  0  0  0  0  0999 V2000
   12.3151   44.7772  129.0739 O   0  0  0  0  0  0  0  0  0  0  0  0
   11.1927   44.7604  130.0642 S   0  0  0  0  0  0  0  0  0  0  0  0
   10.5001   43.4268  130.1066 O   0  0  0  0  0  0  0  0  0  0  0  0
   10.0227   46.0062  129.7052 N   0  0  0  0  0  0  0  0  0  0  0  0
    9.3290   46.5968  130.7831 C   0  0  0  0  0  0  0  0  0  0  0  0
    8.1739   47.0983  130.5862 N   0  0  0  0  0  0  0  0  0  0  0  0
    9.8753   46.6395  132.0336 O   0  0  0  0  0  0  0  0  0  0  0  0
   10.7988   45.7620  132.5725 C   0  0  0  0  0  0  0  0  0  0  0  0
   10.0121   44.7118  133.3711 C   0  0  0  0  0  0  0  0  0  0  0  0
   10.9563   44.1512  134.3963 C   0  0  0  0  0  0  0  0  0  0  0  0
   12.3282   43.9859  133.8311 C   0  0  0  0  0  0  0  0  0  0  0  0
   12.2504   43.8232  132.3118 C   0  0  0  0  0  0  0  0  0  0  0  0
   11.7818   45.1209  131.6866 C   0  0  0  0  0  0  0  0  0  0  0  0
    9.9092   46.2395  128.7252 H   0  0  0  0  0  0  0  0  0  0  0  0
    7.5061   47.1081  129.3161 C   0  0  0  0  0  0  0  0  0  0  0  0
    6.0033   47.1576  129.4522 C   0  0  0  0  0  0  0  0  0  0  0  0
    5.4225   48.5298  129.3952 C   0  0  0  0  0  0  0  0  0  0  0  0
    5.8157   49.4348  130.5129 C   0  0  0  0  0  0  0  0  0  0  0  0
    6.4177   50.7436  130.0148 C   0  0  0  0  0  0  0  0  0  0  0  0
    7.4024   50.5430  128.9091 C   0  0  0  0  0  0  0  0  0  0  0  0
    8.3678   49.4618  129.2721 C   0  0  0  0  0  0  0  0  0  0  0  0
    8.0368   48.2320  128.4586 C   0  0  0  0  0  0  0  0  0  0  0  0
  1  2  2  0  0  0
  2  3  2  0  0  0
  2  4  1  0  0  0
  4  5  1  0  0  0
  5  6  2  0  0  0
  6 15  1  0  0  0
 15 16  1  0  0  0
 16 17  1  0  0  0
 17 18  1  0  0  0
 18 19  1  0  0  0
 19 20  1  0  0  0
 20 21  1  0  0  0
 21 22  1  0  0  0
  5  7  1  0  0  0
  7  8  1  0  0  0
  8  9  1  0  0  0
  9 10  1  0  0  0
 10 11  1  0  0  0
 11 12  1  0  0  0
 12 13  1  0  0  0
 13  2  1  0  0  0
 22 15  1  0  0  0
 13  8  1  0  0  0
  4 14  1  0  0  0
M  END
> <minimizedAffinity>
-6.72825

> <CNNscore>
0.3076555133

> <CNNaffinity>
6.5416817665

> <CNN_VS>
2.0125844479

> <CNNaffinity_variance>
0.1531449854

$$$$
[H]N1C(=NC2([H])C([H])([H])C([H])([H])C([H])([H])C([H])([H])C([H])([H])C([H])([H])C2([H])[H])O[C@@]2([H])C([H])([H])C([H])([H])C([H])([H])C([H])([H])[C@@]2([H])S1(=O)=O


 22 24  0  0  0  0  0  0  0  0999 V2000
    8.5161   45.1249  128.4088 O   0  0  0  0  0  0  0  0  0  0  0  0
    9.0888   46.2655  129.1909 S   0  0  0  0  0  0  0  0  0  0  0  0
    9.9693   47.1418  128.3442 O   0  0  0  0  0  0  0  0  0  0  0  0
   10.0003   45.6877  130.5639 N   0  0  0  0  0  0  0  0  0  0  0  0
   10.0272   46.4864  131.7272 C   0  0  0  0  0  0  0  0  0  0  0  0
   11.0183   46.4007  132.5241 N   0  0  0  0  0  0  0  0  0  0  0  0
    9.0086   47.3495  132.0129 O   0  0  0  0  0  0  0  0  0  0  0  0
    8.1582   47.9657  131.1127 C   0  0  0  0  0  0  0  0  0  0  0  0
    8.7405   49.3567  130.8202 C   0  0  0  0  0  0  0  0  0  0  0  0
    7.5976   50.2160  130.3591 C   0  0  0  0  0  0  0  0  0  0  0  0
    6.6651   49.4465  129.4832 C   0  0  0  0  0  0  0  0  0  0  0  0
    7.4110   48.2888  128.8167 C   0  0  0  0  0  0  0  0  0  0  0  0
    7.8066   47.2702  129.8657 C   0  0  0  0  0  0  0  0  0  0  0  0
   10.4639   44.7941  130.4447 H   0  0  0  0  0  0  0  0  0  0  0  0
   12.1407   45.5296  132.3224 C   0  0  0  0  0  0  0  0  0  0  0  0
   12.8414   45.1795  133.6131 C   0  0  0  0  0  0  0  0  0  0  0  0
   12.3858   43.9043  134.2374 C   0  0  0  0  0  0  0  0  0  0  0  0
   10.9680   43.8917  134.6985 C   0  0  0  0  0  0  0  0  0  0  0  0
   10.1771   42.7295  134.1095 C   0  0  0  0  0  0  0  0  0  0  0  0
   10.4306   42.5390  132.6494 C   0  0  0  0  0  0  0  0  0  0  0  0
   10.3230   43.8472  131.9353 C   0  0  0  0  0  0  0  0  0  0  0  0
   11.7137   44.3008  131.5558 C   0  0  0  0  0  0  0  0  0  0  0  0
  1  2  2  0  0  0
  2  3  2  0  0  0
  2  4  1  0  0  0
  4  5  1  0  0  0
  5  6  2  0  0  0
  6 15  1  0  0  0
 15 16  1  0  0  0
 16 17  1  0  0  0
 17 18  1  0  0  0
 18 19  1  0  0  0
 19 20  1  0  0  0
 20 21  1  0  0  0
 21 22  1  0  0  0
  5  7  1  0  0  0
  7  8  1  0  0  0
  8  9  1  0  0  0
  9 10  1  0  0  0
 10 11  1  0  0  0
 11 12  1  0  0  0
 12 13  1  0  0  0
 13  2  1  0  0  0
 22 15  1  0  0  0
 13  8  1  0  0  0
  4 14  1  0  0  0
M  END
> <minimizedAffinity>
-6.23568

> <CNNscore>
0.2829281092

> <CNNaffinity>
6.9517846107

> <CNN_VS>
1.9668552876

> <CNNaffinity_variance>
0.5459685922

$$$$
[H]N1C(=NC2([H])C([H])([H])C([H])([H])C([H])([H])C([H])([H])C([H])([H])C([H])([H])C2([H])[H])O[C@@]2([H])C([H])([H])C([H])([H])C([H])([H])C([H])([H])[C@@]2([H])S1(=O)=O


 22 24  0  0  0  0  0  0  0  0999 V2000
    9.9357   50.1945  130.1271 O   0  0  0  0  0  0  0  0  0  0  0  0
    9.0476   49.0704  130.5610 S   0  0  0  0  0  0  0  0  0  0  0  0
    8.1220   49.4818  131.6718 O   0  0  0  0  0  0  0  0  0  0  0  0
    9.9887   47.6922  131.0757 N   0  0  0  0  0  0  0  0  0  0  0  0
    9.4496   46.4046  130.8679 C   0  0  0  0  0  0  0  0  0  0  0  0
    9.8043   45.4458  131.6292 N   0  0  0  0  0  0  0  0  0  0  0  0
    8.5540   46.1692  129.8647 O   0  0  0  0  0  0  0  0  0  0  0  0
    7.6779   47.0765  129.2967 C   0  0  0  0  0  0  0  0  0  0  0  0
    6.3301   46.9142  130.0156 C   0  0  0  0  0  0  0  0  0  0  0  0
    5.2736   47.4161  129.0729 C   0  0  0  0  0  0  0  0  0  0  0  0
    5.7415   48.6271  128.3357 C   0  0  0  0  0  0  0  0  0  0  0  0
    6.8164   49.3503  129.1495 C   0  0  0  0  0  0  0  0  0  0  0  0
    8.0635   48.4932  129.2166 C   0  0  0  0  0  0  0  0  0  0  0  0
   10.8857   47.9005  131.4994 H   0  0  0  0  0  0  0  0  0  0  0  0
   10.7362   45.5799  132.7122 C   0  0  0  0  0  0  0  0  0  0  0  0
   10.2655   44.8902  133.9701 C   0  0  0  0  0  0  0  0  0  0  0  0
   10.7761   43.4996  134.1404 C   0  0  0  0  0  0  0  0  0  0  0  0
   10.3112   42.5205  133.1165 C   0  0  0  0  0  0  0  0  0  0  0  0
   11.4692   41.8017  132.4340 C   0  0  0  0  0  0  0  0  0  0  0  0
   12.5791   42.7263  132.0523 C   0  0  0  0  0  0  0  0  0  0  0  0
   12.0295   43.9230  131.3461 C   0  0  0  0  0  0  0  0  0  0  0  0
   12.1042   45.1070  132.2823 C   0  0  0  0  0  0  0  0  0  0  0  0
  1  2  2  0  0  0
  2  3  2  0  0  0
  2  4  1  0  0  0
  4  5  1  0  0  0
  5  6  2  0  0  0
  6 15  1  0  0  0
 15 16  1  0  0  0
 16 17  1  0  0  0
 17 18  1  0  0  0
 18 19  1  0  0  0
 19 20  1  0  0  0
 20 21  1  0  0  0
 21 22  1  0  0  0
  5  7  1  0  0  0
  7  8  1  0  0  0
  8  9  1  0  0  0
  9 10  1  0  0  0
 10 11  1  0  0  0
 11 12  1  0  0  0
 12 13  1  0  0  0
 13  2  1  0  0  0
 22 15  1  0  0  0
 13  8  1  0  0  0
  4 14  1  0  0  0
M  END
> <minimizedAffinity>
-5.13327

> <CNNscore>
0.2796823382

> <CNNaffinity>
6.7978200912

> <CNN_VS>
1.9012302160

> <CNNaffinity_variance>
0.6159757376

$$$$
[H]N1C(=NC2([H])C([H])([H])C([H])([H])C([H])([H])C([H])([H])C([H])([H])C([H])([H])C2([H])[H])O[C@@]2([H])C([H])([H])C([H])([H])C([H])([H])C([H])([H])[C@@]2([H])S1(=O)=O


 22 24  0  0  0  0  0  0  0  0999 V2000
    7.8198   41.8859  130.5645 O   0  0  0  0  0  0  0  0  0  0  0  0
    8.7440   43.0627  130.6065 S   0  0  0  0  0  0  0  0  0  0  0  0
   10.1383   42.6685  131.0070 O   0  0  0  0  0  0  0  0  0  0  0  0
    8.1523   44.2842  131.7055 N   0  0  0  0  0  0  0  0  0  0  0  0
    8.4317   45.6356  131.4097 C   0  0  0  0  0  0  0  0  0  0  0  0
    8.4882   46.4863  132.3571 N   0  0  0  0  0  0  0  0  0  0  0  0
    8.6427   46.0464  130.1249 O   0  0  0  0  0  0  0  0  0  0  0  0
    9.1272   45.2886  129.0741 C   0  0  0  0  0  0  0  0  0  0  0  0
   10.6406   45.5403  128.9952 C   0  0  0  0  0  0  0  0  0  0  0  0
   11.0573   45.2335  127.5849 C   0  0  0  0  0  0  0  0  0  0  0  0
   10.3314   44.0407  127.0565 C   0  0  0  0  0  0  0  0  0  0  0  0
    9.8928   43.1418  128.2143 C   0  0  0  0  0  0  0  0  0  0  0  0
    8.8308   43.8490  129.0307 C   0  0  0  0  0  0  0  0  0  0  0  0
    7.6302   43.9459  132.5059 H   0  0  0  0  0  0  0  0  0  0  0  0
    8.2838   46.1654  133.7408 C   0  0  0  0  0  0  0  0  0  0  0  0
    8.6161   44.7269  134.0569 C   0  0  0  0  0  0  0  0  0  0  0  0
   10.0049   44.5083  134.5536 C   0  0  0  0  0  0  0  0  0  0  0  0
   11.0872   44.8172  133.5758 C   0  0  0  0  0  0  0  0  0  0  0  0
   12.1058   45.8056  134.1316 C   0  0  0  0  0  0  0  0  0  0  0  0
   11.4679   46.9547  134.8423 C   0  0  0  0  0  0  0  0  0  0  0  0
   10.3704   47.5291  134.0065 C   0  0  0  0  0  0  0  0  0  0  0  0
    9.0463   47.1307  134.6163 C   0  0  0  0  0  0  0  0  0  0  0  0
  1  2  2  0  0  0
  2  3  2  0  0  0
  2  4  1  0  0  0
  4  5  1  0  0  0
  5  6  2  0  0  0
  6 15  1  0  0  0
 15 16  1  0  0  0
 16 17  1  0  0  0
 17 18  1  0  0  0
 18 19  1  0  0  0
 19 20  1  0  0  0
 20 21  1  0  0  0
 21 22  1  0  0  0
  5  7  1  0  0  0
  7  8  1  0  0  0
  8  9  1  0  0  0
  9 10  1  0  0  0
 10 11  1  0  0  0
 11 12  1  0  0  0
 12 13  1  0  0  0
 13  2  1  0  0  0
 22 15  1  0  0  0
 13  8  1  0  0  0
  4 14  1  0  0  0
M  END
> <minimizedAffinity>
-3.93574

> <CNNscore>
0.2561550736

> <CNNaffinity>
6.7393674850

> <CNN_VS>
1.7263231277

> <CNNaffinity_variance>
0.3288019598

$$$$
[H]C(=NN([H])C(=S)N([H])C([H])([H])c1c([H])c([H])c(OC([H])(C([H])([H])[H])C([H])([H])[H])c([H])c1[H])c1c([H])c([H])c([N+](=O)[O-])c([H])c1[H]


 28 29  0  0  0  0  0  0  0  0999 V2000
    7.5327   49.8157  129.5799 C   0  0  0  0  0  0  0  0  0  0  0  0
    6.5275   50.9319  130.2040 S   0  0  0  0  0  0  0  0  0  0  0  0
    8.8952   49.8354  129.9334 N   0  0  0  0  0  0  0  0  0  0  0  0
    9.6306   49.7162  129.2119 H   0  0  0  0  0  0  0  0  0  0  0  0
    9.2876   50.0226  131.3102 C   0  0  0  0  0  0  0  0  0  0  0  0
    9.7993   46.2752  133.3382 C   0  0  0  0  0  0  0  0  0  0  0  0
    8.5565   46.9053  133.2621 C   0  0  0  0  0  0  0  0  0  0  0  0
    8.4113   48.1063  132.6079 C   0  0  0  0  0  0  0  0  0  0  0  0
    9.4825   48.7291  132.0061 C   0  0  0  0  0  0  0  0  0  0  0  0
   10.6893   48.0818  132.1001 C   0  0  0  0  0  0  0  0  0  0  0  0
   10.8717   46.8669  132.7538 C   0  0  0  0  0  0  0  0  0  0  0  0
    9.8927   45.0787  134.0016 O   0  0  0  0  0  0  0  0  0  0  0  0
    9.8367   42.7008  133.5500 C   0  0  0  0  0  0  0  0  0  0  0  0
   10.6590   43.9853  133.6444 C   0  0  0  0  0  0  0  0  0  0  0  0
   11.7275   43.7437  134.7117 C   0  0  0  0  0  0  0  0  0  0  0  0
    7.0461   48.8220  128.6813 N   0  0  0  0  0  0  0  0  0  0  0  0
    7.1942   48.9130  127.6341 H   0  0  0  0  0  0  0  0  0  0  0  0
    6.3763   47.7270  129.1183 N   0  0  0  0  0  0  0  0  0  0  0  0
    6.6594   46.5933  129.4914 C   0  0  0  0  0  0  0  0  0  0  0  0
    7.9665   45.9910  129.5957 C   0  0  0  0  0  0  0  0  0  0  0  0
    9.1278   46.5201  129.0821 C   0  0  0  0  0  0  0  0  0  0  0  0
   10.3657   45.8941  129.2126 C   0  0  0  0  0  0  0  0  0  0  0  0
   10.4898   44.6943  129.8733 C   0  0  0  0  0  0  0  0  0  0  0  0
    9.3458   44.1402  130.3978 C   0  0  0  0  0  0  0  0  0  0  0  0
    8.1350   44.7649  130.2633 C   0  0  0  0  0  0  0  0  0  0  0  0
   11.7639   44.0594  130.0023 N   0  0  0  0  0  0  0  0  0  0  0  0
   11.8871   43.1019  130.7891 O   0  0  0  0  0  0  0  0  0  0  0  0
   12.7935   44.5489  129.2404 O   0  0  0  0  0  0  0  0  0  0  0  0
 13 14  1  0  0  0
 14 15  1  0  0  0
 14 12  1  0  0  0
 12  6  1  0  0  0
  6  7  2  0  0  0
  7  8  1  0  0  0
  8  9  2  0  0  0
  9  5  1  0  0  0
  5  3  1  0  0  0
  3  1  1  0  0  0
  1  2  2  0  0  0
  1 16  1  0  0  0
 16 18  1  0  0  0
 18 19  2  0  0  0
 19 20  1  0  0  0
 20 21  2  0  0  0
 21 22  1  0  0  0
 22 23  2  0  0  0
 23 26  1  0  0  0
 26 27  2  0  0  0
 26 28  1  0  0  0
 23 24  1  0  0  0
 24 25  2  0  0  0
  9 10  1  0  0  0
 10 11  2  0  0  0
 11  6  1  0  0  0
 25 20  1  0  0  0
  3  4  1  0  0  0
 16 17  1  0  0  0
M  CHG 1  26   1
M  CHG 1  28  -1
M  END
> <minimizedAffinity>
-6.44709

> <CNNscore>
0.6164027452

> <CNNaffinity>
7.4646387100

> <CNN_VS>
4.6012239456

> <CNNaffinity_variance>
0.2286659479

$$$$
[H]C(=NN([H])C(=S)N([H])C([H])([H])c1c([H])c([H])c(OC([H])(C([H])([H])[H])C([H])([H])[H])c([H])c1[H])c1c([H])c([H])c([N+](=O)[O-])c([H])c1[H]


 28 29  0  0  0  0  0  0  0  0999 V2000
    7.5707   49.7830  129.6497 C   0  0  0  0  0  0  0  0  0  0  0  0
    6.4734   50.8608  130.1787 S   0  0  0  0  0  0  0  0  0  0  0  0
    7.2015   48.8428  128.6691 N   0  0  0  0  0  0  0  0  0  0  0  0
    7.3518   49.0418  127.6624 H   0  0  0  0  0  0  0  0  0  0  0  0
    6.6067   47.5847  129.0539 C   0  0  0  0  0  0  0  0  0  0  0  0
    9.6117   44.7248  130.1536 C   0  0  0  0  0  0  0  0  0  0  0  0
    9.8412   45.6910  129.1732 C   0  0  0  0  0  0  0  0  0  0  0  0
    8.8662   46.5997  128.8336 C   0  0  0  0  0  0  0  0  0  0  0  0
    7.6324   46.5899  129.4460 C   0  0  0  0  0  0  0  0  0  0  0  0
    7.4408   45.6268  130.4052 C   0  0  0  0  0  0  0  0  0  0  0  0
    8.4046   44.6927  130.7730 C   0  0  0  0  0  0  0  0  0  0  0  0
   10.6155   43.8412  130.4566 O   0  0  0  0  0  0  0  0  0  0  0  0
   12.9265   44.3252  129.9215 C   0  0  0  0  0  0  0  0  0  0  0  0
   11.8537   44.1388  130.9937 C   0  0  0  0  0  0  0  0  0  0  0  0
   12.3155   42.9796  131.8781 C   0  0  0  0  0  0  0  0  0  0  0  0
    8.8978   49.7833  130.1696 N   0  0  0  0  0  0  0  0  0  0  0  0
    9.7016   49.3656  129.6160 H   0  0  0  0  0  0  0  0  0  0  0  0
    9.1915   50.3100  131.3841 N   0  0  0  0  0  0  0  0  0  0  0  0
    9.5336   49.8889  132.4843 C   0  0  0  0  0  0  0  0  0  0  0  0
    9.7601   48.5206  132.8826 C   0  0  0  0  0  0  0  0  0  0  0  0
   10.8582   47.7657  132.5410 C   0  0  0  0  0  0  0  0  0  0  0  0
   11.0260   46.4458  132.9546 C   0  0  0  0  0  0  0  0  0  0  0  0
   10.0846   45.8212  133.7390 C   0  0  0  0  0  0  0  0  0  0  0  0
    8.9752   46.5507  134.0968 C   0  0  0  0  0  0  0  0  0  0  0  0
    8.8216   47.8470  133.6843 C   0  0  0  0  0  0  0  0  0  0  0  0
   10.2652   44.4668  134.1585 N   0  0  0  0  0  0  0  0  0  0  0  0
   11.1926   44.1941  134.9437 O   0  0  0  0  0  0  0  0  0  0  0  0
    9.3933   43.5309  133.6645 O   0  0  0  0  0  0  0  0  0  0  0  0
 13 14  1  0  0  0
 14 15  1  0  0  0
 14 12  1  0  0  0
 12  6  1  0  0  0
  6  7  2  0  0  0
  7  8  1  0  0  0
  8  9  2  0  0  0
  9  5  1  0  0  0
  5  3  1  0  0  0
  3  1  1  0  0  0
  1  2  2  0  0  0
  1 16  1  0  0  0
 16 18  1  0  0  0
 18 19  2  0  0  0
 19 20  1  0  0  0
 20 21  2  0  0  0
 21 22  1  0  0  0
 22 23  2  0  0  0
 23 26  1  0  0  0
 26 27  2  0  0  0
 26 28  1  0  0  0
 23 24  1  0  0  0
 24 25  2  0  0  0
  9 10  1  0  0  0
 10 11  2  0  0  0
 11  6  1  0  0  0
 25 20  1  0  0  0
  3  4  1  0  0  0
 16 17  1  0  0  0
M  CHG 1  26   1
M  CHG 1  28  -1
M  END
> <minimizedAffinity>
-6.92121

> <CNNscore>
0.5909742117

> <CNNaffinity>
7.4603095055

> <CNN_VS>
4.4088506699

> <CNNaffinity_variance>
0.0617911108

$$$$
[H]C(=NN([H])C(=S)N([H])C([H])([H])c1c([H])c([H])c(OC([H])(C([H])([H])[H])C([H])([H])[H])c([H])c1[H])c1c([H])c([H])c([N+](=O)[O-])c([H])c1[H]


 28 29  0  0  0  0  0  0  0  0999 V2000
    7.5269   49.8885  129.2509 C   0  0  0  0  0  0  0  0  0  0  0  0
    6.9476   51.3875  128.9995 S   0  0  0  0  0  0  0  0  0  0  0  0
    8.5910   49.6993  130.1530 N   0  0  0  0  0  0  0  0  0  0  0  0
    9.5661   49.6135  129.8103 H   0  0  0  0  0  0  0  0  0  0  0  0
    8.3374   49.6220  131.5723 C   0  0  0  0  0  0  0  0  0  0  0  0
   10.7701   46.6048  133.4151 C   0  0  0  0  0  0  0  0  0  0  0  0
   11.1945   47.2990  132.2814 C   0  0  0  0  0  0  0  0  0  0  0  0
   10.4013   48.2630  131.7042 C   0  0  0  0  0  0  0  0  0  0  0  0
    9.1640   48.5776  132.2214 C   0  0  0  0  0  0  0  0  0  0  0  0
    8.7783   47.8759  133.3363 C   0  0  0  0  0  0  0  0  0  0  0  0
    9.5551   46.8951  133.9455 C   0  0  0  0  0  0  0  0  0  0  0  0
   11.5973   45.6529  133.9537 O   0  0  0  0  0  0  0  0  0  0  0  0
   11.0562   43.7637  135.3678 C   0  0  0  0  0  0  0  0  0  0  0  0
   11.3938   44.2859  133.9719 C   0  0  0  0  0  0  0  0  0  0  0  0
   12.6767   43.5757  133.5372 C   0  0  0  0  0  0  0  0  0  0  0  0
    6.9675   48.7699  128.5674 N   0  0  0  0  0  0  0  0  0  0  0  0
    7.1596   48.6081  127.5359 H   0  0  0  0  0  0  0  0  0  0  0  0
    6.1703   47.8712  129.1962 N   0  0  0  0  0  0  0  0  0  0  0  0
    6.3096   46.7920  129.7625 C   0  0  0  0  0  0  0  0  0  0  0  0
    7.5263   46.0425  129.9628 C   0  0  0  0  0  0  0  0  0  0  0  0
    7.7428   45.1357  130.9743 C   0  0  0  0  0  0  0  0  0  0  0  0
    8.9402   44.4383  131.1204 C   0  0  0  0  0  0  0  0  0  0  0  0
    9.9838   44.6258  130.2444 C   0  0  0  0  0  0  0  0  0  0  0  0
    9.7971   45.5266  129.2223 C   0  0  0  0  0  0  0  0  0  0  0  0
    8.6159   46.2058  129.0890 C   0  0  0  0  0  0  0  0  0  0  0  0
   11.2085   43.9059  130.4020 N   0  0  0  0  0  0  0  0  0  0  0  0
   11.1712   42.7260  130.7988 O   0  0  0  0  0  0  0  0  0  0  0  0
   12.3723   44.5663  130.1028 O   0  0  0  0  0  0  0  0  0  0  0  0
 13 14  1  0  0  0
 14 15  1  0  0  0
 14 12  1  0  0  0
 12  6  1  0  0  0
  6  7  2  0  0  0
  7  8  1  0  0  0
  8  9  2  0  0  0
  9  5  1  0  0  0
  5  3  1  0  0  0
  3  1  1  0  0  0
  1  2  2  0  0  0
  1 16  1  0  0  0
 16 18  1  0  0  0
 18 19  2  0  0  0
 19 20  1  0  0  0
 20 21  2  0  0  0
 21 22  1  0  0  0
 22 23  2  0  0  0
 23 26  1  0  0  0
 26 27  2  0  0  0
 26 28  1  0  0  0
 23 24  1  0  0  0
 24 25  2  0  0  0
  9 10  1  0  0  0
 10 11  2  0  0  0
 11  6  1  0  0  0
 25 20  1  0  0  0
  3  4  1  0  0  0
 16 17  1  0  0  0
M  CHG 1  26   1
M  CHG 1  28  -1
M  END
> <minimizedAffinity>
-6.01638

> <CNNscore>
0.5879023075

> <CNNaffinity>
7.3935956955

> <CNN_VS>
4.3467121124

> <CNNaffinity_variance>
0.2659721375

$$$$
[H]C(=NN([H])C(=S)N([H])C([H])([H])c1c([H])c([H])c(OC([H])(C([H])([H])[H])C([H])([H])[H])c([H])c1[H])c1c([H])c([H])c([N+](=O)[O-])c([H])c1[H]


 28 29  0  0  0  0  0  0  0  0999 V2000
    7.8687   50.4774  130.1568 C   0  0  0  0  0  0  0  0  0  0  0  0
    6.3956   51.0888  130.4760 S   0  0  0  0  0  0  0  0  0  0  0  0
    8.8698   50.5304  131.1452 N   0  0  0  0  0  0  0  0  0  0  0  0
    9.7116   51.1218  131.0143 H   0  0  0  0  0  0  0  0  0  0  0  0
    8.7367   49.7590  132.3585 C   0  0  0  0  0  0  0  0  0  0  0  0
   10.1805   45.7539  131.8176 C   0  0  0  0  0  0  0  0  0  0  0  0
   10.8583   46.8558  131.2944 C   0  0  0  0  0  0  0  0  0  0  0  0
   10.3807   48.1325  131.4778 C   0  0  0  0  0  0  0  0  0  0  0  0
    9.2205   48.3698  132.1815 C   0  0  0  0  0  0  0  0  0  0  0  0
    8.5797   47.2639  132.6819 C   0  0  0  0  0  0  0  0  0  0  0  0
    9.0347   45.9593  132.5153 C   0  0  0  0  0  0  0  0  0  0  0  0
   10.6971   44.5012  131.6078 O   0  0  0  0  0  0  0  0  0  0  0  0
   12.1892   44.6453  133.5090 C   0  0  0  0  0  0  0  0  0  0  0  0
   11.8216   43.9542  132.1966 C   0  0  0  0  0  0  0  0  0  0  0  0
   13.0192   44.1259  131.2609 C   0  0  0  0  0  0  0  0  0  0  0  0
    8.1523   49.8910  128.8891 N   0  0  0  0  0  0  0  0  0  0  0  0
    8.0664   50.4560  127.9944 H   0  0  0  0  0  0  0  0  0  0  0  0
    8.5386   48.5969  128.7684 N   0  0  0  0  0  0  0  0  0  0  0  0
    8.0207   47.4919  128.8925 C   0  0  0  0  0  0  0  0  0  0  0  0
    6.6581   47.1831  129.2535 C   0  0  0  0  0  0  0  0  0  0  0  0
    6.2775   46.2718  130.2112 C   0  0  0  0  0  0  0  0  0  0  0  0
    4.9438   46.0126  130.5199 C   0  0  0  0  0  0  0  0  0  0  0  0
    3.9233   46.6671  129.8703 C   0  0  0  0  0  0  0  0  0  0  0  0
    4.2727   47.5844  128.9072 C   0  0  0  0  0  0  0  0  0  0  0  0
    5.5868   47.8305  128.6127 C   0  0  0  0  0  0  0  0  0  0  0  0
    2.5580   46.3948  130.1936 N   0  0  0  0  0  0  0  0  0  0  0  0
    2.2735   45.3312  130.7758 O   0  0  0  0  0  0  0  0  0  0  0  0
    1.6251   47.3349  129.8385 O   0  0  0  0  0  0  0  0  0  0  0  0
 13 14  1  0  0  0
 14 15  1  0  0  0
 14 12  1  0  0  0
 12  6  1  0  0  0
  6  7  2  0  0  0
  7  8  1  0  0  0
  8  9  2  0  0  0
  9  5  1  0  0  0
  5  3  1  0  0  0
  3  1  1  0  0  0
  1  2  2  0  0  0
  1 16  1  0  0  0
 16 18  1  0  0  0
 18 19  2  0  0  0
 19 20  1  0  0  0
 20 21  2  0  0  0
 21 22  1  0  0  0
 22 23  2  0  0  0
 23 26  1  0  0  0
 26 27  2  0  0  0
 26 28  1  0  0  0
 23 24  1  0  0  0
 24 25  2  0  0  0
  9 10  1  0  0  0
 10 11  2  0  0  0
 11  6  1  0  0  0
 25 20  1  0  0  0
  3  4  1  0  0  0
 16 17  1  0  0  0
M  CHG 1  26   1
M  CHG 1  28  -1
M  END
> <minimizedAffinity>
6.49833

> <CNNscore>
0.5398460627

> <CNNaffinity>
7.1452074051

> <CNN_VS>
3.8573122025

> <CNNaffinity_variance>
1.2968450785

$$$$
[H]C(=NN([H])C(=S)N([H])C([H])([H])c1c([H])c([H])c(OC([H])(C([H])([H])[H])C([H])([H])[H])c([H])c1[H])c1c([H])c([H])c([N+](=O)[O-])c([H])c1[H]


 28 29  0  0  0  0  0  0  0  0999 V2000
    9.1815   50.2238  131.3785 C   0  0  0  0  0  0  0  0  0  0  0  0
    9.1184   51.4266  132.4718 S   0  0  0  0  0  0  0  0  0  0  0  0
   10.0218   49.1187  131.6120 N   0  0  0  0  0  0  0  0  0  0  0  0
   10.3460   48.5253  130.8256 H   0  0  0  0  0  0  0  0  0  0  0  0
   10.4447   48.7962  132.9543 C   0  0  0  0  0  0  0  0  0  0  0  0
   10.5517   44.5621  133.6458 C   0  0  0  0  0  0  0  0  0  0  0  0
    9.8519   45.4264  134.4889 C   0  0  0  0  0  0  0  0  0  0  0  0
    9.8287   46.7809  134.2516 C   0  0  0  0  0  0  0  0  0  0  0  0
   10.4924   47.3323  133.1779 C   0  0  0  0  0  0  0  0  0  0  0  0
   11.1700   46.4538  132.3697 C   0  0  0  0  0  0  0  0  0  0  0  0
   11.2144   45.0789  132.5803 C   0  0  0  0  0  0  0  0  0  0  0  0
   10.5446   43.2195  133.9246 O   0  0  0  0  0  0  0  0  0  0  0  0
   10.8730   41.8049  131.9874 C   0  0  0  0  0  0  0  0  0  0  0  0
    9.9838   42.2128  133.1613 C   0  0  0  0  0  0  0  0  0  0  0  0
    8.6655   42.7047  132.5618 C   0  0  0  0  0  0  0  0  0  0  0  0
    8.3955   50.2804  130.1908 N   0  0  0  0  0  0  0  0  0  0  0  0
    8.6961   50.8755  129.3647 H   0  0  0  0  0  0  0  0  0  0  0  0
    7.2382   49.5854  130.0636 N   0  0  0  0  0  0  0  0  0  0  0  0
    6.9099   48.4210  129.8610 C   0  0  0  0  0  0  0  0  0  0  0  0
    7.7661   47.2754  129.6693 C   0  0  0  0  0  0  0  0  0  0  0  0
    8.9765   47.2892  129.0159 C   0  0  0  0  0  0  0  0  0  0  0  0
    9.7640   46.1504  128.8597 C   0  0  0  0  0  0  0  0  0  0  0  0
    9.3623   44.9339  129.3602 C   0  0  0  0  0  0  0  0  0  0  0  0
    8.1559   44.8885  130.0186 C   0  0  0  0  0  0  0  0  0  0  0  0
    7.3910   46.0143  130.1659 C   0  0  0  0  0  0  0  0  0  0  0  0
   10.1766   43.7709  129.1951 N   0  0  0  0  0  0  0  0  0  0  0  0
    9.6343   42.6870  128.9087 O   0  0  0  0  0  0  0  0  0  0  0  0
   11.5294   43.9178  129.3644 O   0  0  0  0  0  0  0  0  0  0  0  0
 13 14  1  0  0  0
 14 15  1  0  0  0
 14 12  1  0  0  0
 12  6  1  0  0  0
  6  7  2  0  0  0
  7  8  1  0  0  0
  8  9  2  0  0  0
  9  5  1  0  0  0
  5  3  1  0  0  0
  3  1  1  0  0  0
  1  2  2  0  0  0
  1 16  1  0  0  0
 16 18  1  0  0  0
 18 19  2  0  0  0
 19 20  1  0  0  0
 20 21  2  0  0  0
 21 22  1  0  0  0
 22 23  2  0  0  0
 23 26  1  0  0  0
 26 27  2  0  0  0
 26 28  1  0  0  0
 23 24  1  0  0  0
 24 25  2  0  0  0
  9 10  1  0  0  0
 10 11  2  0  0  0
 11  6  1  0  0  0
 25 20  1  0  0  0
  3  4  1  0  0  0
 16 17  1  0  0  0
M  CHG 1  26   1
M  CHG 1  28  -1
M  END
> <minimizedAffinity>
-4.39872

> <CNNscore>
0.5283844471

> <CNNaffinity>
7.4274454117

> <CNN_VS>
3.9245467186

> <CNNaffinity_variance>
0.2342272699

$$$$
[H]C(=NN([H])C(=S)N([H])C([H])([H])c1c([H])c([H])c(OC([H])(C([H])([H])[H])C([H])([H])[H])c([H])c1[H])c1c([H])c([H])c([N+](=O)[O-])c([H])c1[H]


 28 29  0  0  0  0  0  0  0  0999 V2000
    9.6544   44.6185  128.6251 C   0  0  0  0  0  0  0  0  0  0  0  0
    9.3181   43.0278  128.6725 S   0  0  0  0  0  0  0  0  0  0  0  0
   10.9277   45.0695  129.0213 N   0  0  0  0  0  0  0  0  0  0  0  0
   11.3197   45.9502  128.6388 H   0  0  0  0  0  0  0  0  0  0  0  0
   11.7073   44.3088  129.9692 C   0  0  0  0  0  0  0  0  0  0  0  0
   10.5855   45.1597  134.0232 C   0  0  0  0  0  0  0  0  0  0  0  0
   10.3143   43.9262  133.4297 C   0  0  0  0  0  0  0  0  0  0  0  0
   10.6813   43.6712  132.1290 C   0  0  0  0  0  0  0  0  0  0  0  0
   11.3273   44.6197  131.3671 C   0  0  0  0  0  0  0  0  0  0  0  0
   11.5783   45.8210  131.9821 C   0  0  0  0  0  0  0  0  0  0  0  0
   11.2212   46.1123  133.2951 C   0  0  0  0  0  0  0  0  0  0  0  0
   10.1997   45.3654  135.3229 O   0  0  0  0  0  0  0  0  0  0  0  0
   11.3504   43.4684  136.2919 C   0  0  0  0  0  0  0  0  0  0  0  0
   10.8233   44.8927  136.4622 C   0  0  0  0  0  0  0  0  0  0  0  0
    9.8164   44.8522  137.6127 C   0  0  0  0  0  0  0  0  0  0  0  0
    8.6734   45.5552  128.1871 N   0  0  0  0  0  0  0  0  0  0  0  0
    7.6376   45.3323  128.2529 H   0  0  0  0  0  0  0  0  0  0  0  0
    9.0147   46.7611  127.6695 N   0  0  0  0  0  0  0  0  0  0  0  0
    9.2240   47.8922  128.0955 C   0  0  0  0  0  0  0  0  0  0  0  0
    9.1644   48.3541  129.4613 C   0  0  0  0  0  0  0  0  0  0  0  0
    8.0374   48.8307  130.0898 C   0  0  0  0  0  0  0  0  0  0  0  0
    8.0370   49.2646  131.4139 C   0  0  0  0  0  0  0  0  0  0  0  0
    9.1846   49.2373  132.1715 C   0  0  0  0  0  0  0  0  0  0  0  0
   10.3279   48.7658  131.5703 C   0  0  0  0  0  0  0  0  0  0  0  0
   10.3158   48.3421  130.2686 C   0  0  0  0  0  0  0  0  0  0  0  0
    9.1747   49.6844  133.5291 N   0  0  0  0  0  0  0  0  0  0  0  0
    8.6928   48.9445  134.4073 O   0  0  0  0  0  0  0  0  0  0  0  0
    9.7046   50.9218  133.7904 O   0  0  0  0  0  0  0  0  0  0  0  0
 13 14  1  0  0  0
 14 15  1  0  0  0
 14 12  1  0  0  0
 12  6  1  0  0  0
  6  7  2  0  0  0
  7  8  1  0  0  0
  8  9  2  0  0  0
  9  5  1  0  0  0
  5  3  1  0  0  0
  3  1  1  0  0  0
  1  2  2  0  0  0
  1 16  1  0  0  0
 16 18  1  0  0  0
 18 19  2  0  0  0
 19 20  1  0  0  0
 20 21  2  0  0  0
 21 22  1  0  0  0
 22 23  2  0  0  0
 23 26  1  0  0  0
 26 27  2  0  0  0
 26 28  1  0  0  0
 23 24  1  0  0  0
 24 25  2  0  0  0
  9 10  1  0  0  0
 10 11  2  0  0  0
 11  6  1  0  0  0
 25 20  1  0  0  0
  3  4  1  0  0  0
 16 17  1  0  0  0
M  CHG 1  26   1
M  CHG 1  28  -1
M  END
> <minimizedAffinity>
7.78427

> <CNNscore>
0.5055806041

> <CNNaffinity>
7.3142137527

> <CNN_VS>
3.6979246140

> <CNNaffinity_variance>
2.1421988010

$$$$
[H]C(=NN([H])C(=S)N([H])C([H])([H])c1c([H])c([H])c(OC([H])(C([H])([H])[H])C([H])([H])[H])c([H])c1[H])c1c([H])c([H])c([N+](=O)[O-])c([H])c1[H]


 28 29  0  0  0  0  0  0  0  0999 V2000
   11.1390   45.8145  130.3715 C   0  0  0  0  0  0  0  0  0  0  0  0
   10.4291   46.8385  129.3260 S   0  0  0  0  0  0  0  0  0  0  0  0
   12.0369   46.3172  131.3321 N   0  0  0  0  0  0  0  0  0  0  0  0
   12.7671   47.0037  131.0655 H   0  0  0  0  0  0  0  0  0  0  0  0
   11.9523   45.8818  132.7062 C   0  0  0  0  0  0  0  0  0  0  0  0
    8.6838   43.1666  133.3082 C   0  0  0  0  0  0  0  0  0  0  0  0
    8.4976   44.5496  133.3001 C   0  0  0  0  0  0  0  0  0  0  0  0
    9.5571   45.4048  133.1057 C   0  0  0  0  0  0  0  0  0  0  0  0
   10.8357   44.9300  132.9125 C   0  0  0  0  0  0  0  0  0  0  0  0
   10.9826   43.5653  132.9263 C   0  0  0  0  0  0  0  0  0  0  0  0
    9.9334   42.6718  133.1201 C   0  0  0  0  0  0  0  0  0  0  0  0
    7.5958   42.3557  133.5059 O   0  0  0  0  0  0  0  0  0  0  0  0
    8.2738   40.3633  134.7026 C   0  0  0  0  0  0  0  0  0  0  0  0
    7.3350   41.5654  134.6094 C   0  0  0  0  0  0  0  0  0  0  0  0
    5.9153   41.0055  134.5089 C   0  0  0  0  0  0  0  0  0  0  0  0
   10.8598   44.4176  130.3223 N   0  0  0  0  0  0  0  0  0  0  0  0
   11.6370   43.7014  130.4227 H   0  0  0  0  0  0  0  0  0  0  0  0
    9.6018   43.9440  130.1446 N   0  0  0  0  0  0  0  0  0  0  0  0
    9.0607   43.0644  129.4827 C   0  0  0  0  0  0  0  0  0  0  0  0
    9.6753   42.1358  128.5649 C   0  0  0  0  0  0  0  0  0  0  0  0
    9.6002   40.7651  128.6531 C   0  0  0  0  0  0  0  0  0  0  0  0
   10.2146   39.9142  127.7366 C   0  0  0  0  0  0  0  0  0  0  0  0
   10.9399   40.4120  126.6794 C   0  0  0  0  0  0  0  0  0  0  0  0
   11.0331   41.7792  126.5648 C   0  0  0  0  0  0  0  0  0  0  0  0
   10.4249   42.6051  127.4716 C   0  0  0  0  0  0  0  0  0  0  0  0
   11.5668   39.5315  125.7442 N   0  0  0  0  0  0  0  0  0  0  0  0
   12.7367   39.7623  125.3848 O   0  0  0  0  0  0  0  0  0  0  0  0
   10.8325   38.4667  125.2892 O   0  0  0  0  0  0  0  0  0  0  0  0
 13 14  1  0  0  0
 14 15  1  0  0  0
 14 12  1  0  0  0
 12  6  1  0  0  0
  6  7  2  0  0  0
  7  8  1  0  0  0
  8  9  2  0  0  0
  9  5  1  0  0  0
  5  3  1  0  0  0
  3  1  1  0  0  0
  1  2  2  0  0  0
  1 16  1  0  0  0
 16 18  1  0  0  0
 18 19  2  0  0  0
 19 20  1  0  0  0
 20 21  2  0  0  0
 21 22  1  0  0  0
 22 23  2  0  0  0
 23 26  1  0  0  0
 26 27  2  0  0  0
 26 28  1  0  0  0
 23 24  1  0  0  0
 24 25  2  0  0  0
  9 10  1  0  0  0
 10 11  2  0  0  0
 11  6  1  0  0  0
 25 20  1  0  0  0
  3  4  1  0  0  0
 16 17  1  0  0  0
M  CHG 1  26   1
M  CHG 1  28  -1
M  END
> <minimizedAffinity>
22.35150

> <CNNscore>
0.4799649715

> <CNNaffinity>
6.5388746262

> <CNN_VS>
3.1384308338

> <CNNaffinity_variance>
2.5659475327

$$$$
[H]C(=NN([H])C(=S)N([H])C([H])([H])c1c([H])c([H])c(OC([H])(C([H])([H])[H])C([H])([H])[H])c([H])c1[H])c1c([H])c([H])c([N+](=O)[O-])c([H])c1[H]


 28 29  0  0  0  0  0  0  0  0999 V2000
    7.1208   50.1439  129.4845 C   0  0  0  0  0  0  0  0  0  0  0  0
    6.9756   51.6481  128.8829 S   0  0  0  0  0  0  0  0  0  0  0  0
    6.8180   49.0385  128.6671 N   0  0  0  0  0  0  0  0  0  0  0  0
    6.9818   49.0768  127.6437 H   0  0  0  0  0  0  0  0  0  0  0  0
    6.2734   47.8327  129.2453 C   0  0  0  0  0  0  0  0  0  0  0  0
    9.3083   44.9375  130.1537 C   0  0  0  0  0  0  0  0  0  0  0  0
    8.0417   44.8813  130.7369 C   0  0  0  0  0  0  0  0  0  0  0  0
    7.0813   45.8180  130.4338 C   0  0  0  0  0  0  0  0  0  0  0  0
    7.3329   46.8419  129.5472 C   0  0  0  0  0  0  0  0  0  0  0  0
    8.5882   46.8668  128.9925 C   0  0  0  0  0  0  0  0  0  0  0  0
    9.5829   45.9359  129.2766 C   0  0  0  0  0  0  0  0  0  0  0  0
   10.2314   43.9803  130.4882 O   0  0  0  0  0  0  0  0  0  0  0  0
   12.6167   44.3216  130.7238 C   0  0  0  0  0  0  0  0  0  0  0  0
   11.4606   43.7644  129.8942 C   0  0  0  0  0  0  0  0  0  0  0  0
   11.5051   44.4815  128.5440 C   0  0  0  0  0  0  0  0  0  0  0  0
    7.5507   49.9375  130.8278 N   0  0  0  0  0  0  0  0  0  0  0  0
    6.9177   49.4656  131.5375 H   0  0  0  0  0  0  0  0  0  0  0  0
    8.7746   50.3326  131.2572 N   0  0  0  0  0  0  0  0  0  0  0  0
    9.7043   49.8412  131.8888 C   0  0  0  0  0  0  0  0  0  0  0  0
    9.7983   48.5133  132.4457 C   0  0  0  0  0  0  0  0  0  0  0  0
    8.8502   47.9189  133.2458 C   0  0  0  0  0  0  0  0  0  0  0  0
    8.9930   46.6308  133.7573 C   0  0  0  0  0  0  0  0  0  0  0  0
   10.1096   45.8762  133.4825 C   0  0  0  0  0  0  0  0  0  0  0  0
   11.0755   46.4439  132.6850 C   0  0  0  0  0  0  0  0  0  0  0  0
   10.9237   47.7105  132.1882 C   0  0  0  0  0  0  0  0  0  0  0  0
   10.2476   44.5557  134.0116 N   0  0  0  0  0  0  0  0  0  0  0  0
    9.4037   43.6908  133.7101 O   0  0  0  0  0  0  0  0  0  0  0  0
   11.3179   44.3132  134.8336 O   0  0  0  0  0  0  0  0  0  0  0  0
 13 14  1  0  0  0
 14 15  1  0  0  0
 14 12  1  0  0  0
 12  6  1  0  0  0
  6  7  2  0  0  0
  7  8  1  0  0  0
  8  9  2  0  0  0
  9  5  1  0  0  0
  5  3  1  0  0  0
  3  1  1  0  0  0
  1  2  2  0  0  0
  1 16  1  0  0  0
 16 18  1  0  0  0
 18 19  2  0  0  0
 19 20  1  0  0  0
 20 21  2  0  0  0
 21 22  1  0  0  0
 22 23  2  0  0  0
 23 26  1  0  0  0
 26 27  2  0  0  0
 26 28  1  0  0  0
 23 24  1  0  0  0
 24 25  2  0  0  0
  9 10  1  0  0  0
 10 11  2  0  0  0
 11  6  1  0  0  0
 25 20  1  0  0  0
  3  4  1  0  0  0
 16 17  1  0  0  0
M  CHG 1  26   1
M  CHG 1  28  -1
M  END
> <minimizedAffinity>
-6.95237

> <CNNscore>
0.4775052965

> <CNNaffinity>
7.3409857750

> <CNN_VS>
3.5053596497

> <CNNaffinity_variance>
0.0690272525

$$$$
[H]C(=NN([H])C(=S)N([H])C([H])([H])c1c([H])c([H])c(OC([H])(C([H])([H])[H])C([H])([H])[H])c([H])c1[H])c1c([H])c([H])c([N+](=O)[O-])c([H])c1[H]


 28 29  0  0  0  0  0  0  0  0999 V2000
    6.5373   49.3206  129.2792 C   0  0  0  0  0  0  0  0  0  0  0  0
    5.1926   50.1229  129.7196 S   0  0  0  0  0  0  0  0  0  0  0  0
    7.7819   49.9767  129.3252 N   0  0  0  0  0  0  0  0  0  0  0  0
    8.3414   50.1109  128.4622 H   0  0  0  0  0  0  0  0  0  0  0  0
    8.2975   50.4733  130.5791 C   0  0  0  0  0  0  0  0  0  0  0  0
   10.2212   47.3745  132.8407 C   0  0  0  0  0  0  0  0  0  0  0  0
   10.9001   48.0953  131.8575 C   0  0  0  0  0  0  0  0  0  0  0  0
   10.2673   49.0852  131.1425 C   0  0  0  0  0  0  0  0  0  0  0  0
    8.9457   49.4005  131.3693 C   0  0  0  0  0  0  0  0  0  0  0  0
    8.3087   48.6722  132.3430 C   0  0  0  0  0  0  0  0  0  0  0  0
    8.9181   47.6647  133.0847 C   0  0  0  0  0  0  0  0  0  0  0  0
   10.8960   46.3973  133.5264 O   0  0  0  0  0  0  0  0  0  0  0  0
    9.8191   45.6802  135.5727 C   0  0  0  0  0  0  0  0  0  0  0  0
   10.3488   45.3136  134.1870 C   0  0  0  0  0  0  0  0  0  0  0  0
   11.4275   44.2500  134.3980 C   0  0  0  0  0  0  0  0  0  0  0  0
    6.4649   47.9637  128.8488 N   0  0  0  0  0  0  0  0  0  0  0  0
    6.6870   47.6962  127.8457 H   0  0  0  0  0  0  0  0  0  0  0  0
    6.1105   46.9625  129.6917 N   0  0  0  0  0  0  0  0  0  0  0  0
    6.6658   46.0205  130.2476 C   0  0  0  0  0  0  0  0  0  0  0  0
    8.0532   45.6321  130.1676 C   0  0  0  0  0  0  0  0  0  0  0  0
    8.9910   46.2030  129.3387 C   0  0  0  0  0  0  0  0  0  0  0  0
   10.3204   45.7874  129.3026 C   0  0  0  0  0  0  0  0  0  0  0  0
   10.7688   44.7671  130.1086 C   0  0  0  0  0  0  0  0  0  0  0  0
    9.8540   44.1765  130.9484 C   0  0  0  0  0  0  0  0  0  0  0  0
    8.5503   44.5937  130.9750 C   0  0  0  0  0  0  0  0  0  0  0  0
   12.1344   44.3475  130.0647 N   0  0  0  0  0  0  0  0  0  0  0  0
   12.8152   44.6044  129.0540 O   0  0  0  0  0  0  0  0  0  0  0  0
   12.6240   43.6755  131.1551 O   0  0  0  0  0  0  0  0  0  0  0  0
 13 14  1  0  0  0
 14 15  1  0  0  0
 14 12  1  0  0  0
 12  6  1  0  0  0
  6  7  2  0  0  0
  7  8  1  0  0  0
  8  9  2  0  0  0
  9  5  1  0  0  0
  5  3  1  0  0  0
  3  1  1  0  0  0
  1  2  2  0  0  0
  1 16  1  0  0  0
 16 18  1  0  0  0
 18 19  2  0  0  0
 19 20  1  0  0  0
 20 21  2  0  0  0
 21 22  1  0  0  0
 22 23  2  0  0  0
 23 26  1  0  0  0
 26 27  2  0  0  0
 26 28  1  0  0  0
 23 24  1  0  0  0
 24 25  2  0  0  0
  9 10  1  0  0  0
 10 11  2  0  0  0
 11  6  1  0  0  0
 25 20  1  0  0  0
  3  4  1  0  0  0
 16 17  1  0  0  0
M  CHG 1  26   1
M  CHG 1  28  -1
M  END
> <minimizedAffinity>
-5.05229

> <CNNscore>
0.4240652919

> <CNNaffinity>
7.1315002441

> <CNN_VS>
3.0242216587

> <CNNaffinity_variance>
0.2818190455

$$$$
[H]c1nc(N([H])[H])c(C(=O)N([H])c2c([H])nc([H])c([H])c2N2C([H])([H])C([H])([H])C([H])(N([H])[H])C([H])([H])C2([H])[H])nc1-c1c([H])c([H])c(OC([H])([H])[H])c([H])c1[H]


 36 39  0  0  0  0  0  0  0  0999 V2000
    8.3244   46.5441  129.4617 C   0  0  0  0  0  0  0  0  0  0  0  0
    7.3476   46.5008  128.6887 O   0  0  0  0  0  0  0  0  0  0  0  0
    9.3080   45.5643  129.6556 N   0  0  0  0  0  0  0  0  0  0  0  0
   10.0674   45.8269  130.3596 H   0  0  0  0  0  0  0  0  0  0  0  0
    9.3683   48.9453  132.0993 C   0  0  0  0  0  0  0  0  0  0  0  0
    8.6423   50.0491  131.7419 C   0  0  0  0  0  0  0  0  0  0  0  0
    7.8124   50.0364  130.6542 N   0  0  0  0  0  0  0  0  0  0  0  0
    7.7034   48.9084  129.9107 C   0  0  0  0  0  0  0  0  0  0  0  0
    6.8458   48.8600  128.7664 N   0  0  0  0  0  0  0  0  0  0  0  0
    8.4181   47.8013  130.2515 C   0  0  0  0  0  0  0  0  0  0  0  0
    9.2353   47.8466  131.3402 N   0  0  0  0  0  0  0  0  0  0  0  0
    5.9035   48.4229  128.8143 H   0  0  0  0  0  0  0  0  0  0  0  0
    7.1713   49.2649  127.8847 H   0  0  0  0  0  0  0  0  0  0  0  0
   12.0003   48.9602  135.4606 C   0  0  0  0  0  0  0  0  0  0  0  0
   11.4194   47.7844  135.0544 C   0  0  0  0  0  0  0  0  0  0  0  0
   10.5754   47.8000  133.9714 C   0  0  0  0  0  0  0  0  0  0  0  0
   10.2559   48.9174  133.2437 C   0  0  0  0  0  0  0  0  0  0  0  0
   10.8648   50.1018  133.6833 C   0  0  0  0  0  0  0  0  0  0  0  0
   11.7190   50.1270  134.7676 C   0  0  0  0  0  0  0  0  0  0  0  0
   14.2170   48.6833  136.3685 C   0  0  0  0  0  0  0  0  0  0  0  0
   12.8486   48.9483  136.5479 O   0  0  0  0  0  0  0  0  0  0  0  0
    9.4349   44.3056  129.0327 C   0  0  0  0  0  0  0  0  0  0  0  0
    9.1396   44.0950  127.7197 C   0  0  0  0  0  0  0  0  0  0  0  0
    9.3117   42.8959  127.1361 N   0  0  0  0  0  0  0  0  0  0  0  0
    9.7832   41.8440  127.8153 C   0  0  0  0  0  0  0  0  0  0  0  0
   10.0981   41.9942  129.1419 C   0  0  0  0  0  0  0  0  0  0  0  0
    9.9254   43.2298  129.7643 C   0  0  0  0  0  0  0  0  0  0  0  0
   10.2164   43.3597  131.1417 N   0  0  0  0  0  0  0  0  0  0  0  0
   11.0840   44.3538  131.7063 C   0  0  0  0  0  0  0  0  0  0  0  0
   10.3984   45.0299  132.8711 C   0  0  0  0  0  0  0  0  0  0  0  0
    8.9447   44.6801  132.9028 C   0  0  0  0  0  0  0  0  0  0  0  0
    8.3203   45.2368  134.1108 N   0  0  0  0  0  0  0  0  0  0  0  0
    8.6566   43.2040  132.9439 C   0  0  0  0  0  0  0  0  0  0  0  0
    9.5925   42.4245  132.0678 C   0  0  0  0  0  0  0  0  0  0  0  0
    7.4022   44.8062  134.2572 H   0  0  0  0  0  0  0  0  0  0  0  0
    8.3231   46.2761  134.0905 H   0  0  0  0  0  0  0  0  0  0  0  0
 20 21  1  0  0  0
 21 14  1  0  0  0
 14 15  2  0  0  0
 15 16  1  0  0  0
 16 17  2  0  0  0
 17  5  1  0  0  0
  5  6  2  0  0  0
  6  7  1  0  0  0
  7  8  2  0  0  0
  8  9  1  0  0  0
  8 10  1  0  0  0
 10  1  1  0  0  0
  1  2  2  0  0  0
  1  3  1  0  0  0
  3 22  1  0  0  0
 22 23  2  0  0  0
 23 24  1  0  0  0
 24 25  2  0  0  0
 25 26  1  0  0  0
 26 27  2  0  0  0
 27 28  1  0  0  0
 28 29  1  0  0  0
 29 30  1  0  0  0
 30 31  1  0  0  0
 31 32  1  0  0  0
 31 33  1  0  0  0
 33 34  1  0  0  0
 10 11  2  0  0  0
 17 18  1  0  0  0
 18 19  2  0  0  0
 19 14  1  0  0  0
 11  5  1  0  0  0
 27 22  1  0  0  0
 34 28  1  0  0  0
  9 12  1  0  0  0
  9 13  1  0  0  0
  3  4  1  0  0  0
 32 35  1  0  0  0
 32 36  1  0  0  0
M  END
> <minimizedAffinity>
11.82731

> <CNNscore>
0.5074925423

> <CNNaffinity>
7.8795647621

> <CNN_VS>
3.9988203049

> <CNNaffinity_variance>
0.6497245431

$$$$
[H]c1nc(N([H])[H])c(C(=O)N([H])c2c([H])nc([H])c([H])c2N2C([H])([H])C([H])([H])C([H])(N([H])[H])C([H])([H])C2([H])[H])nc1-c1c([H])c([H])c(OC([H])([H])[H])c([H])c1[H]


 36 39  0  0  0  0  0  0  0  0999 V2000
    7.7833   46.0299  129.1866 C   0  0  0  0  0  0  0  0  0  0  0  0
    6.8883   45.8042  128.3490 O   0  0  0  0  0  0  0  0  0  0  0  0
    8.0065   47.2129  129.9047 N   0  0  0  0  0  0  0  0  0  0  0  0
    8.8267   47.1726  130.5880 H   0  0  0  0  0  0  0  0  0  0  0  0
   10.1411   43.7350  130.9149 C   0  0  0  0  0  0  0  0  0  0  0  0
   10.3808   42.8214  129.9245 C   0  0  0  0  0  0  0  0  0  0  0  0
    9.7907   42.9301  128.6948 N   0  0  0  0  0  0  0  0  0  0  0  0
    8.9493   43.9633  128.4469 C   0  0  0  0  0  0  0  0  0  0  0  0
    8.3142   44.1073  127.1729 N   0  0  0  0  0  0  0  0  0  0  0  0
    8.6994   44.8812  129.4203 C   0  0  0  0  0  0  0  0  0  0  0  0
    9.3028   44.7446  130.6338 N   0  0  0  0  0  0  0  0  0  0  0  0
    8.6756   44.7727  126.4601 H   0  0  0  0  0  0  0  0  0  0  0  0
    7.4874   43.5418  126.9637 H   0  0  0  0  0  0  0  0  0  0  0  0
   11.8367   43.4893  134.8252 C   0  0  0  0  0  0  0  0  0  0  0  0
   12.6461   43.7423  133.7455 C   0  0  0  0  0  0  0  0  0  0  0  0
   12.0821   43.8171  132.4957 C   0  0  0  0  0  0  0  0  0  0  0  0
   10.7469   43.6568  132.2283 C   0  0  0  0  0  0  0  0  0  0  0  0
    9.9470   43.3998  133.3513 C   0  0  0  0  0  0  0  0  0  0  0  0
   10.4764   43.3171  134.6236 C   0  0  0  0  0  0  0  0  0  0  0  0
   11.6060   43.0625  137.1873 C   0  0  0  0  0  0  0  0  0  0  0  0
   12.3996   43.4135  136.0819 O   0  0  0  0  0  0  0  0  0  0  0  0
    7.2839   48.4229  129.8590 C   0  0  0  0  0  0  0  0  0  0  0  0
    6.0690   48.5385  129.2536 C   0  0  0  0  0  0  0  0  0  0  0  0
    5.3778   49.6919  129.2621 N   0  0  0  0  0  0  0  0  0  0  0  0
    5.8473   50.7891  129.8668 C   0  0  0  0  0  0  0  0  0  0  0  0
    7.0663   50.7347  130.4934 C   0  0  0  0  0  0  0  0  0  0  0  0
    7.7978   49.5478  130.4942 C   0  0  0  0  0  0  0  0  0  0  0  0
    9.0703   49.5173  131.1097 N   0  0  0  0  0  0  0  0  0  0  0  0
    9.4187   50.2258  132.3082 C   0  0  0  0  0  0  0  0  0  0  0  0
   10.1003   49.2880  133.2776 C   0  0  0  0  0  0  0  0  0  0  0  0
    9.9470   47.8681  132.8341 C   0  0  0  0  0  0  0  0  0  0  0  0
   10.7230   46.9811  133.7118 N   0  0  0  0  0  0  0  0  0  0  0  0
   10.4423   47.5903  131.4408 C   0  0  0  0  0  0  0  0  0  0  0  0
   10.1128   48.7072  130.4946 C   0  0  0  0  0  0  0  0  0  0  0  0
   10.8151   46.0573  133.2782 H   0  0  0  0  0  0  0  0  0  0  0  0
   10.3402   46.9799  134.6782 H   0  0  0  0  0  0  0  0  0  0  0  0
 20 21  1  0  0  0
 21 14  1  0  0  0
 14 15  2  0  0  0
 15 16  1  0  0  0
 16 17  2  0  0  0
 17  5  1  0  0  0
  5  6  2  0  0  0
  6  7  1  0  0  0
  7  8  2  0  0  0
  8  9  1  0  0  0
  8 10  1  0  0  0
 10  1  1  0  0  0
  1  2  2  0  0  0
  1  3  1  0  0  0
  3 22  1  0  0  0
 22 23  2  0  0  0
 23 24  1  0  0  0
 24 25  2  0  0  0
 25 26  1  0  0  0
 26 27  2  0  0  0
 27 28  1  0  0  0
 28 29  1  0  0  0
 29 30  1  0  0  0
 30 31  1  0  0  0
 31 32  1  0  0  0
 31 33  1  0  0  0
 33 34  1  0  0  0
 10 11  2  0  0  0
 17 18  1  0  0  0
 18 19  2  0  0  0
 19 14  1  0  0  0
 11  5  1  0  0  0
 27 22  1  0  0  0
 34 28  1  0  0  0
  9 12  1  0  0  0
  9 13  1  0  0  0
  3  4  1  0  0  0
 32 35  1  0  0  0
 32 36  1  0  0  0
M  END
> <minimizedAffinity>
1.79019

> <CNNscore>
0.2199866325

> <CNNaffinity>
7.7500200272

> <CNN_VS>
1.7049008608

> <CNNaffinity_variance>
0.3134117126

$$$$
[H]c1nc(N([H])[H])c(C(=O)N([H])c2c([H])nc([H])c([H])c2N2C([H])([H])C([H])([H])C([H])(N([H])[H])C([H])([H])C2([H])[H])nc1-c1c([H])c([H])c(OC([H])([H])[H])c([H])c1[H]


 36 39  0  0  0  0  0  0  0  0999 V2000
   10.1993   43.6670  131.1943 C   0  0  0  0  0  0  0  0  0  0  0  0
   11.1001   42.8436  130.9409 O   0  0  0  0  0  0  0  0  0  0  0  0
    9.8256   44.1695  132.4484 N   0  0  0  0  0  0  0  0  0  0  0  0
    9.0334   44.8859  132.4245 H   0  0  0  0  0  0  0  0  0  0  0  0
    8.2583   45.9013  128.9464 C   0  0  0  0  0  0  0  0  0  0  0  0
    8.0998   45.0908  127.8551 C   0  0  0  0  0  0  0  0  0  0  0  0
    8.6121   43.8224  127.8272 N   0  0  0  0  0  0  0  0  0  0  0  0
    9.2927   43.3535  128.9014 C   0  0  0  0  0  0  0  0  0  0  0  0
    9.8428   42.0327  128.9063 N   0  0  0  0  0  0  0  0  0  0  0  0
    9.4600   44.1458  129.9954 C   0  0  0  0  0  0  0  0  0  0  0  0
    8.9375   45.4037  129.9915 N   0  0  0  0  0  0  0  0  0  0  0  0
    9.3616   41.2478  129.3899 H   0  0  0  0  0  0  0  0  0  0  0  0
   10.7283   41.8620  128.4227 H   0  0  0  0  0  0  0  0  0  0  0  0
    6.7942   49.9060  129.1577 C   0  0  0  0  0  0  0  0  0  0  0  0
    5.9089   48.8587  129.0919 C   0  0  0  0  0  0  0  0  0  0  0  0
    6.3992   47.5779  129.0240 C   0  0  0  0  0  0  0  0  0  0  0  0
    7.7300   47.2483  129.0163 C   0  0  0  0  0  0  0  0  0  0  0  0
    8.6085   48.3394  129.0845 C   0  0  0  0  0  0  0  0  0  0  0  0
    8.1546   49.6414  129.1538 C   0  0  0  0  0  0  0  0  0  0  0  0
    6.9393   52.2248  128.5117 C   0  0  0  0  0  0  0  0  0  0  0  0
    6.3055   51.1938  129.2261 O   0  0  0  0  0  0  0  0  0  0  0  0
   10.3686   43.8732  133.7155 C   0  0  0  0  0  0  0  0  0  0  0  0
   10.3297   42.6278  134.2660 C   0  0  0  0  0  0  0  0  0  0  0  0
   10.8945   42.3591  135.4564 N   0  0  0  0  0  0  0  0  0  0  0  0
   11.5260   43.3024  136.1645 C   0  0  0  0  0  0  0  0  0  0  0  0
   11.5976   44.5767  135.6621 C   0  0  0  0  0  0  0  0  0  0  0  0
   11.0170   44.8744  134.4299 C   0  0  0  0  0  0  0  0  0  0  0  0
   11.0641   46.2009  133.9430 N   0  0  0  0  0  0  0  0  0  0  0  0
   11.5205   46.5789  132.6358 C   0  0  0  0  0  0  0  0  0  0  0  0
   10.5140   47.5025  131.9893 C   0  0  0  0  0  0  0  0  0  0  0  0
    9.2337   47.5112  132.7620 C   0  0  0  0  0  0  0  0  0  0  0  0
    8.3137   48.5089  132.1985 N   0  0  0  0  0  0  0  0  0  0  0  0
    9.3813   47.8742  134.2146 C   0  0  0  0  0  0  0  0  0  0  0  0
   10.6147   47.2724  134.8212 C   0  0  0  0  0  0  0  0  0  0  0  0
    7.5481   48.6858  132.8561 H   0  0  0  0  0  0  0  0  0  0  0  0
    8.0190   48.2475  131.2366 H   0  0  0  0  0  0  0  0  0  0  0  0
 20 21  1  0  0  0
 21 14  1  0  0  0
 14 15  2  0  0  0
 15 16  1  0  0  0
 16 17  2  0  0  0
 17  5  1  0  0  0
  5  6  2  0  0  0
  6  7  1  0  0  0
  7  8  2  0  0  0
  8  9  1  0  0  0
  8 10  1  0  0  0
 10  1  1  0  0  0
  1  2  2  0  0  0
  1  3  1  0  0  0
  3 22  1  0  0  0
 22 23  2  0  0  0
 23 24  1  0  0  0
 24 25  2  0  0  0
 25 26  1  0  0  0
 26 27  2  0  0  0
 27 28  1  0  0  0
 28 29  1  0  0  0
 29 30  1  0  0  0
 30 31  1  0  0  0
 31 32  1  0  0  0
 31 33  1  0  0  0
 33 34  1  0  0  0
 10 11  2  0  0  0
 17 18  1  0  0  0
 18 19  2  0  0  0
 19 14  1  0  0  0
 11  5  1  0  0  0
 27 22  1  0  0  0
 34 28  1  0  0  0
  9 12  1  0  0  0
  9 13  1  0  0  0
  3  4  1  0  0  0
 32 35  1  0  0  0
 32 36  1  0  0  0
M  END
> <minimizedAffinity>
4.87505

> <CNNscore>
0.2047038972

> <CNNaffinity>
7.5103631020

> <CNN_VS>
1.5374006033

> <CNNaffinity_variance>
0.4603978097

$$$$
[H]c1nc(N([H])[H])c(C(=O)N([H])c2c([H])nc([H])c([H])c2N2C([H])([H])C([H])([H])C([H])(N([H])[H])C([H])([H])C2([H])[H])nc1-c1c([H])c([H])c(OC([H])([H])[H])c([H])c1[H]


 36 39  0  0  0  0  0  0  0  0999 V2000
    9.7897   44.9726  129.3322 C   0  0  0  0  0  0  0  0  0  0  0  0
    9.6062   44.1992  128.3721 O   0  0  0  0  0  0  0  0  0  0  0  0
   10.9974   45.2581  129.9840 N   0  0  0  0  0  0  0  0  0  0  0  0
   10.9202   45.9723  130.7747 H   0  0  0  0  0  0  0  0  0  0  0  0
    7.2893   47.6521  129.9491 C   0  0  0  0  0  0  0  0  0  0  0  0
    6.3375   46.9581  130.6459 C   0  0  0  0  0  0  0  0  0  0  0  0
    6.4858   45.6269  130.9250 N   0  0  0  0  0  0  0  0  0  0  0  0
    7.5978   44.9763  130.5041 C   0  0  0  0  0  0  0  0  0  0  0  0
    7.7853   43.5844  130.7773 N   0  0  0  0  0  0  0  0  0  0  0  0
    8.5547   45.6508  129.8097 C   0  0  0  0  0  0  0  0  0  0  0  0
    8.3769   46.9757  129.5484 N   0  0  0  0  0  0  0  0  0  0  0  0
    8.3955   43.2630  131.5556 H   0  0  0  0  0  0  0  0  0  0  0  0
    7.3070   42.8948  130.1917 H   0  0  0  0  0  0  0  0  0  0  0  0
    6.9639   51.7851  128.9298 C   0  0  0  0  0  0  0  0  0  0  0  0
    6.7705   51.3857  130.2290 C   0  0  0  0  0  0  0  0  0  0  0  0
    6.8789   50.0520  130.5370 C   0  0  0  0  0  0  0  0  0  0  0  0
    7.1711   49.0613  129.6353 C   0  0  0  0  0  0  0  0  0  0  0  0
    7.3631   49.5010  128.3174 C   0  0  0  0  0  0  0  0  0  0  0  0
    7.2626   50.8328  127.9681 C   0  0  0  0  0  0  0  0  0  0  0  0
    7.1866   53.5727  127.3267 C   0  0  0  0  0  0  0  0  0  0  0  0
    6.8560   53.1238  128.6167 O   0  0  0  0  0  0  0  0  0  0  0  0
   12.2854   44.7493  129.7186 C   0  0  0  0  0  0  0  0  0  0  0  0
   12.8297   44.7237  128.4700 C   0  0  0  0  0  0  0  0  0  0  0  0
   14.0778   44.2753  128.2481 N   0  0  0  0  0  0  0  0  0  0  0  0
   14.8529   43.8300  129.2435 C   0  0  0  0  0  0  0  0  0  0  0  0
   14.3597   43.8306  130.5234 C   0  0  0  0  0  0  0  0  0  0  0  0
   13.0674   44.2909  130.7728 C   0  0  0  0  0  0  0  0  0  0  0  0
   12.5581   44.2487  132.0910 N   0  0  0  0  0  0  0  0  0  0  0  0
   12.5559   45.3551  133.0051 C   0  0  0  0  0  0  0  0  0  0  0  0
   11.1809   45.5159  133.6112 C   0  0  0  0  0  0  0  0  0  0  0  0
   10.1795   44.6840  132.8753 C   0  0  0  0  0  0  0  0  0  0  0  0
    8.8776   44.7482  133.5536 N   0  0  0  0  0  0  0  0  0  0  0  0
   10.5198   43.2207  132.7939 C   0  0  0  0  0  0  0  0  0  0  0  0
   11.9861   42.9969  132.5677 C   0  0  0  0  0  0  0  0  0  0  0  0
    8.2654   44.0061  133.2010 H   0  0  0  0  0  0  0  0  0  0  0  0
    8.4790   45.7073  133.5121 H   0  0  0  0  0  0  0  0  0  0  0  0
 20 21  1  0  0  0
 21 14  1  0  0  0
 14 15  2  0  0  0
 15 16  1  0  0  0
 16 17  2  0  0  0
 17  5  1  0  0  0
  5  6  2  0  0  0
  6  7  1  0  0  0
  7  8  2  0  0  0
  8  9  1  0  0  0
  8 10  1  0  0  0
 10  1  1  0  0  0
  1  2  2  0  0  0
  1  3  1  0  0  0
  3 22  1  0  0  0
 22 23  2  0  0  0
 23 24  1  0  0  0
 24 25  2  0  0  0
 25 26  1  0  0  0
 26 27  2  0  0  0
 27 28  1  0  0  0
 28 29  1  0  0  0
 29 30  1  0  0  0
 30 31  1  0  0  0
 31 32  1  0  0  0
 31 33  1  0  0  0
 33 34  1  0  0  0
 10 11  2  0  0  0
 17 18  1  0  0  0
 18 19  2  0  0  0
 19 14  1  0  0  0
 11  5  1  0  0  0
 27 22  1  0  0  0
 34 28  1  0  0  0
  9 12  1  0  0  0
  9 13  1  0  0  0
  3  4  1  0  0  0
 32 35  1  0  0  0
 32 36  1  0  0  0
M  END
> <minimizedAffinity>
4.07731

> <CNNscore>
0.1750804633

> <CNNaffinity>
7.2198715210

> <CNN_VS>
1.2640584707

> <CNNaffinity_variance>
0.3867037594

$$$$
[H]c1nc(N([H])[H])c(C(=O)N([H])c2c([H])nc([H])c([H])c2N2C([H])([H])C([H])([H])C([H])(N([H])[H])C([H])([H])C2([H])[H])nc1-c1c([H])c([H])c(OC([H])([H])[H])c([H])c1[H]


 36 39  0  0  0  0  0  0  0  0999 V2000
    8.8782   43.3882  130.3070 C   0  0  0  0  0  0  0  0  0  0  0  0
    8.5713   42.3439  129.6998 O   0  0  0  0  0  0  0  0  0  0  0  0
    8.8539   43.6140  131.6902 N   0  0  0  0  0  0  0  0  0  0  0  0
    9.1800   44.5861  131.9899 H   0  0  0  0  0  0  0  0  0  0  0  0
    9.1196   46.7860  128.8206 C   0  0  0  0  0  0  0  0  0  0  0  0
   10.0567   46.5728  127.8463 C   0  0  0  0  0  0  0  0  0  0  0  0
   10.6207   45.3409  127.6553 N   0  0  0  0  0  0  0  0  0  0  0  0
   10.2467   44.3056  128.4460 C   0  0  0  0  0  0  0  0  0  0  0  0
   10.8164   43.0043  128.2749 N   0  0  0  0  0  0  0  0  0  0  0  0
    9.3160   44.4995  129.4200 C   0  0  0  0  0  0  0  0  0  0  0  0
    8.7735   45.7380  129.5843 N   0  0  0  0  0  0  0  0  0  0  0  0
   10.3098   42.2548  127.7621 H   0  0  0  0  0  0  0  0  0  0  0  0
   11.7417   42.8121  128.6674 H   0  0  0  0  0  0  0  0  0  0  0  0
    7.3485   50.5949  129.5834 C   0  0  0  0  0  0  0  0  0  0  0  0
    6.8633   49.8081  128.5682 C   0  0  0  0  0  0  0  0  0  0  0  0
    7.4466   48.5865  128.3381 C   0  0  0  0  0  0  0  0  0  0  0  0
    8.4977   48.0734  129.0535 C   0  0  0  0  0  0  0  0  0  0  0  0
    8.9702   48.9003  130.0831 C   0  0  0  0  0  0  0  0  0  0  0  0
    8.4107   50.1348  130.3455 C   0  0  0  0  0  0  0  0  0  0  0  0
    6.7421   52.7944  128.8030 C   0  0  0  0  0  0  0  0  0  0  0  0
    6.7652   51.8224  129.8176 O   0  0  0  0  0  0  0  0  0  0  0  0
    8.4824   42.7284  132.7227 C   0  0  0  0  0  0  0  0  0  0  0  0
    7.2202   42.2338  132.8570 C   0  0  0  0  0  0  0  0  0  0  0  0
    6.9005   41.3549  133.8231 N   0  0  0  0  0  0  0  0  0  0  0  0
    7.8068   40.9184  134.7053 C   0  0  0  0  0  0  0  0  0  0  0  0
    9.0952   41.3813  134.6212 C   0  0  0  0  0  0  0  0  0  0  0  0
    9.4452   42.2937  133.6267 C   0  0  0  0  0  0  0  0  0  0  0  0
   10.7672   42.7925  133.5766 N   0  0  0  0  0  0  0  0  0  0  0  0
   11.7371   42.4458  132.5772 C   0  0  0  0  0  0  0  0  0  0  0  0
   12.3718   43.7002  132.0227 C   0  0  0  0  0  0  0  0  0  0  0  0
   11.6096   44.9122  132.4544 C   0  0  0  0  0  0  0  0  0  0  0  0
   12.3103   46.1280  132.0185 N   0  0  0  0  0  0  0  0  0  0  0  0
   11.4475   45.0525  133.9436 C   0  0  0  0  0  0  0  0  0  0  0  0
   11.1874   43.7321  134.6071 C   0  0  0  0  0  0  0  0  0  0  0  0
   11.9294   46.9431  132.5088 H   0  0  0  0  0  0  0  0  0  0  0  0
   12.3245   46.2023  130.9818 H   0  0  0  0  0  0  0  0  0  0  0  0
 20 21  1  0  0  0
 21 14  1  0  0  0
 14 15  2  0  0  0
 15 16  1  0  0  0
 16 17  2  0  0  0
 17  5  1  0  0  0
  5  6  2  0  0  0
  6  7  1  0  0  0
  7  8  2  0  0  0
  8  9  1  0  0  0
  8 10  1  0  0  0
 10  1  1  0  0  0
  1  2  2  0  0  0
  1  3  1  0  0  0
  3 22  1  0  0  0
 22 23  2  0  0  0
 23 24  1  0  0  0
 24 25  2  0  0  0
 25 26  1  0  0  0
 26 27  2  0  0  0
 27 28  1  0  0  0
 28 29  1  0  0  0
 29 30  1  0  0  0
 30 31  1  0  0  0
 31 32  1  0  0  0
 31 33  1  0  0  0
 33 34  1  0  0  0
 10 11  2  0  0  0
 17 18  1  0  0  0
 18 19  2  0  0  0
 19 14  1  0  0  0
 11  5  1  0  0  0
 27 22  1  0  0  0
 34 28  1  0  0  0
  9 12  1  0  0  0
  9 13  1  0  0  0
  3  4  1  0  0  0
 32 35  1  0  0  0
 32 36  1  0  0  0
M  END
> <minimizedAffinity>
6.20158

> <CNNscore>
0.1725530922

> <CNNaffinity>
7.1305627823

> <CNN_VS>
1.2304006815

> <CNNaffinity_variance>
0.2362810373

$$$$
[H]c1nc(N([H])[H])c(C(=O)N([H])c2c([H])nc([H])c([H])c2N2C([H])([H])C([H])([H])C([H])(N([H])[H])C([H])([H])C2([H])[H])nc1-c1c([H])c([H])c(OC([H])([H])[H])c([H])c1[H]


 36 39  0  0  0  0  0  0  0  0999 V2000
    9.7332   49.1848  131.3152 C   0  0  0  0  0  0  0  0  0  0  0  0
   10.6739   49.6437  130.6385 O   0  0  0  0  0  0  0  0  0  0  0  0
    8.3611   49.4124  131.1406 N   0  0  0  0  0  0  0  0  0  0  0  0
    7.7312   48.8960  131.8319 H   0  0  0  0  0  0  0  0  0  0  0  0
   10.6856   46.1005  133.1571 C   0  0  0  0  0  0  0  0  0  0  0  0
   10.9389   46.6132  134.4005 C   0  0  0  0  0  0  0  0  0  0  0  0
   10.8079   47.9498  134.6620 N   0  0  0  0  0  0  0  0  0  0  0  0
   10.4193   48.7891  133.6711 C   0  0  0  0  0  0  0  0  0  0  0  0
   10.2730   50.1924  133.9088 N   0  0  0  0  0  0  0  0  0  0  0  0
   10.1633   48.2965  132.4284 C   0  0  0  0  0  0  0  0  0  0  0  0
   10.3030   46.9608  132.2008 N   0  0  0  0  0  0  0  0  0  0  0  0
    9.3389   50.6193  134.0715 H   0  0  0  0  0  0  0  0  0  0  0  0
   11.1080   50.7840  133.9176 H   0  0  0  0  0  0  0  0  0  0  0  0
   11.1300   41.9724  132.1635 C   0  0  0  0  0  0  0  0  0  0  0  0
   10.1249   42.3653  133.0122 C   0  0  0  0  0  0  0  0  0  0  0  0
    9.9985   43.6975  133.3201 C   0  0  0  0  0  0  0  0  0  0  0  0
   10.8105   44.6926  132.8403 C   0  0  0  0  0  0  0  0  0  0  0  0
   11.8269   44.2595  131.9763 C   0  0  0  0  0  0  0  0  0  0  0  0
   11.9866   42.9294  131.6427 C   0  0  0  0  0  0  0  0  0  0  0  0
   10.5520   40.0952  130.7646 C   0  0  0  0  0  0  0  0  0  0  0  0
   11.2599   40.6353  131.8518 O   0  0  0  0  0  0  0  0  0  0  0  0
    7.7143   50.2044  130.1697 C   0  0  0  0  0  0  0  0  0  0  0  0
    7.5566   51.5515  130.2969 C   0  0  0  0  0  0  0  0  0  0  0  0
    6.9764   52.2928  129.3366 N   0  0  0  0  0  0  0  0  0  0  0  0
    6.5225   51.7456  128.2032 C   0  0  0  0  0  0  0  0  0  0  0  0
    6.6524   50.3928  128.0177 C   0  0  0  0  0  0  0  0  0  0  0  0
    7.2505   49.6079  129.0026 C   0  0  0  0  0  0  0  0  0  0  0  0
    7.3418   48.2095  128.8150 N   0  0  0  0  0  0  0  0  0  0  0  0
    8.5645   47.4889  128.6018 C   0  0  0  0  0  0  0  0  0  0  0  0
    8.6277   46.3007  129.5335 C   0  0  0  0  0  0  0  0  0  0  0  0
    7.5646   46.3946  130.5810 C   0  0  0  0  0  0  0  0  0  0  0  0
    7.5542   45.1727  131.3972 N   0  0  0  0  0  0  0  0  0  0  0  0
    6.1661   46.5318  130.0433 C   0  0  0  0  0  0  0  0  0  0  0  0
    6.1118   47.4300  128.8426 C   0  0  0  0  0  0  0  0  0  0  0  0
    6.6906   45.1295  131.9468 H   0  0  0  0  0  0  0  0  0  0  0  0
    8.4325   45.0795  131.9454 H   0  0  0  0  0  0  0  0  0  0  0  0
 20 21  1  0  0  0
 21 14  1  0  0  0
 14 15  2  0  0  0
 15 16  1  0  0  0
 16 17  2  0  0  0
 17  5  1  0  0  0
  5  6  2  0  0  0
  6  7  1  0  0  0
  7  8  2  0  0  0
  8  9  1  0  0  0
  8 10  1  0  0  0
 10  1  1  0  0  0
  1  2  2  0  0  0
  1  3  1  0  0  0
  3 22  1  0  0  0
 22 23  2  0  0  0
 23 24  1  0  0  0
 24 25  2  0  0  0
 25 26  1  0  0  0
 26 27  2  0  0  0
 27 28  1  0  0  0
 28 29  1  0  0  0
 29 30  1  0  0  0
 30 31  1  0  0  0
 31 32  1  0  0  0
 31 33  1  0  0  0
 33 34  1  0  0  0
 10 11  2  0  0  0
 17 18  1  0  0  0
 18 19  2  0  0  0
 19 14  1  0  0  0
 11  5  1  0  0  0
 27 22  1  0  0  0
 34 28  1  0  0  0
  9 12  1  0  0  0
  9 13  1  0  0  0
  3  4  1  0  0  0
 32 35  1  0  0  0
 32 36  1  0  0  0
M  END
> <minimizedAffinity>
5.15209

> <CNNscore>
0.1694614589

> <CNNaffinity>
7.3894109726

> <CNN_VS>
1.2522203922

> <CNNaffinity_variance>
0.3802433908

$$$$
[H]c1nc(N([H])[H])c(C(=O)N([H])c2c([H])nc([H])c([H])c2N2C([H])([H])C([H])([H])C([H])(N([H])[H])C([H])([H])C2([H])[H])nc1-c1c([H])c([H])c(OC([H])([H])[H])c([H])c1[H]


 36 39  0  0  0  0  0  0  0  0999 V2000
   10.3159   46.8730  133.4412 C   0  0  0  0  0  0  0  0  0  0  0  0
    9.7419   46.4612  134.4681 O   0  0  0  0  0  0  0  0  0  0  0  0
   11.3057   46.2211  132.6929 N   0  0  0  0  0  0  0  0  0  0  0  0
   11.6422   46.7586  131.8331 H   0  0  0  0  0  0  0  0  0  0  0  0
    8.3791   49.4972  131.6593 C   0  0  0  0  0  0  0  0  0  0  0  0
    8.9912   50.6284  132.1268 C   0  0  0  0  0  0  0  0  0  0  0  0
   10.0288   50.5633  133.0164 N   0  0  0  0  0  0  0  0  0  0  0  0
   10.4636   49.3541  133.4475 C   0  0  0  0  0  0  0  0  0  0  0  0
   11.5454   49.2487  134.3781 N   0  0  0  0  0  0  0  0  0  0  0  0
    9.8665   48.2185  132.9931 C   0  0  0  0  0  0  0  0  0  0  0  0
    8.8361   48.3177  132.1078 N   0  0  0  0  0  0  0  0  0  0  0  0
   12.5098   49.0201  134.0633 H   0  0  0  0  0  0  0  0  0  0  0  0
   11.3610   49.4021  135.3729 H   0  0  0  0  0  0  0  0  0  0  0  0
    5.1581   49.4794  128.8574 C   0  0  0  0  0  0  0  0  0  0  0  0
    5.4583   50.6297  129.5442 C   0  0  0  0  0  0  0  0  0  0  0  0
    6.4976   50.6154  130.4415 C   0  0  0  0  0  0  0  0  0  0  0  0
    7.2799   49.5233  130.7163 C   0  0  0  0  0  0  0  0  0  0  0  0
    6.9484   48.3646  129.9991 C   0  0  0  0  0  0  0  0  0  0  0  0
    5.9109   48.3390  129.0886 C   0  0  0  0  0  0  0  0  0  0  0  0
    3.1992   50.5559  127.9526 C   0  0  0  0  0  0  0  0  0  0  0  0
    4.1150   49.4901  127.9553 O   0  0  0  0  0  0  0  0  0  0  0  0
   11.8884   44.9559  132.9124 C   0  0  0  0  0  0  0  0  0  0  0  0
   12.9370   44.7595  133.7594 C   0  0  0  0  0  0  0  0  0  0  0  0
   13.4469   43.5363  133.9873 N   0  0  0  0  0  0  0  0  0  0  0  0
   12.9503   42.4451  133.3933 C   0  0  0  0  0  0  0  0  0  0  0  0
   11.8939   42.5795  132.5287 C   0  0  0  0  0  0  0  0  0  0  0  0
   11.3526   43.8400  132.2794 C   0  0  0  0  0  0  0  0  0  0  0  0
   10.2899   43.9685  131.3557 N   0  0  0  0  0  0  0  0  0  0  0  0
   10.3836   43.6813  129.9527 C   0  0  0  0  0  0  0  0  0  0  0  0
    9.2354   42.7922  129.5342 C   0  0  0  0  0  0  0  0  0  0  0  0
    8.5275   42.2457  130.7327 C   0  0  0  0  0  0  0  0  0  0  0  0
    7.3382   41.4915  130.3131 N   0  0  0  0  0  0  0  0  0  0  0  0
    8.0249   43.2891  131.6931 C   0  0  0  0  0  0  0  0  0  0  0  0
    8.9975   44.4204  131.8526 C   0  0  0  0  0  0  0  0  0  0  0  0
    6.7304   41.3240  131.1208 H   0  0  0  0  0  0  0  0  0  0  0  0
    7.6022   40.6425  129.7746 H   0  0  0  0  0  0  0  0  0  0  0  0
 20 21  1  0  0  0
 21 14  1  0  0  0
 14 15  2  0  0  0
 15 16  1  0  0  0
 16 17  2  0  0  0
 17  5  1  0  0  0
  5  6  2  0  0  0
  6  7  1  0  0  0
  7  8  2  0  0  0
  8  9  1  0  0  0
  8 10  1  0  0  0
 10  1  1  0  0  0
  1  2  2  0  0  0
  1  3  1  0  0  0
  3 22  1  0  0  0
 22 23  2  0  0  0
 23 24  1  0  0  0
 24 25  2  0  0  0
 25 26  1  0  0  0
 26 27  2  0  0  0
 27 28  1  0  0  0
 28 29  1  0  0  0
 29 30  1  0  0  0
 30 31  1  0  0  0
 31 32  1  0  0  0
 31 33  1  0  0  0
 33 34  1  0  0  0
 10 11  2  0  0  0
 17 18  1  0  0  0
 18 19  2  0  0  0
 19 14  1  0  0  0
 11  5  1  0  0  0
 27 22  1  0  0  0
 34 28  1  0  0  0
  9 12  1  0  0  0
  9 13  1  0  0  0
  3  4  1  0  0  0
 32 35  1  0  0  0
 32 36  1  0  0  0
M  END
> <minimizedAffinity>
10.70503

> <CNNscore>
0.1668438166

> <CNNaffinity>
7.4897513390

> <CNN_VS>
1.2496186495

> <CNNaffinity_variance>
0.9606340528

$$$$
[H]c1nc(N([H])[H])c(C(=O)N([H])c2c([H])nc([H])c([H])c2N2C([H])([H])C([H])([H])C([H])(N([H])[H])C([H])([H])C2([H])[H])nc1-c1c([H])c([H])c(OC([H])([H])[H])c([H])c1[H]


 36 39  0  0  0  0  0  0  0  0999 V2000
    9.5206   46.9662  129.0163 C   0  0  0  0  0  0  0  0  0  0  0  0
   10.4041   47.5836  128.3904 O   0  0  0  0  0  0  0  0  0  0  0  0
    8.3652   47.4922  129.6108 N   0  0  0  0  0  0  0  0  0  0  0  0
    7.7357   46.7683  130.0810 H   0  0  0  0  0  0  0  0  0  0  0  0
    9.4055   43.4892  130.3237 C   0  0  0  0  0  0  0  0  0  0  0  0
   10.1549   42.8372  129.3824 C   0  0  0  0  0  0  0  0  0  0  0  0
   10.7041   43.5027  128.3205 N   0  0  0  0  0  0  0  0  0  0  0  0
   10.5041   44.8372  128.1933 C   0  0  0  0  0  0  0  0  0  0  0  0
   11.0625   45.5648  127.0950 N   0  0  0  0  0  0  0  0  0  0  0  0
    9.7613   45.5018  129.1201 C   0  0  0  0  0  0  0  0  0  0  0  0
    9.2286   44.8101  130.1656 N   0  0  0  0  0  0  0  0  0  0  0  0
   11.9319   46.1250  127.2030 H   0  0  0  0  0  0  0  0  0  0  0  0
   10.5928   45.5301  126.1865 H   0  0  0  0  0  0  0  0  0  0  0  0
    7.7264   41.5483  133.7355 C   0  0  0  0  0  0  0  0  0  0  0  0
    7.0603   41.5154  132.5354 C   0  0  0  0  0  0  0  0  0  0  0  0
    7.6162   42.1460  131.4497 C   0  0  0  0  0  0  0  0  0  0  0  0
    8.8091   42.8219  131.4628 C   0  0  0  0  0  0  0  0  0  0  0  0
    9.4649   42.8374  132.7024 C   0  0  0  0  0  0  0  0  0  0  0  0
    8.9385   42.2154  133.8168 C   0  0  0  0  0  0  0  0  0  0  0  0
    5.7948   40.6333  134.8520 C   0  0  0  0  0  0  0  0  0  0  0  0
    7.1711   40.9160  134.8281 O   0  0  0  0  0  0  0  0  0  0  0  0
    7.9219   48.8302  129.6468 C   0  0  0  0  0  0  0  0  0  0  0  0
    7.3671   49.4567  128.5718 C   0  0  0  0  0  0  0  0  0  0  0  0
    6.9101   50.7193  128.6431 N   0  0  0  0  0  0  0  0  0  0  0  0
    6.9759   51.4286  129.7756 C   0  0  0  0  0  0  0  0  0  0  0  0
    7.5250   50.8516  130.8923 C   0  0  0  0  0  0  0  0  0  0  0  0
    8.0050   49.5437  130.8372 C   0  0  0  0  0  0  0  0  0  0  0  0
    8.6044   48.9757  131.9849 N   0  0  0  0  0  0  0  0  0  0  0  0
    8.0447   47.9027  132.7563 C   0  0  0  0  0  0  0  0  0  0  0  0
    9.0902   46.8351  132.9824 C   0  0  0  0  0  0  0  0  0  0  0  0
   10.2794   47.0673  132.1060 C   0  0  0  0  0  0  0  0  0  0  0  0
   11.3381   46.1010  132.4294 N   0  0  0  0  0  0  0  0  0  0  0  0
   10.9125   48.4239  132.2561 C   0  0  0  0  0  0  0  0  0  0  0  0
    9.8874   49.5065  132.4250 C   0  0  0  0  0  0  0  0  0  0  0  0
   12.2232   46.4024  132.0103 H   0  0  0  0  0  0  0  0  0  0  0  0
   11.0459   45.1312  132.1959 H   0  0  0  0  0  0  0  0  0  0  0  0
 20 21  1  0  0  0
 21 14  1  0  0  0
 14 15  2  0  0  0
 15 16  1  0  0  0
 16 17  2  0  0  0
 17  5  1  0  0  0
  5  6  2  0  0  0
  6  7  1  0  0  0
  7  8  2  0  0  0
  8  9  1  0  0  0
  8 10  1  0  0  0
 10  1  1  0  0  0
  1  2  2  0  0  0
  1  3  1  0  0  0
  3 22  1  0  0  0
 22 23  2  0  0  0
 23 24  1  0  0  0
 24 25  2  0  0  0
 25 26  1  0  0  0
 26 27  2  0  0  0
 27 28  1  0  0  0
 28 29  1  0  0  0
 29 30  1  0  0  0
 30 31  1  0  0  0
 31 32  1  0  0  0
 31 33  1  0  0  0
 33 34  1  0  0  0
 10 11  2  0  0  0
 17 18  1  0  0  0
 18 19  2  0  0  0
 19 14  1  0  0  0
 11  5  1  0  0  0
 27 22  1  0  0  0
 34 28  1  0  0  0
  9 12  1  0  0  0
  9 13  1  0  0  0
  3  4  1  0  0  0
 32 35  1  0  0  0
 32 36  1  0  0  0
M  END
> <minimizedAffinity>
6.99355

> <CNNscore>
0.1578815281

> <CNNaffinity>
7.2980637550

> <CNN_VS>
1.1522294283

> <CNNaffinity_variance>
0.1659616828

$$$$
[H]c1nc(N([H])[H])c(C(=O)N([H])c2c([H])nc([H])c([H])c2N2C([H])([H])C([H])([H])C([H])(N([H])[H])C([H])([H])C2([H])[H])nc1-c1c([H])c([H])c(OC([H])([H])[H])c([H])c1[H]


 36 39  0  0  0  0  0  0  0  0999 V2000
    8.0828   45.7607  129.0860 C   0  0  0  0  0  0  0  0  0  0  0  0
    7.4777   45.4618  128.0381 O   0  0  0  0  0  0  0  0  0  0  0  0
    7.9042   46.8995  129.8837 N   0  0  0  0  0  0  0  0  0  0  0  0
    8.5242   46.9377  130.7528 H   0  0  0  0  0  0  0  0  0  0  0  0
   10.8649   44.1919  130.9862 C   0  0  0  0  0  0  0  0  0  0  0  0
   10.9924   43.0039  130.3188 C   0  0  0  0  0  0  0  0  0  0  0  0
   10.1899   42.6929  129.2551 N   0  0  0  0  0  0  0  0  0  0  0  0
    9.2463   43.5772  128.8496 C   0  0  0  0  0  0  0  0  0  0  0  0
    8.3893   43.2844  127.7418 N   0  0  0  0  0  0  0  0  0  0  0  0
    9.1055   44.7635  129.5018 C   0  0  0  0  0  0  0  0  0  0  0  0
    9.9202   45.0429  130.5569 N   0  0  0  0  0  0  0  0  0  0  0  0
    8.5717   43.6792  126.7973 H   0  0  0  0  0  0  0  0  0  0  0  0
    7.5813   42.6734  127.8872 H   0  0  0  0  0  0  0  0  0  0  0  0
   13.3515   45.3489  134.2580 C   0  0  0  0  0  0  0  0  0  0  0  0
   12.5162   44.2668  134.3855 C   0  0  0  0  0  0  0  0  0  0  0  0
   11.7237   43.9106  133.3222 C   0  0  0  0  0  0  0  0  0  0  0  0
   11.6954   44.5596  132.1147 C   0  0  0  0  0  0  0  0  0  0  0  0
   12.5594   45.6599  132.0158 C   0  0  0  0  0  0  0  0  0  0  0  0
   13.3713   46.0493  133.0622 C   0  0  0  0  0  0  0  0  0  0  0  0
   14.4342   47.0650  135.5609 C   0  0  0  0  0  0  0  0  0  0  0  0
   14.1490   45.7096  135.3238 O   0  0  0  0  0  0  0  0  0  0  0  0
    7.0083   47.9730  129.7016 C   0  0  0  0  0  0  0  0  0  0  0  0
    5.7749   47.8228  129.1430 C   0  0  0  0  0  0  0  0  0  0  0  0
    4.9198   48.8534  129.0211 N   0  0  0  0  0  0  0  0  0  0  0  0
    5.2355   50.0833  129.4429 C   0  0  0  0  0  0  0  0  0  0  0  0
    6.4643   50.2971  130.0137 C   0  0  0  0  0  0  0  0  0  0  0  0
    7.3644   49.2408  130.1477 C   0  0  0  0  0  0  0  0  0  0  0  0
    8.6423   49.4841  130.7016 N   0  0  0  0  0  0  0  0  0  0  0  0
    8.9385   50.5100  131.6606 C   0  0  0  0  0  0  0  0  0  0  0  0
    9.7183   49.9228  132.8143 C   0  0  0  0  0  0  0  0  0  0  0  0
    9.6932   48.4285  132.7615 C   0  0  0  0  0  0  0  0  0  0  0  0
   10.5608   47.8742  133.8100 N   0  0  0  0  0  0  0  0  0  0  0  0
   10.1937   47.8389  131.4709 C   0  0  0  0  0  0  0  0  0  0  0  0
    9.7479   48.6350  130.2798 C   0  0  0  0  0  0  0  0  0  0  0  0
   10.7335   46.8807  133.6286 H   0  0  0  0  0  0  0  0  0  0  0  0
   10.1928   48.0934  134.7571 H   0  0  0  0  0  0  0  0  0  0  0  0
 20 21  1  0  0  0
 21 14  1  0  0  0
 14 15  2  0  0  0
 15 16  1  0  0  0
 16 17  2  0  0  0
 17  5  1  0  0  0
  5  6  2  0  0  0
  6  7  1  0  0  0
  7  8  2  0  0  0
  8  9  1  0  0  0
  8 10  1  0  0  0
 10  1  1  0  0  0
  1  2  2  0  0  0
  1  3  1  0  0  0
  3 22  1  0  0  0
 22 23  2  0  0  0
 23 24  1  0  0  0
 24 25  2  0  0  0
 25 26  1  0  0  0
 26 27  2  0  0  0
 27 28  1  0  0  0
 28 29  1  0  0  0
 29 30  1  0  0  0
 30 31  1  0  0  0
 31 32  1  0  0  0
 31 33  1  0  0  0
 33 34  1  0  0  0
 10 11  2  0  0  0
 17 18  1  0  0  0
 18 19  2  0  0  0
 19 14  1  0  0  0
 11  5  1  0  0  0
 27 22  1  0  0  0
 34 28  1  0  0  0
  9 12  1  0  0  0
  9 13  1  0  0  0
  3  4  1  0  0  0
 32 35  1  0  0  0
 32 36  1  0  0  0
M  END
> <minimizedAffinity>
4.58999

> <CNNscore>
0.1482860297

> <CNNaffinity>
7.5161414146

> <CNN_VS>
1.1145387888

> <CNNaffinity_variance>
0.2272972316

$$$$
[H]c1c([H])c(N([H])C(=O)N([H])[C@]([H])(C(=O)N([H])[C@]([H])(C(=O)N([H])[H])C([H])([H])C([H])([H])C([H])([H])[H])C([H])([H])C([H])(C([H])([H])[H])C([H])([H])[H])c([H])c([H])c1Br


 31 31  0  0  0  0  0  0  0  0999 V2000
    9.1097   48.5284  132.9060 C   0  0  0  0  0  0  0  0  0  0  0  0
    8.5037   47.2230  132.6727 N   0  0  0  0  0  0  0  0  0  0  0  0
    9.0396   46.3750  131.6758 C   0  0  0  0  0  0  0  0  0  0  0  0
   10.0441   46.7479  130.9860 O   0  0  0  0  0  0  0  0  0  0  0  0
    8.4773   45.1191  131.4332 N   0  0  0  0  0  0  0  0  0  0  0  0
    7.7032   46.9366  133.2283 H   0  0  0  0  0  0  0  0  0  0  0  0
    7.6321   44.8849  132.0510 H   0  0  0  0  0  0  0  0  0  0  0  0
    8.8805   44.1399  130.4982 C   0  0  0  0  0  0  0  0  0  0  0  0
    9.3033   42.8728  130.7930 C   0  0  0  0  0  0  0  0  0  0  0  0
    9.7076   41.9678  129.7946 C   0  0  0  0  0  0  0  0  0  0  0  0
    9.6953   42.3178  128.4684 C   0  0  0  0  0  0  0  0  0  0  0  0
   10.2453   41.0865  127.1127 Br  0  0  0  0  0  0  0  0  0  0  0  0
    9.2733   43.5848  128.1575 C   0  0  0  0  0  0  0  0  0  0  0  0
    8.8787   44.4691  129.1317 C   0  0  0  0  0  0  0  0  0  0  0  0
    7.9678   49.0110  130.7265 N   0  0  0  0  0  0  0  0  0  0  0  0
    9.0515   49.2522  131.6360 C   0  0  0  0  0  0  0  0  0  0  0  0
    9.9617   50.0898  131.3245 O   0  0  0  0  0  0  0  0  0  0  0  0
    7.2393   48.3307  131.0175 H   0  0  0  0  0  0  0  0  0  0  0  0
    7.8943   49.6903  129.4523 C   0  0  0  0  0  0  0  0  0  0  0  0
    6.8962   50.7841  129.5340 C   0  0  0  0  0  0  0  0  0  0  0  0
    6.9100   51.8149  128.5330 N   0  0  0  0  0  0  0  0  0  0  0  0
    6.0349   50.8755  130.4199 O   0  0  0  0  0  0  0  0  0  0  0  0
    7.8113   52.0149  128.0685 H   0  0  0  0  0  0  0  0  0  0  0  0
    6.0482   52.3501  128.2745 H   0  0  0  0  0  0  0  0  0  0  0  0
    7.4811   48.7380  128.3709 C   0  0  0  0  0  0  0  0  0  0  0  0
    5.4241   47.3981  129.0187 C   0  0  0  0  0  0  0  0  0  0  0  0
    6.8801   47.4530  128.7545 C   0  0  0  0  0  0  0  0  0  0  0  0
   10.4017   48.4127  133.6016 C   0  0  0  0  0  0  0  0  0  0  0  0
   10.6364   47.3694  134.6009 C   0  0  0  0  0  0  0  0  0  0  0  0
   11.4688   46.2351  133.9267 C   0  0  0  0  0  0  0  0  0  0  0  0
    9.4223   46.6429  135.1086 C   0  0  0  0  0  0  0  0  0  0  0  0
 26 27  1  0  0  0
 27 25  1  0  0  0
 25 19  1  0  0  0
 19 15  1  0  0  0
 15 16  1  0  0  0
 16 17  2  0  0  0
 16  1  1  0  0  0
  1 28  1  0  0  0
 28 29  1  0  0  0
 29 30  1  0  0  0
 29 31  1  0  0  0
  1  2  1  0  0  0
  2  3  1  0  0  0
  3  4  2  0  0  0
  3  5  1  0  0  0
  5  8  1  0  0  0
  8  9  2  0  0  0
  9 10  1  0  0  0
 10 11  2  0  0  0
 11 12  1  0  0  0
 11 13  1  0  0  0
 13 14  2  0  0  0
 19 20  1  0  0  0
 20 21  1  0  0  0
 20 22  2  0  0  0
 14  8  1  0  0  0
 15 18  1  0  0  0
  2  6  1  0  0  0
  5  7  1  0  0  0
 21 23  1  0  0  0
 21 24  1  0  0  0
M  END
> <minimizedAffinity>
-1.31081

> <CNNscore>
0.4312177896

> <CNNaffinity>
7.0975899696

> <CNN_VS>
3.0606069565

> <CNNaffinity_variance>
0.1978791952

$$$$
[H]c1c([H])c(N([H])C(=O)N([H])[C@]([H])(C(=O)N([H])[C@]([H])(C(=O)N([H])[H])C([H])([H])C([H])([H])C([H])([H])[H])C([H])([H])C([H])(C([H])([H])[H])C([H])([H])[H])c([H])c([H])c1Br


 31 31  0  0  0  0  0  0  0  0999 V2000
    8.2743   47.8459  132.8693 C   0  0  0  0  0  0  0  0  0  0  0  0
    8.5845   46.5774  132.2209 N   0  0  0  0  0  0  0  0  0  0  0  0
    9.8866   46.3538  131.7161 C   0  0  0  0  0  0  0  0  0  0  0  0
   10.7825   47.2534  131.8263 O   0  0  0  0  0  0  0  0  0  0  0  0
   10.2093   45.1466  131.0911 N   0  0  0  0  0  0  0  0  0  0  0  0
    7.8625   45.8679  132.1385 H   0  0  0  0  0  0  0  0  0  0  0  0
    9.3983   44.4467  131.0331 H   0  0  0  0  0  0  0  0  0  0  0  0
   11.4470   44.7422  130.5432 C   0  0  0  0  0  0  0  0  0  0  0  0
   12.5216   44.2710  131.2461 C   0  0  0  0  0  0  0  0  0  0  0  0
   13.7271   43.9101  130.6169 C   0  0  0  0  0  0  0  0  0  0  0  0
   13.8807   44.0146  129.2579 C   0  0  0  0  0  0  0  0  0  0  0  0
   15.5199   43.5237  128.4044 Br  0  0  0  0  0  0  0  0  0  0  0  0
   12.8115   44.4851  128.5399 C   0  0  0  0  0  0  0  0  0  0  0  0
   11.6343   44.8380  129.1534 C   0  0  0  0  0  0  0  0  0  0  0  0
    7.6084   48.8055  130.6507 N   0  0  0  0  0  0  0  0  0  0  0  0
    8.3995   48.8833  131.8455 C   0  0  0  0  0  0  0  0  0  0  0  0
    9.2140   49.8527  132.0006 O   0  0  0  0  0  0  0  0  0  0  0  0
    6.9485   48.0086  130.5630 H   0  0  0  0  0  0  0  0  0  0  0  0
    7.7269   49.8001  129.6080 C   0  0  0  0  0  0  0  0  0  0  0  0
    6.7659   50.9001  129.8650 C   0  0  0  0  0  0  0  0  0  0  0  0
    5.5733   50.6209  130.6163 N   0  0  0  0  0  0  0  0  0  0  0  0
    6.9197   52.0646  129.4712 O   0  0  0  0  0  0  0  0  0  0  0  0
    5.2074   49.6548  130.5862 H   0  0  0  0  0  0  0  0  0  0  0  0
    5.0841   51.3576  131.1764 H   0  0  0  0  0  0  0  0  0  0  0  0
    7.4260   49.1977  128.2688 C   0  0  0  0  0  0  0  0  0  0  0  0
    5.5610   47.5420  128.7455 C   0  0  0  0  0  0  0  0  0  0  0  0
    6.9145   47.8210  128.2136 C   0  0  0  0  0  0  0  0  0  0  0  0
    9.0064   48.0033  134.1365 C   0  0  0  0  0  0  0  0  0  0  0  0
    9.0232   46.9400  135.1421 C   0  0  0  0  0  0  0  0  0  0  0  0
   10.4399   46.2867  135.1289 C   0  0  0  0  0  0  0  0  0  0  0  0
    8.1091   45.7721  134.8972 C   0  0  0  0  0  0  0  0  0  0  0  0
 26 27  1  0  0  0
 27 25  1  0  0  0
 25 19  1  0  0  0
 19 15  1  0  0  0
 15 16  1  0  0  0
 16 17  2  0  0  0
 16  1  1  0  0  0
  1 28  1  0  0  0
 28 29  1  0  0  0
 29 30  1  0  0  0
 29 31  1  0  0  0
  1  2  1  0  0  0
  2  3  1  0  0  0
  3  4  2  0  0  0
  3  5  1  0  0  0
  5  8  1  0  0  0
  8  9  2  0  0  0
  9 10  1  0  0  0
 10 11  2  0  0  0
 11 12  1  0  0  0
 11 13  1  0  0  0
 13 14  2  0  0  0
 19 20  1  0  0  0
 20 21  1  0  0  0
 20 22  2  0  0  0
 14  8  1  0  0  0
 15 18  1  0  0  0
  2  6  1  0  0  0
  5  7  1  0  0  0
 21 23  1  0  0  0
 21 24  1  0  0  0
M  END
> <minimizedAffinity>
0.45994

> <CNNscore>
0.4305146337

> <CNNaffinity>
6.7590956688

> <CNN_VS>
2.9098896980

> <CNNaffinity_variance>
0.4468775690

$$$$
[H]c1c([H])c(N([H])C(=O)N([H])[C@]([H])(C(=O)N([H])[C@]([H])(C(=O)N([H])[H])C([H])([H])C([H])([H])C([H])([H])[H])C([H])([H])C([H])(C([H])([H])[H])C([H])([H])[H])c([H])c([H])c1Br


 31 31  0  0  0  0  0  0  0  0999 V2000
    7.5202   46.6111  129.1201 C   0  0  0  0  0  0  0  0  0  0  0  0
    7.4785   46.8702  130.5543 N   0  0  0  0  0  0  0  0  0  0  0  0
    8.6699   47.2140  131.2344 C   0  0  0  0  0  0  0  0  0  0  0  0
    9.7720   47.2966  130.5998 O   0  0  0  0  0  0  0  0  0  0  0  0
    8.6564   47.4675  132.6083 N   0  0  0  0  0  0  0  0  0  0  0  0
    6.5946   46.8010  131.0496 H   0  0  0  0  0  0  0  0  0  0  0  0
    7.6918   47.3700  133.0677 H   0  0  0  0  0  0  0  0  0  0  0  0
    9.7330   47.8337  133.4465 C   0  0  0  0  0  0  0  0  0  0  0  0
   10.2276   49.0980  133.6136 C   0  0  0  0  0  0  0  0  0  0  0  0
   11.3211   49.3681  134.4567 C   0  0  0  0  0  0  0  0  0  0  0  0
   11.9459   48.3671  135.1561 C   0  0  0  0  0  0  0  0  0  0  0  0
   13.4320   48.7360  136.3014 Br  0  0  0  0  0  0  0  0  0  0  0  0
   11.4606   47.0944  134.9989 C   0  0  0  0  0  0  0  0  0  0  0  0
   10.3933   46.8297  134.1758 C   0  0  0  0  0  0  0  0  0  0  0  0
    8.8949   44.6651  129.9010 N   0  0  0  0  0  0  0  0  0  0  0  0
    8.5984   45.6476  128.8979 C   0  0  0  0  0  0  0  0  0  0  0  0
    9.2849   45.6789  127.8233 O   0  0  0  0  0  0  0  0  0  0  0  0
    8.3089   44.6622  130.7582 H   0  0  0  0  0  0  0  0  0  0  0  0
    9.9704   43.7151  129.7240 C   0  0  0  0  0  0  0  0  0  0  0  0
    9.6857   42.4951  130.5175 C   0  0  0  0  0  0  0  0  0  0  0  0
    8.4006   41.8653  130.3887 N   0  0  0  0  0  0  0  0  0  0  0  0
   10.4910   41.9694  131.2986 O   0  0  0  0  0  0  0  0  0  0  0  0
    7.6030   42.4633  130.1163 H   0  0  0  0  0  0  0  0  0  0  0  0
    8.2635   40.8418  130.5609 H   0  0  0  0  0  0  0  0  0  0  0  0
   11.2711   44.3001  130.1857 C   0  0  0  0  0  0  0  0  0  0  0  0
   13.7470   44.4492  129.6433 C   0  0  0  0  0  0  0  0  0  0  0  0
   12.3366   44.5184  129.1973 C   0  0  0  0  0  0  0  0  0  0  0  0
    7.5085   47.8595  128.3405 C   0  0  0  0  0  0  0  0  0  0  0  0
    6.4959   48.8907  128.5715 C   0  0  0  0  0  0  0  0  0  0  0  0
    7.1406   50.0123  129.4435 C   0  0  0  0  0  0  0  0  0  0  0  0
    5.2955   48.4818  129.3786 C   0  0  0  0  0  0  0  0  0  0  0  0
 26 27  1  0  0  0
 27 25  1  0  0  0
 25 19  1  0  0  0
 19 15  1  0  0  0
 15 16  1  0  0  0
 16 17  2  0  0  0
 16  1  1  0  0  0
  1 28  1  0  0  0
 28 29  1  0  0  0
 29 30  1  0  0  0
 29 31  1  0  0  0
  1  2  1  0  0  0
  2  3  1  0  0  0
  3  4  2  0  0  0
  3  5  1  0  0  0
  5  8  1  0  0  0
  8  9  2  0  0  0
  9 10  1  0  0  0
 10 11  2  0  0  0
 11 12  1  0  0  0
 11 13  1  0  0  0
 13 14  2  0  0  0
 19 20  1  0  0  0
 20 21  1  0  0  0
 20 22  2  0  0  0
 14  8  1  0  0  0
 15 18  1  0  0  0
  2  6  1  0  0  0
  5  7  1  0  0  0
 21 23  1  0  0  0
 21 24  1  0  0  0
M  END
> <minimizedAffinity>
3.10779

> <CNNscore>
0.4303987920

> <CNNaffinity>
7.0835371017

> <CNN_VS>
3.0487458706

> <CNNaffinity_variance>
1.5350263119

$$$$
[H]c1c([H])c(N([H])C(=O)N([H])[C@]([H])(C(=O)N([H])[C@]([H])(C(=O)N([H])[H])C([H])([H])C([H])([H])C([H])([H])[H])C([H])([H])C([H])(C([H])([H])[H])C([H])([H])[H])c([H])c([H])c1Br


 31 31  0  0  0  0  0  0  0  0999 V2000
   10.7327   45.3773  133.0389 C   0  0  0  0  0  0  0  0  0  0  0  0
    9.4400   45.8155  132.5262 N   0  0  0  0  0  0  0  0  0  0  0  0
    9.3489   47.0386  131.8220 C   0  0  0  0  0  0  0  0  0  0  0  0
   10.3877   47.7532  131.6368 O   0  0  0  0  0  0  0  0  0  0  0  0
    8.1220   47.4804  131.3202 N   0  0  0  0  0  0  0  0  0  0  0  0
    8.6189   45.2379  132.6801 H   0  0  0  0  0  0  0  0  0  0  0  0
    7.2975   46.8252  131.5248 H   0  0  0  0  0  0  0  0  0  0  0  0
    7.8421   48.6557  130.5882 C   0  0  0  0  0  0  0  0  0  0  0  0
    7.6763   49.9085  131.1116 C   0  0  0  0  0  0  0  0  0  0  0  0
    7.3776   51.0225  130.3059 C   0  0  0  0  0  0  0  0  0  0  0  0
    7.2386   50.9019  128.9466 C   0  0  0  0  0  0  0  0  0  0  0  0
    6.8325   52.4170  127.8530 Br  0  0  0  0  0  0  0  0  0  0  0  0
    7.4026   49.6519  128.4074 C   0  0  0  0  0  0  0  0  0  0  0  0
    7.6939   48.5638  129.1934 C   0  0  0  0  0  0  0  0  0  0  0  0
   11.7914   44.9450  130.8076 N   0  0  0  0  0  0  0  0  0  0  0  0
   11.2825   44.4464  132.0534 C   0  0  0  0  0  0  0  0  0  0  0  0
   11.3049   43.1927  132.2873 O   0  0  0  0  0  0  0  0  0  0  0  0
   11.7671   45.9719  130.6557 H   0  0  0  0  0  0  0  0  0  0  0  0
   12.3178   44.0497  129.8017 C   0  0  0  0  0  0  0  0  0  0  0  0
   13.7640   44.3175  129.6121 C   0  0  0  0  0  0  0  0  0  0  0  0
   14.3496   44.0932  128.3192 N   0  0  0  0  0  0  0  0  0  0  0  0
   14.5185   44.7284  130.5048 O   0  0  0  0  0  0  0  0  0  0  0  0
   13.9039   43.3862  127.7113 H   0  0  0  0  0  0  0  0  0  0  0  0
   15.1946   44.6182  127.9931 H   0  0  0  0  0  0  0  0  0  0  0  0
   11.6126   44.2531  128.4947 C   0  0  0  0  0  0  0  0  0  0  0  0
    9.2398   45.1296  128.7141 C   0  0  0  0  0  0  0  0  0  0  0  0
   10.6610   45.3663  128.3723 C   0  0  0  0  0  0  0  0  0  0  0  0
   10.6457   44.9556  134.4465 C   0  0  0  0  0  0  0  0  0  0  0  0
   10.2074   45.8813  135.4919 C   0  0  0  0  0  0  0  0  0  0  0  0
   10.0305   45.0686  136.8119 C   0  0  0  0  0  0  0  0  0  0  0  0
    8.8583   46.5164  135.3015 C   0  0  0  0  0  0  0  0  0  0  0  0
 26 27  1  0  0  0
 27 25  1  0  0  0
 25 19  1  0  0  0
 19 15  1  0  0  0
 15 16  1  0  0  0
 16 17  2  0  0  0
 16  1  1  0  0  0
  1 28  1  0  0  0
 28 29  1  0  0  0
 29 30  1  0  0  0
 29 31  1  0  0  0
  1  2  1  0  0  0
  2  3  1  0  0  0
  3  4  2  0  0  0
  3  5  1  0  0  0
  5  8  1  0  0  0
  8  9  2  0  0  0
  9 10  1  0  0  0
 10 11  2  0  0  0
 11 12  1  0  0  0
 11 13  1  0  0  0
 13 14  2  0  0  0
 19 20  1  0  0  0
 20 21  1  0  0  0
 20 22  2  0  0  0
 14  8  1  0  0  0
 15 18  1  0  0  0
  2  6  1  0  0  0
  5  7  1  0  0  0
 21 23  1  0  0  0
 21 24  1  0  0  0
M  END
> <minimizedAffinity>
1.55592

> <CNNscore>
0.4147697091

> <CNNaffinity>
6.9812278748

> <CNN_VS>
2.8956017494

> <CNNaffinity_variance>
0.8166004419

$$$$
[H]c1c([H])c(N([H])C(=O)N([H])[C@]([H])(C(=O)N([H])[C@]([H])(C(=O)N([H])[H])C([H])([H])C([H])([H])C([H])([H])[H])C([H])([H])C([H])(C([H])([H])[H])C([H])([H])[H])c([H])c([H])c1Br


 31 31  0  0  0  0  0  0  0  0999 V2000
    7.7454   48.6214  128.4585 C   0  0  0  0  0  0  0  0  0  0  0  0
    8.9059   47.7538  128.2964 N   0  0  0  0  0  0  0  0  0  0  0  0
    9.0848   46.6593  129.1739 C   0  0  0  0  0  0  0  0  0  0  0  0
    8.2390   46.4323  130.0998 O   0  0  0  0  0  0  0  0  0  0  0  0
   10.1882   45.8129  129.0392 N   0  0  0  0  0  0  0  0  0  0  0  0
    9.5735   47.9447  127.5551 H   0  0  0  0  0  0  0  0  0  0  0  0
   10.8546   46.0769  128.2410 H   0  0  0  0  0  0  0  0  0  0  0  0
   10.5229   44.6741  129.8053 C   0  0  0  0  0  0  0  0  0  0  0  0
   11.7055   44.4651  130.4601 C   0  0  0  0  0  0  0  0  0  0  0  0
   11.9612   43.2867  131.1848 C   0  0  0  0  0  0  0  0  0  0  0  0
   11.0276   42.2852  131.2690 C   0  0  0  0  0  0  0  0  0  0  0  0
   11.3769   40.6841  132.2543 Br  0  0  0  0  0  0  0  0  0  0  0  0
    9.8369   42.4809  130.6179 C   0  0  0  0  0  0  0  0  0  0  0  0
    9.5866   43.6310  129.9098 C   0  0  0  0  0  0  0  0  0  0  0  0
    8.3932   48.4376  130.8737 N   0  0  0  0  0  0  0  0  0  0  0  0
    7.8419   49.2076  129.7954 C   0  0  0  0  0  0  0  0  0  0  0  0
    7.4308   50.3951  130.0141 O   0  0  0  0  0  0  0  0  0  0  0  0
    8.7276   47.4787  130.6569 H   0  0  0  0  0  0  0  0  0  0  0  0
    8.4791   48.9778  132.2121 C   0  0  0  0  0  0  0  0  0  0  0  0
    9.7767   49.6761  132.3792 C   0  0  0  0  0  0  0  0  0  0  0  0
    9.8814   50.7261  133.3546 N   0  0  0  0  0  0  0  0  0  0  0  0
   10.7967   49.4150  131.7262 O   0  0  0  0  0  0  0  0  0  0  0  0
    9.0185   51.2435  133.5909 H   0  0  0  0  0  0  0  0  0  0  0  0
   10.7896   50.9679  133.8156 H   0  0  0  0  0  0  0  0  0  0  0  0
    8.3853   47.8811  133.2296 C   0  0  0  0  0  0  0  0  0  0  0  0
    9.8555   45.8124  133.3064 C   0  0  0  0  0  0  0  0  0  0  0  0
    9.6227   47.2269  133.6777 C   0  0  0  0  0  0  0  0  0  0  0  0
    6.4993   47.9433  128.0661 C   0  0  0  0  0  0  0  0  0  0  0  0
    5.3609   47.8549  128.9818 C   0  0  0  0  0  0  0  0  0  0  0  0
    5.1705   49.2519  129.6499 C   0  0  0  0  0  0  0  0  0  0  0  0
    5.5186   46.9345  130.1597 C   0  0  0  0  0  0  0  0  0  0  0  0
 26 27  1  0  0  0
 27 25  1  0  0  0
 25 19  1  0  0  0
 19 15  1  0  0  0
 15 16  1  0  0  0
 16 17  2  0  0  0
 16  1  1  0  0  0
  1 28  1  0  0  0
 28 29  1  0  0  0
 29 30  1  0  0  0
 29 31  1  0  0  0
  1  2  1  0  0  0
  2  3  1  0  0  0
  3  4  2  0  0  0
  3  5  1  0  0  0
  5  8  1  0  0  0
  8  9  2  0  0  0
  9 10  1  0  0  0
 10 11  2  0  0  0
 11 12  1  0  0  0
 11 13  1  0  0  0
 13 14  2  0  0  0
 19 20  1  0  0  0
 20 21  1  0  0  0
 20 22  2  0  0  0
 14  8  1  0  0  0
 15 18  1  0  0  0
  2  6  1  0  0  0
  5  7  1  0  0  0
 21 23  1  0  0  0
 21 24  1  0  0  0
M  END
> <minimizedAffinity>
-0.85123

> <CNNscore>
0.4031589329

> <CNNaffinity>
7.0514893532

> <CNN_VS>
2.8428709507

> <CNNaffinity_variance>
0.5299382806

$$$$
[H]c1c([H])c(N([H])C(=O)N([H])[C@]([H])(C(=O)N([H])[C@]([H])(C(=O)N([H])[H])C([H])([H])C([H])([H])C([H])([H])[H])C([H])([H])C([H])(C([H])([H])[H])C([H])([H])[H])c([H])c([H])c1Br


 31 31  0  0  0  0  0  0  0  0999 V2000
   10.5574   46.5056  133.1892 C   0  0  0  0  0  0  0  0  0  0  0  0
    9.1458   46.4127  132.8362 N   0  0  0  0  0  0  0  0  0  0  0  0
    8.6888   47.0006  131.6339 C   0  0  0  0  0  0  0  0  0  0  0  0
    9.5034   47.6074  130.8643 O   0  0  0  0  0  0  0  0  0  0  0  0
    7.3412   46.9250  131.2728 N   0  0  0  0  0  0  0  0  0  0  0  0
    8.5057   45.9269  133.4574 H   0  0  0  0  0  0  0  0  0  0  0  0
    6.7220   46.4041  131.9772 H   0  0  0  0  0  0  0  0  0  0  0  0
    6.7097   47.4347  130.1165 C   0  0  0  0  0  0  0  0  0  0  0  0
    7.2980   48.2090  129.1544 C   0  0  0  0  0  0  0  0  0  0  0  0
    6.5838   48.6916  128.0426 C   0  0  0  0  0  0  0  0  0  0  0  0
    5.2536   48.4046  127.8708 C   0  0  0  0  0  0  0  0  0  0  0  0
    4.2844   49.0617  126.3590 Br  0  0  0  0  0  0  0  0  0  0  0  0
    4.6503   47.6289  128.8271 C   0  0  0  0  0  0  0  0  0  0  0  0
    5.3468   47.1575  129.9131 C   0  0  0  0  0  0  0  0  0  0  0  0
   10.5730   44.3281  131.9464 N   0  0  0  0  0  0  0  0  0  0  0  0
   11.2602   45.5119  132.3777 C   0  0  0  0  0  0  0  0  0  0  0  0
   12.4830   45.6832  132.0577 O   0  0  0  0  0  0  0  0  0  0  0  0
    9.5755   44.2269  132.2162 H   0  0  0  0  0  0  0  0  0  0  0  0
   11.2459   43.3143  131.1653 C   0  0  0  0  0  0  0  0  0  0  0  0
   12.6647   43.2276  131.5880 C   0  0  0  0  0  0  0  0  0  0  0  0
   12.9651   43.0091  132.9761 N   0  0  0  0  0  0  0  0  0  0  0  0
   13.6283   43.3320  130.8164 O   0  0  0  0  0  0  0  0  0  0  0  0
   12.2718   43.3347  133.6698 H   0  0  0  0  0  0  0  0  0  0  0  0
   13.8479   42.5398  133.2865 H   0  0  0  0  0  0  0  0  0  0  0  0
   11.1956   43.6541  129.7062 C   0  0  0  0  0  0  0  0  0  0  0  0
   10.5105   45.7936  128.5231 C   0  0  0  0  0  0  0  0  0  0  0  0
   10.1314   44.5466  129.2260 C   0  0  0  0  0  0  0  0  0  0  0  0
   10.7553   46.5035  134.6478 C   0  0  0  0  0  0  0  0  0  0  0  0
    9.7731   45.8971  135.5475 C   0  0  0  0  0  0  0  0  0  0  0  0
    9.2403   47.0115  136.5006 C   0  0  0  0  0  0  0  0  0  0  0  0
   10.2904   44.8555  136.4998 C   0  0  0  0  0  0  0  0  0  0  0  0
 26 27  1  0  0  0
 27 25  1  0  0  0
 25 19  1  0  0  0
 19 15  1  0  0  0
 15 16  1  0  0  0
 16 17  2  0  0  0
 16  1  1  0  0  0
  1 28  1  0  0  0
 28 29  1  0  0  0
 29 30  1  0  0  0
 29 31  1  0  0  0
  1  2  1  0  0  0
  2  3  1  0  0  0
  3  4  2  0  0  0
  3  5  1  0  0  0
  5  8  1  0  0  0
  8  9  2  0  0  0
  9 10  1  0  0  0
 10 11  2  0  0  0
 11 12  1  0  0  0
 11 13  1  0  0  0
 13 14  2  0  0  0
 19 20  1  0  0  0
 20 21  1  0  0  0
 20 22  2  0  0  0
 14  8  1  0  0  0
 15 18  1  0  0  0
  2  6  1  0  0  0
  5  7  1  0  0  0
 21 23  1  0  0  0
 21 24  1  0  0  0
M  END
> <minimizedAffinity>
9.77434

> <CNNscore>
0.3883518279

> <CNNaffinity>
7.0431542397

> <CNN_VS>
2.7352218628

> <CNNaffinity_variance>
1.6251981258

$$$$
[H]c1c([H])c(N([H])C(=O)N([H])[C@]([H])(C(=O)N([H])[C@]([H])(C(=O)N([H])[H])C([H])([H])C([H])([H])C([H])([H])[H])C([H])([H])C([H])(C([H])([H])[H])C([H])([H])[H])c([H])c([H])c1Br


 31 31  0  0  0  0  0  0  0  0999 V2000
    9.3912   43.0746  129.4099 C   0  0  0  0  0  0  0  0  0  0  0  0
    8.4168   43.6301  130.3415 N   0  0  0  0  0  0  0  0  0  0  0  0
    8.8592   44.4548  131.4018 C   0  0  0  0  0  0  0  0  0  0  0  0
   10.0996   44.7109  131.5431 O   0  0  0  0  0  0  0  0  0  0  0  0
    7.9455   44.9997  132.3075 N   0  0  0  0  0  0  0  0  0  0  0  0
    7.4309   43.4189  130.2193 H   0  0  0  0  0  0  0  0  0  0  0  0
    6.9236   44.7303  132.1227 H   0  0  0  0  0  0  0  0  0  0  0  0
    8.1970   45.8476  133.4091 C   0  0  0  0  0  0  0  0  0  0  0  0
    7.9340   47.1886  133.4679 C   0  0  0  0  0  0  0  0  0  0  0  0
    8.2384   47.9616  134.6033 C   0  0  0  0  0  0  0  0  0  0  0  0
    8.8171   47.4005  135.7131 C   0  0  0  0  0  0  0  0  0  0  0  0
    9.2303   48.4526  137.2554 Br  0  0  0  0  0  0  0  0  0  0  0  0
    9.0862   46.0567  135.6689 C   0  0  0  0  0  0  0  0  0  0  0  0
    8.7897   45.3013  134.5607 C   0  0  0  0  0  0  0  0  0  0  0  0
   11.4315   44.3262  130.1561 N   0  0  0  0  0  0  0  0  0  0  0  0
   10.6862   43.1016  130.0899 C   0  0  0  0  0  0  0  0  0  0  0  0
   11.1644   42.0429  130.6167 O   0  0  0  0  0  0  0  0  0  0  0  0
   11.0070   45.1705  129.7259 H   0  0  0  0  0  0  0  0  0  0  0  0
   12.7260   44.3812  130.7980 C   0  0  0  0  0  0  0  0  0  0  0  0
   13.7883   44.1830  129.7824 C   0  0  0  0  0  0  0  0  0  0  0  0
   13.5354   44.5790  128.4245 N   0  0  0  0  0  0  0  0  0  0  0  0
   14.8994   43.6912  130.0245 O   0  0  0  0  0  0  0  0  0  0  0  0
   12.5528   44.5794  128.1042 H   0  0  0  0  0  0  0  0  0  0  0  0
   14.3068   44.8586  127.7742 H   0  0  0  0  0  0  0  0  0  0  0  0
   12.8442   43.3078  131.8377 C   0  0  0  0  0  0  0  0  0  0  0  0
   12.7316   44.8377  133.8609 C   0  0  0  0  0  0  0  0  0  0  0  0
   12.3376   43.5775  133.1906 C   0  0  0  0  0  0  0  0  0  0  0  0
    9.2750   43.6816  128.0740 C   0  0  0  0  0  0  0  0  0  0  0  0
    9.1209   45.1273  127.9066 C   0  0  0  0  0  0  0  0  0  0  0  0
   10.5045   45.7943  128.1801 C   0  0  0  0  0  0  0  0  0  0  0  0
    8.2114   45.8213  128.8817 C   0  0  0  0  0  0  0  0  0  0  0  0
 26 27  1  0  0  0
 27 25  1  0  0  0
 25 19  1  0  0  0
 19 15  1  0  0  0
 15 16  1  0  0  0
 16 17  2  0  0  0
 16  1  1  0  0  0
  1 28  1  0  0  0
 28 29  1  0  0  0
 29 30  1  0  0  0
 29 31  1  0  0  0
  1  2  1  0  0  0
  2  3  1  0  0  0
  3  4  2  0  0  0
  3  5  1  0  0  0
  5  8  1  0  0  0
  8  9  2  0  0  0
  9 10  1  0  0  0
 10 11  2  0  0  0
 11 12  1  0  0  0
 11 13  1  0  0  0
 13 14  2  0  0  0
 19 20  1  0  0  0
 20 21  1  0  0  0
 20 22  2  0  0  0
 14  8  1  0  0  0
 15 18  1  0  0  0
  2  6  1  0  0  0
  5  7  1  0  0  0
 21 23  1  0  0  0
 21 24  1  0  0  0
M  END
> <minimizedAffinity>
6.91498

> <CNNscore>
0.3736854196

> <CNNaffinity>
6.7167673111

> <CNN_VS>
2.5099580288

> <CNNaffinity_variance>
0.6721895933

$$$$
[H]c1c([H])c(N([H])C(=O)N([H])[C@]([H])(C(=O)N([H])[C@]([H])(C(=O)N([H])[H])C([H])([H])C([H])([H])C([H])([H])[H])C([H])([H])C([H])(C([H])([H])[H])C([H])([H])[H])c([H])c([H])c1Br


 31 31  0  0  0  0  0  0  0  0999 V2000
    9.4426   47.4773  129.0549 C   0  0  0  0  0  0  0  0  0  0  0  0
    9.2414   46.0333  129.0697 N   0  0  0  0  0  0  0  0  0  0  0  0
    8.7851   45.4062  130.2524 C   0  0  0  0  0  0  0  0  0  0  0  0
    8.5515   46.0967  131.2977 O   0  0  0  0  0  0  0  0  0  0  0  0
    8.5840   44.0241  130.2922 N   0  0  0  0  0  0  0  0  0  0  0  0
    9.4312   45.4931  128.2309 H   0  0  0  0  0  0  0  0  0  0  0  0
    8.8101   43.5166  129.3744 H   0  0  0  0  0  0  0  0  0  0  0  0
    8.1245   43.2320  131.3678 C   0  0  0  0  0  0  0  0  0  0  0  0
    8.4573   43.3936  132.6847 C   0  0  0  0  0  0  0  0  0  0  0  0
    7.9667   42.5408  133.6904 C   0  0  0  0  0  0  0  0  0  0  0  0
    7.1243   41.4998  133.3935 C   0  0  0  0  0  0  0  0  0  0  0  0
    6.4585   40.3416  134.7616 Br  0  0  0  0  0  0  0  0  0  0  0  0
    6.7814   41.3257  132.0773 C   0  0  0  0  0  0  0  0  0  0  0  0
    7.2602   42.1576  131.0948 C   0  0  0  0  0  0  0  0  0  0  0  0
   10.6619   46.7696  131.1283 N   0  0  0  0  0  0  0  0  0  0  0  0
   10.1521   47.8158  130.2887 C   0  0  0  0  0  0  0  0  0  0  0  0
   10.3136   49.0340  130.6306 O   0  0  0  0  0  0  0  0  0  0  0  0
   10.5216   45.7901  130.8135 H   0  0  0  0  0  0  0  0  0  0  0  0
   11.3450   47.0693  132.3669 C   0  0  0  0  0  0  0  0  0  0  0  0
   12.3990   46.0539  132.6064 C   0  0  0  0  0  0  0  0  0  0  0  0
   12.6418   45.6066  133.9502 N   0  0  0  0  0  0  0  0  0  0  0  0
   13.0989   45.5537  131.7149 O   0  0  0  0  0  0  0  0  0  0  0  0
   12.4160   46.2611  134.7175 H   0  0  0  0  0  0  0  0  0  0  0  0
   13.0317   44.6576  134.1582 H   0  0  0  0  0  0  0  0  0  0  0  0
   10.3836   47.0493  133.5168 C   0  0  0  0  0  0  0  0  0  0  0  0
    8.3522   48.0545  134.6612 C   0  0  0  0  0  0  0  0  0  0  0  0
    9.4520   48.1746  133.6769 C   0  0  0  0  0  0  0  0  0  0  0  0
    8.2012   48.1968  128.7266 C   0  0  0  0  0  0  0  0  0  0  0  0
    7.1392   48.3725  129.7182 C   0  0  0  0  0  0  0  0  0  0  0  0
    5.8453   47.7007  129.1627 C   0  0  0  0  0  0  0  0  0  0  0  0
    6.6997   49.7849  129.9858 C   0  0  0  0  0  0  0  0  0  0  0  0
 26 27  1  0  0  0
 27 25  1  0  0  0
 25 19  1  0  0  0
 19 15  1  0  0  0
 15 16  1  0  0  0
 16 17  2  0  0  0
 16  1  1  0  0  0
  1 28  1  0  0  0
 28 29  1  0  0  0
 29 30  1  0  0  0
 29 31  1  0  0  0
  1  2  1  0  0  0
  2  3  1  0  0  0
  3  4  2  0  0  0
  3  5  1  0  0  0
  5  8  1  0  0  0
  8  9  2  0  0  0
  9 10  1  0  0  0
 10 11  2  0  0  0
 11 12  1  0  0  0
 11 13  1  0  0  0
 13 14  2  0  0  0
 19 20  1  0  0  0
 20 21  1  0  0  0
 20 22  2  0  0  0
 14  8  1  0  0  0
 15 18  1  0  0  0
  2  6  1  0  0  0
  5  7  1  0  0  0
 21 23  1  0  0  0
 21 24  1  0  0  0
M  END
> <minimizedAffinity>
4.20489

> <CNNscore>
0.3327362537

> <CNNaffinity>
6.7292656898

> <CNN_VS>
2.2390706539

> <CNNaffinity_variance>
0.6652714014

$$$$
[H]c1c([H])c(N([H])C(=O)N([H])[C@]([H])(C(=O)N([H])[C@]([H])(C(=O)N([H])[H])C([H])([H])C([H])([H])C([H])([H])[H])C([H])([H])C([H])(C([H])([H])[H])C([H])([H])[H])c([H])c([H])c1Br


 31 31  0  0  0  0  0  0  0  0999 V2000
    7.8588   49.2411  130.1404 C   0  0  0  0  0  0  0  0  0  0  0  0
    8.1495   47.9138  129.6118 N   0  0  0  0  0  0  0  0  0  0  0  0
    9.4549   47.3846  129.7386 C   0  0  0  0  0  0  0  0  0  0  0  0
   10.3708   48.0618  130.3100 O   0  0  0  0  0  0  0  0  0  0  0  0
    9.7588   46.1150  129.2409 N   0  0  0  0  0  0  0  0  0  0  0  0
    7.4117   47.3834  129.1581 H   0  0  0  0  0  0  0  0  0  0  0  0
    8.9352   45.6148  128.7692 H   0  0  0  0  0  0  0  0  0  0  0  0
   10.9895   45.4228  129.2869 C   0  0  0  0  0  0  0  0  0  0  0  0
   11.6506   45.0328  130.4191 C   0  0  0  0  0  0  0  0  0  0  0  0
   12.8871   44.3636  130.3703 C   0  0  0  0  0  0  0  0  0  0  0  0
   13.4911   44.0687  129.1745 C   0  0  0  0  0  0  0  0  0  0  0  0
   15.1719   43.1593  129.1100 Br  0  0  0  0  0  0  0  0  0  0  0  0
   12.8397   44.4533  128.0308 C   0  0  0  0  0  0  0  0  0  0  0  0
   11.6326   45.1069  128.0776 C   0  0  0  0  0  0  0  0  0  0  0  0
    8.4094   48.1135  132.3111 N   0  0  0  0  0  0  0  0  0  0  0  0
    8.4235   49.2898  131.4891 C   0  0  0  0  0  0  0  0  0  0  0  0
    8.9202   50.3724  131.9456 O   0  0  0  0  0  0  0  0  0  0  0  0
    8.0070   47.2476  131.9031 H   0  0  0  0  0  0  0  0  0  0  0  0
    8.9359   48.1346  133.6575 C   0  0  0  0  0  0  0  0  0  0  0  0
   10.4141   48.0250  133.6103 C   0  0  0  0  0  0  0  0  0  0  0  0
   11.2085   49.1608  133.9892 N   0  0  0  0  0  0  0  0  0  0  0  0
   11.0255   47.0056  133.2610 O   0  0  0  0  0  0  0  0  0  0  0  0
   10.7878   50.0970  133.8686 H   0  0  0  0  0  0  0  0  0  0  0  0
   12.1768   49.0584  134.3737 H   0  0  0  0  0  0  0  0  0  0  0  0
    8.3909   46.9876  134.4541 C   0  0  0  0  0  0  0  0  0  0  0  0
    8.3813   44.7239  133.3043 C   0  0  0  0  0  0  0  0  0  0  0  0
    8.9915   45.6579  134.2778 C   0  0  0  0  0  0  0  0  0  0  0  0
    6.4466   49.6077  129.9456 C   0  0  0  0  0  0  0  0  0  0  0  0
    5.5764   48.8362  129.0571 C   0  0  0  0  0  0  0  0  0  0  0  0
    4.1418   49.4438  129.1409 C   0  0  0  0  0  0  0  0  0  0  0  0
    5.3557   47.3947  129.4216 C   0  0  0  0  0  0  0  0  0  0  0  0
 26 27  1  0  0  0
 27 25  1  0  0  0
 25 19  1  0  0  0
 19 15  1  0  0  0
 15 16  1  0  0  0
 16 17  2  0  0  0
 16  1  1  0  0  0
  1 28  1  0  0  0
 28 29  1  0  0  0
 29 30  1  0  0  0
 29 31  1  0  0  0
  1  2  1  0  0  0
  2  3  1  0  0  0
  3  4  2  0  0  0
  3  5  1  0  0  0
  5  8  1  0  0  0
  8  9  2  0  0  0
  9 10  1  0  0  0
 10 11  2  0  0  0
 11 12  1  0  0  0
 11 13  1  0  0  0
 13 14  2  0  0  0
 19 20  1  0  0  0
 20 21  1  0  0  0
 20 22  2  0  0  0
 14  8  1  0  0  0
 15 18  1  0  0  0
  2  6  1  0  0  0
  5  7  1  0  0  0
 21 23  1  0  0  0
 21 24  1  0  0  0
M  END
> <minimizedAffinity>
1.97258

> <CNNscore>
0.3075247705

> <CNNaffinity>
6.6579222679

> <CNN_VS>
2.0474760532

> <CNNaffinity_variance>
0.3423226178

$$$$
[H]OC(C([H])([H])[H])(C([H])([H])[H])C([H])([H])C(=O)N([H])C([H])([H])C([H])([H])c1c([H])c([H])c2nc([H])nc(N([H])c3c([H])c([H])c(Oc4c([H])c([H])c([H])c(C(F)(F)F)c4[H])c(Cl)c3[H])c2c1[H]


 42 45  0  0  0  0  0  0  0  0999 V2000
    7.3164   47.1022  128.7812 C   0  0  0  0  0  0  0  0  0  0  0  0
    6.0162   46.8223  128.4691 C   0  0  0  0  0  0  0  0  0  0  0  0
    5.0270   47.7173  128.7367 C   0  0  0  0  0  0  0  0  0  0  0  0
    5.3017   48.9382  129.3374 C   0  0  0  0  0  0  0  0  0  0  0  0
    4.2664   49.7661  129.5842 N   0  0  0  0  0  0  0  0  0  0  0  0
    4.5114   50.9408  130.1819 C   0  0  0  0  0  0  0  0  0  0  0  0
    5.7735   51.2083  130.4941 N   0  0  0  0  0  0  0  0  0  0  0  0
    6.8412   50.4540  130.2863 C   0  0  0  0  0  0  0  0  0  0  0  0
    6.6112   49.2236  129.6586 C   0  0  0  0  0  0  0  0  0  0  0  0
    7.6081   48.3424  129.3934 C   0  0  0  0  0  0  0  0  0  0  0  0
    8.1316   50.8052  130.7221 N   0  0  0  0  0  0  0  0  0  0  0  0
    8.4661   51.8020  130.7591 H   0  0  0  0  0  0  0  0  0  0  0  0
    9.0907   49.8447  131.1386 C   0  0  0  0  0  0  0  0  0  0  0  0
   10.2306   49.5341  130.4646 C   0  0  0  0  0  0  0  0  0  0  0  0
   11.1898   48.6591  130.9830 C   0  0  0  0  0  0  0  0  0  0  0  0
   10.9903   48.0652  132.2419 C   0  0  0  0  0  0  0  0  0  0  0  0
    9.8407   48.3632  132.9366 C   0  0  0  0  0  0  0  0  0  0  0  0
    9.5070   47.6349  134.5198 Cl  0  0  0  0  0  0  0  0  0  0  0  0
    8.9310   49.2332  132.3793 C   0  0  0  0  0  0  0  0  0  0  0  0
   11.9534   47.2411  132.6854 O   0  0  0  0  0  0  0  0  0  0  0  0
   12.0820   45.9390  132.9905 C   0  0  0  0  0  0  0  0  0  0  0  0
   12.7388   45.1006  132.0745 C   0  0  0  0  0  0  0  0  0  0  0  0
   12.8835   43.7736  132.3647 C   0  0  0  0  0  0  0  0  0  0  0  0
   12.3846   43.2743  133.5479 C   0  0  0  0  0  0  0  0  0  0  0  0
   11.7345   44.0679  134.4653 C   0  0  0  0  0  0  0  0  0  0  0  0
   11.5863   45.3990  134.1838 C   0  0  0  0  0  0  0  0  0  0  0  0
   11.2056   43.4438  135.7073 C   0  0  0  0  0  0  0  0  0  0  0  0
   10.4525   44.3915  136.4272 F   0  0  0  0  0  0  0  0  0  0  0  0
   10.3186   42.4551  135.3343 F   0  0  0  0  0  0  0  0  0  0  0  0
   12.1948   42.8986  136.4753 F   0  0  0  0  0  0  0  0  0  0  0  0
    8.3884   46.1596  128.5595 C   0  0  0  0  0  0  0  0  0  0  0  0
    9.4780   46.0958  129.6106 C   0  0  0  0  0  0  0  0  0  0  0  0
    8.6712   44.9186  131.9617 C   0  0  0  0  0  0  0  0  0  0  0  0
    7.8657   45.3770  132.7956 O   0  0  0  0  0  0  0  0  0  0  0  0
    9.0753   45.5055  130.7866 N   0  0  0  0  0  0  0  0  0  0  0  0
    8.1568   46.5005  130.9752 H   0  0  0  0  0  0  0  0  0  0  0  0
    9.2385   43.5672  132.3296 C   0  0  0  0  0  0  0  0  0  0  0  0
   10.3771   43.2332  130.1743 C   0  0  0  0  0  0  0  0  0  0  0  0
    9.4738   42.6427  131.2115 C   0  0  0  0  0  0  0  0  0  0  0  0
    8.2041   42.0504  130.6228 C   0  0  0  0  0  0  0  0  0  0  0  0
   10.1948   41.5312  131.7773 O   0  0  0  0  0  0  0  0  0  0  0  0
    9.7791   41.3749  132.6677 H   0  0  0  0  0  0  0  0  0  0  0  0
 38 39  1  0  0  0
 39 40  1  0  0  0
 39 41  1  0  0  0
 39 37  1  0  0  0
 37 33  1  0  0  0
 33 34  2  0  0  0
 33 35  1  0  0  0
 35 32  1  0  0  0
 32 31  1  0  0  0
 31  1  1  0  0  0
  1  2  2  0  0  0
  2  3  1  0  0  0
  3  4  2  0  0  0
  4  5  1  0  0  0
  5  6  2  0  0  0
  6  7  1  0  0  0
  7  8  2  0  0  0
  8 11  1  0  0  0
 11 13  1  0  0  0
 13 14  2  0  0  0
 14 15  1  0  0  0
 15 16  2  0  0  0
 16 20  1  0  0  0
 20 21  1  0  0  0
 21 22  2  0  0  0
 22 23  1  0  0  0
 23 24  2  0  0  0
 24 25  1  0  0  0
 25 27  1  0  0  0
 27 28  1  0  0  0
 27 29  1  0  0  0
 27 30  1  0  0  0
 25 26  2  0  0  0
 16 17  1  0  0  0
 17 18  1  0  0  0
 17 19  2  0  0  0
  8  9  1  0  0  0
  9 10  2  0  0  0
 10  1  1  0  0  0
  9  4  1  0  0  0
 19 13  1  0  0  0
 26 21  1  0  0  0
 41 42  1  0  0  0
 35 36  1  0  0  0
 11 12  1  0  0  0
M  END
> <minimizedAffinity>
2.88508

> <CNNscore>
0.4402633607

> <CNNaffinity>
8.2229461670

> <CNN_VS>
3.6202619076

> <CNNaffinity_variance>
0.3299126625

$$$$
[H]OC(C([H])([H])[H])(C([H])([H])[H])C([H])([H])C(=O)N([H])C([H])([H])C([H])([H])c1c([H])c([H])c2nc([H])nc(N([H])c3c([H])c([H])c(Oc4c([H])c([H])c([H])c(C(F)(F)F)c4[H])c(Cl)c3[H])c2c1[H]


 42 45  0  0  0  0  0  0  0  0999 V2000
    9.7955   42.3779  129.9738 C   0  0  0  0  0  0  0  0  0  0  0  0
    9.1487   41.3428  130.5875 C   0  0  0  0  0  0  0  0  0  0  0  0
    8.6783   41.4699  131.8577 C   0  0  0  0  0  0  0  0  0  0  0  0
    8.8421   42.6481  132.5734 C   0  0  0  0  0  0  0  0  0  0  0  0
    8.3616   42.6926  133.8324 N   0  0  0  0  0  0  0  0  0  0  0  0
    8.5287   43.8159  134.5447 C   0  0  0  0  0  0  0  0  0  0  0  0
    9.1660   44.8182  133.9518 N   0  0  0  0  0  0  0  0  0  0  0  0
    9.6646   44.8545  132.7262 C   0  0  0  0  0  0  0  0  0  0  0  0
    9.4980   43.6939  131.9606 C   0  0  0  0  0  0  0  0  0  0  0  0
    9.9682   43.5825  130.6929 C   0  0  0  0  0  0  0  0  0  0  0  0
   10.3868   45.9495  132.2184 N   0  0  0  0  0  0  0  0  0  0  0  0
   11.2062   45.8362  131.5681 H   0  0  0  0  0  0  0  0  0  0  0  0
   10.0761   47.2952  132.5477 C   0  0  0  0  0  0  0  0  0  0  0  0
   10.5622   47.9694  133.6243 C   0  0  0  0  0  0  0  0  0  0  0  0
   10.3058   49.3277  133.8328 C   0  0  0  0  0  0  0  0  0  0  0  0
    9.5185   50.0426  132.9128 C   0  0  0  0  0  0  0  0  0  0  0  0
    9.0135   49.3764  131.8200 C   0  0  0  0  0  0  0  0  0  0  0  0
    7.9923   50.2043  130.6284 Cl  0  0  0  0  0  0  0  0  0  0  0  0
    9.2995   48.0390  131.6632 C   0  0  0  0  0  0  0  0  0  0  0  0
    9.3171   51.3456  133.1674 O   0  0  0  0  0  0  0  0  0  0  0  0
    9.8272   52.2886  133.9771 C   0  0  0  0  0  0  0  0  0  0  0  0
    9.0431   52.7416  135.0510 C   0  0  0  0  0  0  0  0  0  0  0  0
    9.5420   53.6982  135.8889 C   0  0  0  0  0  0  0  0  0  0  0  0
   10.8039   54.2066  135.6713 C   0  0  0  0  0  0  0  0  0  0  0  0
   11.5966   53.7863  134.6277 C   0  0  0  0  0  0  0  0  0  0  0  0
   11.1056   52.8269  133.7840 C   0  0  0  0  0  0  0  0  0  0  0  0
   12.9376   54.4043  134.4507 C   0  0  0  0  0  0  0  0  0  0  0  0
   12.8053   55.6313  133.7719 F   0  0  0  0  0  0  0  0  0  0  0  0
   13.4256   54.7122  135.7039 F   0  0  0  0  0  0  0  0  0  0  0  0
   13.8133   53.5700  133.8161 F   0  0  0  0  0  0  0  0  0  0  0  0
   10.3533   42.2671  128.6460 C   0  0  0  0  0  0  0  0  0  0  0  0
   11.0874   43.4767  128.1039 C   0  0  0  0  0  0  0  0  0  0  0  0
    9.4553   45.6432  127.6486 C   0  0  0  0  0  0  0  0  0  0  0  0
    8.9205   45.9696  126.5708 O   0  0  0  0  0  0  0  0  0  0  0  0
   10.2709   44.5611  127.8777 N   0  0  0  0  0  0  0  0  0  0  0  0
   10.0225   44.1136  126.6099 H   0  0  0  0  0  0  0  0  0  0  0  0
    9.1425   46.5716  128.7992 C   0  0  0  0  0  0  0  0  0  0  0  0
   10.0785   48.8217  129.1363 C   0  0  0  0  0  0  0  0  0  0  0  0
    9.0270   47.9974  128.4617 C   0  0  0  0  0  0  0  0  0  0  0  0
    7.6274   48.5623  128.6398 C   0  0  0  0  0  0  0  0  0  0  0  0
    9.3033   48.0818  127.0505 O   0  0  0  0  0  0  0  0  0  0  0  0
    8.8620   47.2856  126.6487 H   0  0  0  0  0  0  0  0  0  0  0  0
 38 39  1  0  0  0
 39 40  1  0  0  0
 39 41  1  0  0  0
 39 37  1  0  0  0
 37 33  1  0  0  0
 33 34  2  0  0  0
 33 35  1  0  0  0
 35 32  1  0  0  0
 32 31  1  0  0  0
 31  1  1  0  0  0
  1  2  2  0  0  0
  2  3  1  0  0  0
  3  4  2  0  0  0
  4  5  1  0  0  0
  5  6  2  0  0  0
  6  7  1  0  0  0
  7  8  2  0  0  0
  8 11  1  0  0  0
 11 13  1  0  0  0
 13 14  2  0  0  0
 14 15  1  0  0  0
 15 16  2  0  0  0
 16 20  1  0  0  0
 20 21  1  0  0  0
 21 22  2  0  0  0
 22 23  1  0  0  0
 23 24  2  0  0  0
 24 25  1  0  0  0
 25 27  1  0  0  0
 27 28  1  0  0  0
 27 29  1  0  0  0
 27 30  1  0  0  0
 25 26  2  0  0  0
 16 17  1  0  0  0
 17 18  1  0  0  0
 17 19  2  0  0  0
  8  9  1  0  0  0
  9 10  2  0  0  0
 10  1  1  0  0  0
  9  4  1  0  0  0
 19 13  1  0  0  0
 26 21  1  0  0  0
 41 42  1  0  0  0
 35 36  1  0  0  0
 11 12  1  0  0  0
M  END
> <minimizedAffinity>
31.84089

> <CNNscore>
0.4220184088

> <CNNaffinity>
7.4643707275

> <CNN_VS>
3.1501019001

> <CNNaffinity_variance>
0.9897364378

$$$$
[H]OC(C([H])([H])[H])(C([H])([H])[H])C([H])([H])C(=O)N([H])C([H])([H])C([H])([H])c1c([H])c([H])c2nc([H])nc(N([H])c3c([H])c([H])c(Oc4c([H])c([H])c([H])c(C(F)(F)F)c4[H])c(Cl)c3[H])c2c1[H]


 42 45  0  0  0  0  0  0  0  0999 V2000
   10.4147   44.0983  128.9470 C   0  0  0  0  0  0  0  0  0  0  0  0
    9.1320   43.8280  128.5623 C   0  0  0  0  0  0  0  0  0  0  0  0
    8.0807   44.1593  129.3598 C   0  0  0  0  0  0  0  0  0  0  0  0
    8.2732   44.7764  130.5883 C   0  0  0  0  0  0  0  0  0  0  0  0
    7.1826   45.0605  131.3285 N   0  0  0  0  0  0  0  0  0  0  0  0
    7.3517   45.6384  132.5262 C   0  0  0  0  0  0  0  0  0  0  0  0
    8.5986   45.8920  132.9042 N   0  0  0  0  0  0  0  0  0  0  0  0
    9.7168   45.6465  132.2397 C   0  0  0  0  0  0  0  0  0  0  0  0
    9.5656   45.0473  130.9832 C   0  0  0  0  0  0  0  0  0  0  0  0
   10.6230   44.7264  130.1960 C   0  0  0  0  0  0  0  0  0  0  0  0
   10.9977   45.8935  132.7655 N   0  0  0  0  0  0  0  0  0  0  0  0
   11.7890   45.2055  132.6786 H   0  0  0  0  0  0  0  0  0  0  0  0
   11.3259   47.0856  133.4635 C   0  0  0  0  0  0  0  0  0  0  0  0
   12.3681   47.2253  134.3263 C   0  0  0  0  0  0  0  0  0  0  0  0
   12.7049   48.4561  134.8973 C   0  0  0  0  0  0  0  0  0  0  0  0
   11.9535   49.6032  134.5860 C   0  0  0  0  0  0  0  0  0  0  0  0
   10.8923   49.4808  133.7189 C   0  0  0  0  0  0  0  0  0  0  0  0
    9.8829   50.8775  133.2966 Cl  0  0  0  0  0  0  0  0  0  0  0  0
   10.6068   48.2447  133.1844 C   0  0  0  0  0  0  0  0  0  0  0  0
   12.3346   50.7550  135.1618 O   0  0  0  0  0  0  0  0  0  0  0  0
   13.0226   51.8563  134.8172 C   0  0  0  0  0  0  0  0  0  0  0  0
   14.2026   51.6999  134.0713 C   0  0  0  0  0  0  0  0  0  0  0  0
   14.9174   52.8057  133.7075 C   0  0  0  0  0  0  0  0  0  0  0  0
   14.4747   54.0574  134.0757 C   0  0  0  0  0  0  0  0  0  0  0  0
   13.3246   54.2450  134.8079 C   0  0  0  0  0  0  0  0  0  0  0  0
   12.6011   53.1429  135.1755 C   0  0  0  0  0  0  0  0  0  0  0  0
   12.9306   55.6289  135.1837 C   0  0  0  0  0  0  0  0  0  0  0  0
   11.9270   55.5817  136.1708 F   0  0  0  0  0  0  0  0  0  0  0  0
   14.0221   56.2284  135.7776 F   0  0  0  0  0  0  0  0  0  0  0  0
   12.5398   56.3680  134.1037 F   0  0  0  0  0  0  0  0  0  0  0  0
   11.5600   43.7182  128.1529 C   0  0  0  0  0  0  0  0  0  0  0  0
   11.2844   43.1217  126.7876 C   0  0  0  0  0  0  0  0  0  0  0  0
   13.4039   41.7041  125.7566 C   0  0  0  0  0  0  0  0  0  0  0  0
   14.2943   42.1290  124.9943 O   0  0  0  0  0  0  0  0  0  0  0  0
   12.3444   42.4111  126.2726 N   0  0  0  0  0  0  0  0  0  0  0  0
   12.8590   43.5597  125.7385 H   0  0  0  0  0  0  0  0  0  0  0  0
   13.5495   40.2455  126.1234 C   0  0  0  0  0  0  0  0  0  0  0  0
   11.2419   39.4055  125.9740 C   0  0  0  0  0  0  0  0  0  0  0  0
   12.6376   39.3167  125.4408 C   0  0  0  0  0  0  0  0  0  0  0  0
   13.1530   37.8890  125.3660 C   0  0  0  0  0  0  0  0  0  0  0  0
   12.5701   39.7771  124.0775 O   0  0  0  0  0  0  0  0  0  0  0  0
   13.4973   40.0564  123.8487 H   0  0  0  0  0  0  0  0  0  0  0  0
 38 39  1  0  0  0
 39 40  1  0  0  0
 39 41  1  0  0  0
 39 37  1  0  0  0
 37 33  1  0  0  0
 33 34  2  0  0  0
 33 35  1  0  0  0
 35 32  1  0  0  0
 32 31  1  0  0  0
 31  1  1  0  0  0
  1  2  2  0  0  0
  2  3  1  0  0  0
  3  4  2  0  0  0
  4  5  1  0  0  0
  5  6  2  0  0  0
  6  7  1  0  0  0
  7  8  2  0  0  0
  8 11  1  0  0  0
 11 13  1  0  0  0
 13 14  2  0  0  0
 14 15  1  0  0  0
 15 16  2  0  0  0
 16 20  1  0  0  0
 20 21  1  0  0  0
 21 22  2  0  0  0
 22 23  1  0  0  0
 23 24  2  0  0  0
 24 25  1  0  0  0
 25 27  1  0  0  0
 27 28  1  0  0  0
 27 29  1  0  0  0
 27 30  1  0  0  0
 25 26  2  0  0  0
 16 17  1  0  0  0
 17 18  1  0  0  0
 17 19  2  0  0  0
  8  9  1  0  0  0
  9 10  2  0  0  0
 10  1  1  0  0  0
  9  4  1  0  0  0
 19 13  1  0  0  0
 26 21  1  0  0  0
 41 42  1  0  0  0
 35 36  1  0  0  0
 11 12  1  0  0  0
M  END
> <minimizedAffinity>
39.31102

> <CNNscore>
0.2980044782

> <CNNaffinity>
6.8450517654

> <CNN_VS>
2.0398561954

> <CNNaffinity_variance>
0.5186781883

$$$$
[H]OC(C([H])([H])[H])(C([H])([H])[H])C([H])([H])C(=O)N([H])C([H])([H])C([H])([H])c1c([H])c([H])c2nc([H])nc(N([H])c3c([H])c([H])c(Oc4c([H])c([H])c([H])c(C(F)(F)F)c4[H])c(Cl)c3[H])c2c1[H]


 42 45  0  0  0  0  0  0  0  0999 V2000
    7.3864   47.2386  128.8245 C   0  0  0  0  0  0  0  0  0  0  0  0
    6.1357   47.0174  128.3212 C   0  0  0  0  0  0  0  0  0  0  0  0
    5.1373   47.9216  128.5128 C   0  0  0  0  0  0  0  0  0  0  0  0
    5.3517   49.0928  129.2266 C   0  0  0  0  0  0  0  0  0  0  0  0
    4.3092   49.9328  129.3867 N   0  0  0  0  0  0  0  0  0  0  0  0
    4.4936   51.0589  130.0904 C   0  0  0  0  0  0  0  0  0  0  0  0
    5.7062   51.2689  130.5878 N   0  0  0  0  0  0  0  0  0  0  0  0
    6.7770   50.4989  130.4755 C   0  0  0  0  0  0  0  0  0  0  0  0
    6.6104   49.3187  129.7404 C   0  0  0  0  0  0  0  0  0  0  0  0
    7.6163   48.4278  129.5532 C   0  0  0  0  0  0  0  0  0  0  0  0
    8.0024   50.7835  131.1044 N   0  0  0  0  0  0  0  0  0  0  0  0
    8.3721   51.7629  131.2094 H   0  0  0  0  0  0  0  0  0  0  0  0
    8.8445   49.7739  131.6406 C   0  0  0  0  0  0  0  0  0  0  0  0
   10.0929   49.4757  131.1904 C   0  0  0  0  0  0  0  0  0  0  0  0
   10.9156   48.5452  131.8319 C   0  0  0  0  0  0  0  0  0  0  0  0
   10.4578   47.8797  132.9829 C   0  0  0  0  0  0  0  0  0  0  0  0
    9.1956   48.1643  133.4506 C   0  0  0  0  0  0  0  0  0  0  0  0
    8.5389   47.3482  134.8827 Cl  0  0  0  0  0  0  0  0  0  0  0  0
    8.4291   49.0910  132.7807 C   0  0  0  0  0  0  0  0  0  0  0  0
   11.3001   47.0044  133.5553 O   0  0  0  0  0  0  0  0  0  0  0  0
   11.8723   45.8294  133.2439 C   0  0  0  0  0  0  0  0  0  0  0  0
   12.2199   44.9585  134.2899 C   0  0  0  0  0  0  0  0  0  0  0  0
   12.8006   43.7571  133.9971 C   0  0  0  0  0  0  0  0  0  0  0  0
   13.0385   43.4150  132.6839 C   0  0  0  0  0  0  0  0  0  0  0  0
   12.7122   44.2459  131.6364 C   0  0  0  0  0  0  0  0  0  0  0  0
   12.1285   45.4509  131.9202 C   0  0  0  0  0  0  0  0  0  0  0  0
   13.0250   43.8095  130.2496 C   0  0  0  0  0  0  0  0  0  0  0  0
   12.1263   42.7975  129.8598 F   0  0  0  0  0  0  0  0  0  0  0  0
   12.7844   44.8776  129.4101 F   0  0  0  0  0  0  0  0  0  0  0  0
   14.3237   43.4094  130.1125 F   0  0  0  0  0  0  0  0  0  0  0  0
    8.4595   46.2816  128.6863 C   0  0  0  0  0  0  0  0  0  0  0  0
    9.1744   45.8602  129.9542 C   0  0  0  0  0  0  0  0  0  0  0  0
    8.9665   43.1704  130.4898 C   0  0  0  0  0  0  0  0  0  0  0  0
    8.3576   42.3140  129.8190 O   0  0  0  0  0  0  0  0  0  0  0  0
    9.0714   44.5146  130.2235 N   0  0  0  0  0  0  0  0  0  0  0  0
    8.4460   44.3191  129.0235 H   0  0  0  0  0  0  0  0  0  0  0  0
    9.6468   42.6204  131.7219 C   0  0  0  0  0  0  0  0  0  0  0  0
    7.7091   42.1237  133.1543 C   0  0  0  0  0  0  0  0  0  0  0  0
    8.9808   42.8984  133.0023 C   0  0  0  0  0  0  0  0  0  0  0  0
    8.8114   44.3787  133.3012 C   0  0  0  0  0  0  0  0  0  0  0  0
    9.8728   42.3970  134.0162 O   0  0  0  0  0  0  0  0  0  0  0  0
   10.7869   42.6304  133.7000 H   0  0  0  0  0  0  0  0  0  0  0  0
 38 39  1  0  0  0
 39 40  1  0  0  0
 39 41  1  0  0  0
 39 37  1  0  0  0
 37 33  1  0  0  0
 33 34  2  0  0  0
 33 35  1  0  0  0
 35 32  1  0  0  0
 32 31  1  0  0  0
 31  1  1  0  0  0
  1  2  2  0  0  0
  2  3  1  0  0  0
  3  4  2  0  0  0
  4  5  1  0  0  0
  5  6  2  0  0  0
  6  7  1  0  0  0
  7  8  2  0  0  0
  8 11  1  0  0  0
 11 13  1  0  0  0
 13 14  2  0  0  0
 14 15  1  0  0  0
 15 16  2  0  0  0
 16 20  1  0  0  0
 20 21  1  0  0  0
 21 22  2  0  0  0
 22 23  1  0  0  0
 23 24  2  0  0  0
 24 25  1  0  0  0
 25 27  1  0  0  0
 27 28  1  0  0  0
 27 29  1  0  0  0
 27 30  1  0  0  0
 25 26  2  0  0  0
 16 17  1  0  0  0
 17 18  1  0  0  0
 17 19  2  0  0  0
  8  9  1  0  0  0
  9 10  2  0  0  0
 10  1  1  0  0  0
  9  4  1  0  0  0
 19 13  1  0  0  0
 26 21  1  0  0  0
 41 42  1  0  0  0
 35 36  1  0  0  0
 11 12  1  0  0  0
M  END
> <minimizedAffinity>
1.15756

> <CNNscore>
0.2919672132

> <CNNaffinity>
8.0220108032

> <CNN_VS>
2.3421640396

> <CNNaffinity_variance>
0.4959095120

$$$$
[H]OC(C([H])([H])[H])(C([H])([H])[H])C([H])([H])C(=O)N([H])C([H])([H])C([H])([H])c1c([H])c([H])c2nc([H])nc(N([H])c3c([H])c([H])c(Oc4c([H])c([H])c([H])c(C(F)(F)F)c4[H])c(Cl)c3[H])c2c1[H]


 42 45  0  0  0  0  0  0  0  0999 V2000
   10.6383   44.5911  128.7856 C   0  0  0  0  0  0  0  0  0  0  0  0
    9.8843   43.8047  127.9611 C   0  0  0  0  0  0  0  0  0  0  0  0
    9.6041   42.5152  128.2923 C   0  0  0  0  0  0  0  0  0  0  0  0
   10.0758   41.9542  129.4713 C   0  0  0  0  0  0  0  0  0  0  0  0
    9.7685   40.6657  129.7230 N   0  0  0  0  0  0  0  0  0  0  0  0
   10.2325   40.1023  130.8475 C   0  0  0  0  0  0  0  0  0  0  0  0
   10.9734   40.8635  131.6435 N   0  0  0  0  0  0  0  0  0  0  0  0
   11.3178   42.1297  131.4700 C   0  0  0  0  0  0  0  0  0  0  0  0
   10.8408   42.7418  130.3044 C   0  0  0  0  0  0  0  0  0  0  0  0
   11.1241   44.0305  129.9888 C   0  0  0  0  0  0  0  0  0  0  0  0
   12.1693   42.8256  132.3468 N   0  0  0  0  0  0  0  0  0  0  0  0
   13.0683   42.4159  132.7089 H   0  0  0  0  0  0  0  0  0  0  0  0
   11.8825   44.1324  132.8221 C   0  0  0  0  0  0  0  0  0  0  0  0
   12.5241   45.2659  132.4302 C   0  0  0  0  0  0  0  0  0  0  0  0
   12.1210   46.5362  132.8522 C   0  0  0  0  0  0  0  0  0  0  0  0
   11.0180   46.6721  133.7138 C   0  0  0  0  0  0  0  0  0  0  0  0
   10.3592   45.5365  134.1253 C   0  0  0  0  0  0  0  0  0  0  0  0
    8.9742   45.6254  135.2308 Cl  0  0  0  0  0  0  0  0  0  0  0  0
   10.7980   44.3112  133.6769 C   0  0  0  0  0  0  0  0  0  0  0  0
   10.6780   47.9201  134.0748 O   0  0  0  0  0  0  0  0  0  0  0  0
   10.1993   49.0279  133.4845 C   0  0  0  0  0  0  0  0  0  0  0  0
    9.6664   48.9169  132.1895 C   0  0  0  0  0  0  0  0  0  0  0  0
    9.1716   50.0296  131.5705 C   0  0  0  0  0  0  0  0  0  0  0  0
    9.2016   51.2439  132.2207 C   0  0  0  0  0  0  0  0  0  0  0  0
    9.7186   51.3871  133.4882 C   0  0  0  0  0  0  0  0  0  0  0  0
   10.2151   50.2774  134.1169 C   0  0  0  0  0  0  0  0  0  0  0  0
    9.7340   52.7386  134.1087 C   0  0  0  0  0  0  0  0  0  0  0  0
    9.1209   53.6628  133.2406 F   0  0  0  0  0  0  0  0  0  0  0  0
    8.9411   52.6906  135.2367 F   0  0  0  0  0  0  0  0  0  0  0  0
   10.9939   53.1347  134.4571 F   0  0  0  0  0  0  0  0  0  0  0  0
   10.9998   45.9481  128.4474 C   0  0  0  0  0  0  0  0  0  0  0  0
   10.3582   47.0548  129.2596 C   0  0  0  0  0  0  0  0  0  0  0  0
    7.8391   46.4300  130.1701 C   0  0  0  0  0  0  0  0  0  0  0  0
    7.3841   45.2935  130.4057 O   0  0  0  0  0  0  0  0  0  0  0  0
    9.0974   46.7438  129.7153 N   0  0  0  0  0  0  0  0  0  0  0  0
    9.4645   45.4332  129.8459 H   0  0  0  0  0  0  0  0  0  0  0  0
    6.8607   47.5524  130.4278 C   0  0  0  0  0  0  0  0  0  0  0  0
    7.5061   49.1424  128.6648 C   0  0  0  0  0  0  0  0  0  0  0  0
    6.4131   48.2996  129.2439 C   0  0  0  0  0  0  0  0  0  0  0  0
    5.1195   49.0693  129.4526 C   0  0  0  0  0  0  0  0  0  0  0  0
    6.1148   47.3010  128.2495 O   0  0  0  0  0  0  0  0  0  0  0  0
    5.6784   46.5578  128.7467 H   0  0  0  0  0  0  0  0  0  0  0  0
 38 39  1  0  0  0
 39 40  1  0  0  0
 39 41  1  0  0  0
 39 37  1  0  0  0
 37 33  1  0  0  0
 33 34  2  0  0  0
 33 35  1  0  0  0
 35 32  1  0  0  0
 32 31  1  0  0  0
 31  1  1  0  0  0
  1  2  2  0  0  0
  2  3  1  0  0  0
  3  4  2  0  0  0
  4  5  1  0  0  0
  5  6  2  0  0  0
  6  7  1  0  0  0
  7  8  2  0  0  0
  8 11  1  0  0  0
 11 13  1  0  0  0
 13 14  2  0  0  0
 14 15  1  0  0  0
 15 16  2  0  0  0
 16 20  1  0  0  0
 20 21  1  0  0  0
 21 22  2  0  0  0
 22 23  1  0  0  0
 23 24  2  0  0  0
 24 25  1  0  0  0
 25 27  1  0  0  0
 27 28  1  0  0  0
 27 29  1  0  0  0
 27 30  1  0  0  0
 25 26  2  0  0  0
 16 17  1  0  0  0
 17 18  1  0  0  0
 17 19  2  0  0  0
  8  9  1  0  0  0
  9 10  2  0  0  0
 10  1  1  0  0  0
  9  4  1  0  0  0
 19 13  1  0  0  0
 26 21  1  0  0  0
 41 42  1  0  0  0
 35 36  1  0  0  0
 11 12  1  0  0  0
M  END
> <minimizedAffinity>
11.80992

> <CNNscore>
0.2798159420

> <CNNaffinity>
7.7614297867

> <CNN_VS>
2.1717717648

> <CNNaffinity_variance>
0.1759467125

$$$$
[H]OC(C([H])([H])[H])(C([H])([H])[H])C([H])([H])C(=O)N([H])C([H])([H])C([H])([H])c1c([H])c([H])c2nc([H])nc(N([H])c3c([H])c([H])c(Oc4c([H])c([H])c([H])c(C(F)(F)F)c4[H])c(Cl)c3[H])c2c1[H]


 42 45  0  0  0  0  0  0  0  0999 V2000
   10.8638   43.6146  129.1218 C   0  0  0  0  0  0  0  0  0  0  0  0
   10.0147   42.5480  129.0334 C   0  0  0  0  0  0  0  0  0  0  0  0
    9.2631   42.1651  130.1008 C   0  0  0  0  0  0  0  0  0  0  0  0
    9.3353   42.8381  131.3128 C   0  0  0  0  0  0  0  0  0  0  0  0
    8.5705   42.3900  132.3288 N   0  0  0  0  0  0  0  0  0  0  0  0
    8.6428   43.0161  133.5120 C   0  0  0  0  0  0  0  0  0  0  0  0
    9.4752   44.0463  133.6008 N   0  0  0  0  0  0  0  0  0  0  0  0
   10.2554   44.5464  132.6556 C   0  0  0  0  0  0  0  0  0  0  0  0
   10.1938   43.9120  131.4088 C   0  0  0  0  0  0  0  0  0  0  0  0
   10.9458   44.3075  130.3511 C   0  0  0  0  0  0  0  0  0  0  0  0
   11.1563   45.6036  132.8771 N   0  0  0  0  0  0  0  0  0  0  0  0
   12.1965   45.4586  132.9406 H   0  0  0  0  0  0  0  0  0  0  0  0
   10.7367   46.9499  133.0420 C   0  0  0  0  0  0  0  0  0  0  0  0
   10.7876   47.6480  134.2083 C   0  0  0  0  0  0  0  0  0  0  0  0
   10.4628   49.0058  134.2806 C   0  0  0  0  0  0  0  0  0  0  0  0
   10.0646   49.6948  133.1213 C   0  0  0  0  0  0  0  0  0  0  0  0
   10.0022   49.0043  131.9329 C   0  0  0  0  0  0  0  0  0  0  0  0
    9.4857   49.7988  130.4328 Cl  0  0  0  0  0  0  0  0  0  0  0  0
   10.3351   47.6687  131.9191 C   0  0  0  0  0  0  0  0  0  0  0  0
    9.7745   50.9988  133.2579 O   0  0  0  0  0  0  0  0  0  0  0  0
   10.2976   52.0724  133.8734 C   0  0  0  0  0  0  0  0  0  0  0  0
    9.4317   52.9263  134.5766 C   0  0  0  0  0  0  0  0  0  0  0  0
    9.9414   54.0227  135.2124 C   0  0  0  0  0  0  0  0  0  0  0  0
   11.2942   54.2781  135.1560 C   0  0  0  0  0  0  0  0  0  0  0  0
   12.1689   53.4632  134.4741 C   0  0  0  0  0  0  0  0  0  0  0  0
   11.6673   52.3614  133.8356 C   0  0  0  0  0  0  0  0  0  0  0  0
   13.6112   53.8244  134.4437 C   0  0  0  0  0  0  0  0  0  0  0  0
   13.9291   54.3901  133.1936 F   0  0  0  0  0  0  0  0  0  0  0  0
   13.8130   54.8212  135.3760 F   0  0  0  0  0  0  0  0  0  0  0  0
   14.4181   52.7617  134.7350 F   0  0  0  0  0  0  0  0  0  0  0  0
   11.7152   44.0222  128.0283 C   0  0  0  0  0  0  0  0  0  0  0  0
   11.4153   43.4327  126.6650 C   0  0  0  0  0  0  0  0  0  0  0  0
   13.3436   41.6868  125.7714 C   0  0  0  0  0  0  0  0  0  0  0  0
   14.2866   41.9392  124.9960 O   0  0  0  0  0  0  0  0  0  0  0  0
   12.3794   42.5579  126.2189 N   0  0  0  0  0  0  0  0  0  0  0  0
   13.0407   43.5905  125.6139 H   0  0  0  0  0  0  0  0  0  0  0  0
   13.2987   40.2517  126.2423 C   0  0  0  0  0  0  0  0  0  0  0  0
   11.2506   39.4483  125.1410 C   0  0  0  0  0  0  0  0  0  0  0  0
   12.7301   39.2818  125.2956 C   0  0  0  0  0  0  0  0  0  0  0  0
   13.1389   37.8433  125.5657 C   0  0  0  0  0  0  0  0  0  0  0  0
   13.3013   39.6142  124.0156 O   0  0  0  0  0  0  0  0  0  0  0  0
   14.2487   39.8521  124.2050 H   0  0  0  0  0  0  0  0  0  0  0  0
 38 39  1  0  0  0
 39 40  1  0  0  0
 39 41  1  0  0  0
 39 37  1  0  0  0
 37 33  1  0  0  0
 33 34  2  0  0  0
 33 35  1  0  0  0
 35 32  1  0  0  0
 32 31  1  0  0  0
 31  1  1  0  0  0
  1  2  2  0  0  0
  2  3  1  0  0  0
  3  4  2  0  0  0
  4  5  1  0  0  0
  5  6  2  0  0  0
  6  7  1  0  0  0
  7  8  2  0  0  0
  8 11  1  0  0  0
 11 13  1  0  0  0
 13 14  2  0  0  0
 14 15  1  0  0  0
 15 16  2  0  0  0
 16 20  1  0  0  0
 20 21  1  0  0  0
 21 22  2  0  0  0
 22 23  1  0  0  0
 23 24  2  0  0  0
 24 25  1  0  0  0
 25 27  1  0  0  0
 27 28  1  0  0  0
 27 29  1  0  0  0
 27 30  1  0  0  0
 25 26  2  0  0  0
 16 17  1  0  0  0
 17 18  1  0  0  0
 17 19  2  0  0  0
  8  9  1  0  0  0
  9 10  2  0  0  0
 10  1  1  0  0  0
  9  4  1  0  0  0
 19 13  1  0  0  0
 26 21  1  0  0  0
 41 42  1  0  0  0
 35 36  1  0  0  0
 11 12  1  0  0  0
M  END
> <minimizedAffinity>
33.63012

> <CNNscore>
0.2451407313

> <CNNaffinity>
7.2003569603

> <CNN_VS>
1.7651007175

> <CNNaffinity_variance>
0.3993809819

$$$$
[H]OC(C([H])([H])[H])(C([H])([H])[H])C([H])([H])C(=O)N([H])C([H])([H])C([H])([H])c1c([H])c([H])c2nc([H])nc(N([H])c3c([H])c([H])c(Oc4c([H])c([H])c([H])c(C(F)(F)F)c4[H])c(Cl)c3[H])c2c1[H]


 42 45  0  0  0  0  0  0  0  0999 V2000
   11.1813   43.7350  130.0417 C   0  0  0  0  0  0  0  0  0  0  0  0
   11.7492   42.9068  130.9680 C   0  0  0  0  0  0  0  0  0  0  0  0
   11.7558   43.2377  132.2877 C   0  0  0  0  0  0  0  0  0  0  0  0
   11.1928   44.4245  132.7369 C   0  0  0  0  0  0  0  0  0  0  0  0
   11.2514   44.6893  134.0576 N   0  0  0  0  0  0  0  0  0  0  0  0
   10.7302   45.8403  134.5059 C   0  0  0  0  0  0  0  0  0  0  0  0
   10.1874   46.6494  133.6045 N   0  0  0  0  0  0  0  0  0  0  0  0
   10.0895   46.4636  132.2976 C   0  0  0  0  0  0  0  0  0  0  0  0
   10.6227   45.2657  131.8059 C   0  0  0  0  0  0  0  0  0  0  0  0
   10.6050   44.9462  130.4875 C   0  0  0  0  0  0  0  0  0  0  0  0
    9.5540   47.4226  131.4191 N   0  0  0  0  0  0  0  0  0  0  0  0
   10.0619   48.3096  131.1695 H   0  0  0  0  0  0  0  0  0  0  0  0
    8.2822   47.2776  130.8046 C   0  0  0  0  0  0  0  0  0  0  0  0
    7.5830   46.1142  130.7185 C   0  0  0  0  0  0  0  0  0  0  0  0
    6.2863   46.0590  130.1991 C   0  0  0  0  0  0  0  0  0  0  0  0
    5.6632   47.2335  129.7411 C   0  0  0  0  0  0  0  0  0  0  0  0
    6.3567   48.4195  129.8154 C   0  0  0  0  0  0  0  0  0  0  0  0
    5.6467   49.9387  129.2357 Cl  0  0  0  0  0  0  0  0  0  0  0  0
    7.6302   48.4160  130.3380 C   0  0  0  0  0  0  0  0  0  0  0  0
    4.4147   47.1127  129.2617 O   0  0  0  0  0  0  0  0  0  0  0  0
    3.2758   46.4886  129.6058 C   0  0  0  0  0  0  0  0  0  0  0  0
    2.9915   46.3241  130.9716 C   0  0  0  0  0  0  0  0  0  0  0  0
    1.8381   45.6946  131.3453 C   0  0  0  0  0  0  0  0  0  0  0  0
    0.9703   45.2293  130.3817 C   0  0  0  0  0  0  0  0  0  0  0  0
    1.2200   45.3723  129.0358 C   0  0  0  0  0  0  0  0  0  0  0  0
    2.3724   46.0032  128.6521 C   0  0  0  0  0  0  0  0  0  0  0  0
    0.2418   44.8199  128.0614 C   0  0  0  0  0  0  0  0  0  0  0  0
   -0.2571   45.8598  127.2531 F   0  0  0  0  0  0  0  0  0  0  0  0
    0.9269   43.9734  127.2144 F   0  0  0  0  0  0  0  0  0  0  0  0
   -0.7660   44.1302  128.6731 F   0  0  0  0  0  0  0  0  0  0  0  0
   11.1975   43.4445  128.6267 C   0  0  0  0  0  0  0  0  0  0  0  0
    9.9226   42.8920  128.0222 C   0  0  0  0  0  0  0  0  0  0  0  0
   10.2581   40.4725  126.7579 C   0  0  0  0  0  0  0  0  0  0  0  0
    9.4275   39.8725  126.0478 O   0  0  0  0  0  0  0  0  0  0  0  0
   10.0921   41.6814  127.3902 N   0  0  0  0  0  0  0  0  0  0  0  0
    8.8866   41.8361  126.7638 H   0  0  0  0  0  0  0  0  0  0  0  0
   11.5765   39.7499  126.9103 C   0  0  0  0  0  0  0  0  0  0  0  0
   13.1193   40.0009  125.0104 C   0  0  0  0  0  0  0  0  0  0  0  0
   12.1130   39.1272  125.6918 C   0  0  0  0  0  0  0  0  0  0  0  0
   11.0458   38.6038  124.7449 C   0  0  0  0  0  0  0  0  0  0  0  0
   12.8373   37.9658  126.1409 O   0  0  0  0  0  0  0  0  0  0  0  0
   12.2859   37.5800  126.8739 H   0  0  0  0  0  0  0  0  0  0  0  0
 38 39  1  0  0  0
 39 40  1  0  0  0
 39 41  1  0  0  0
 39 37  1  0  0  0
 37 33  1  0  0  0
 33 34  2  0  0  0
 33 35  1  0  0  0
 35 32  1  0  0  0
 32 31  1  0  0  0
 31  1  1  0  0  0
  1  2  2  0  0  0
  2  3  1  0  0  0
  3  4  2  0  0  0
  4  5  1  0  0  0
  5  6  2  0  0  0
  6  7  1  0  0  0
  7  8  2  0  0  0
  8 11  1  0  0  0
 11 13  1  0  0  0
 13 14  2  0  0  0
 14 15  1  0  0  0
 15 16  2  0  0  0
 16 20  1  0  0  0
 20 21  1  0  0  0
 21 22  2  0  0  0
 22 23  1  0  0  0
 23 24  2  0  0  0
 24 25  1  0  0  0
 25 27  1  0  0  0
 27 28  1  0  0  0
 27 29  1  0  0  0
 27 30  1  0  0  0
 25 26  2  0  0  0
 16 17  1  0  0  0
 17 18  1  0  0  0
 17 19  2  0  0  0
  8  9  1  0  0  0
  9 10  2  0  0  0
 10  1  1  0  0  0
  9  4  1  0  0  0
 19 13  1  0  0  0
 26 21  1  0  0  0
 41 42  1  0  0  0
 35 36  1  0  0  0
 11 12  1  0  0  0
M  END
> <minimizedAffinity>
22.19648

> <CNNscore>
0.2337706089

> <CNNaffinity>
7.2619414330

> <CNN_VS>
1.6976284981

> <CNNaffinity_variance>
0.7219396830

$$$$
[H]OC(C([H])([H])[H])(C([H])([H])[H])C([H])([H])C(=O)N([H])C([H])([H])C([H])([H])c1c([H])c([H])c2nc([H])nc(N([H])c3c([H])c([H])c(Oc4c([H])c([H])c([H])c(C(F)(F)F)c4[H])c(Cl)c3[H])c2c1[H]


 42 45  0  0  0  0  0  0  0  0999 V2000
    6.6900   46.8996  129.7122 C   0  0  0  0  0  0  0  0  0  0  0  0
    5.3758   46.8974  129.3391 C   0  0  0  0  0  0  0  0  0  0  0  0
    4.6807   48.0617  129.2287 C   0  0  0  0  0  0  0  0  0  0  0  0
    5.2777   49.2865  129.4945 C   0  0  0  0  0  0  0  0  0  0  0  0
    4.5197   50.3955  129.3775 N   0  0  0  0  0  0  0  0  0  0  0  0
    5.0749   51.5849  129.6497 C   0  0  0  0  0  0  0  0  0  0  0  0
    6.3490   51.5860  130.0219 N   0  0  0  0  0  0  0  0  0  0  0  0
    7.1581   50.5475  130.1594 C   0  0  0  0  0  0  0  0  0  0  0  0
    6.6020   49.2940  129.8759 C   0  0  0  0  0  0  0  0  0  0  0  0
    7.3084   48.1409  129.9855 C   0  0  0  0  0  0  0  0  0  0  0  0
    8.4794   50.6546  130.6295 N   0  0  0  0  0  0  0  0  0  0  0  0
    8.9417   51.5812  130.8160 H   0  0  0  0  0  0  0  0  0  0  0  0
    9.3000   49.5239  130.8820 C   0  0  0  0  0  0  0  0  0  0  0  0
    9.7705   48.6709  129.9327 C   0  0  0  0  0  0  0  0  0  0  0  0
   10.6654   47.6397  130.2328 C   0  0  0  0  0  0  0  0  0  0  0  0
   11.1071   47.4565  131.5552 C   0  0  0  0  0  0  0  0  0  0  0  0
   10.6383   48.3064  132.5304 C   0  0  0  0  0  0  0  0  0  0  0  0
   11.1308   48.1237  134.2251 Cl  0  0  0  0  0  0  0  0  0  0  0  0
    9.7598   49.3061  132.1781 C   0  0  0  0  0  0  0  0  0  0  0  0
   11.9723   46.4532  131.7743 O   0  0  0  0  0  0  0  0  0  0  0  0
   11.9732   45.1114  131.7068 C   0  0  0  0  0  0  0  0  0  0  0  0
   12.9633   44.4083  132.4130 C   0  0  0  0  0  0  0  0  0  0  0  0
   12.9823   43.0434  132.3611 C   0  0  0  0  0  0  0  0  0  0  0  0
   12.0340   42.3743  131.6186 C   0  0  0  0  0  0  0  0  0  0  0  0
   11.0523   43.0329  130.9138 C   0  0  0  0  0  0  0  0  0  0  0  0
   11.0245   44.4004  130.9613 C   0  0  0  0  0  0  0  0  0  0  0  0
   10.0816   42.2349  130.1185 C   0  0  0  0  0  0  0  0  0  0  0  0
    8.7684   42.5924  130.4812 F   0  0  0  0  0  0  0  0  0  0  0  0
   10.2246   42.5992  128.7955 F   0  0  0  0  0  0  0  0  0  0  0  0
   10.2900   40.8909  130.2432 F   0  0  0  0  0  0  0  0  0  0  0  0
    7.4490   45.6833  129.8893 C   0  0  0  0  0  0  0  0  0  0  0  0
    7.1849   44.8836  131.1490 C   0  0  0  0  0  0  0  0  0  0  0  0
    8.5026   45.8480  133.3622 C   0  0  0  0  0  0  0  0  0  0  0  0
    8.0785   46.6807  134.1875 O   0  0  0  0  0  0  0  0  0  0  0  0
    7.8455   45.3652  132.2560 N   0  0  0  0  0  0  0  0  0  0  0  0
    6.7151   46.0281  132.6460 H   0  0  0  0  0  0  0  0  0  0  0  0
    9.8975   45.3453  133.6536 C   0  0  0  0  0  0  0  0  0  0  0  0
   11.3994   43.9757  135.0397 C   0  0  0  0  0  0  0  0  0  0  0  0
    9.9918   44.2185  134.5926 C   0  0  0  0  0  0  0  0  0  0  0  0
    9.2970   42.9551  134.1123 C   0  0  0  0  0  0  0  0  0  0  0  0
    9.2702   44.6360  135.7673 O   0  0  0  0  0  0  0  0  0  0  0  0
    8.4749   45.1270  135.4260 H   0  0  0  0  0  0  0  0  0  0  0  0
 38 39  1  0  0  0
 39 40  1  0  0  0
 39 41  1  0  0  0
 39 37  1  0  0  0
 37 33  1  0  0  0
 33 34  2  0  0  0
 33 35  1  0  0  0
 35 32  1  0  0  0
 32 31  1  0  0  0
 31  1  1  0  0  0
  1  2  2  0  0  0
  2  3  1  0  0  0
  3  4  2  0  0  0
  4  5  1  0  0  0
  5  6  2  0  0  0
  6  7  1  0  0  0
  7  8  2  0  0  0
  8 11  1  0  0  0
 11 13  1  0  0  0
 13 14  2  0  0  0
 14 15  1  0  0  0
 15 16  2  0  0  0
 16 20  1  0  0  0
 20 21  1  0  0  0
 21 22  2  0  0  0
 22 23  1  0  0  0
 23 24  2  0  0  0
 24 25  1  0  0  0
 25 27  1  0  0  0
 27 28  1  0  0  0
 27 29  1  0  0  0
 27 30  1  0  0  0
 25 26  2  0  0  0
 16 17  1  0  0  0
 17 18  1  0  0  0
 17 19  2  0  0  0
  8  9  1  0  0  0
  9 10  2  0  0  0
 10  1  1  0  0  0
  9  4  1  0  0  0
 19 13  1  0  0  0
 26 21  1  0  0  0
 41 42  1  0  0  0
 35 36  1  0  0  0
 11 12  1  0  0  0
M  END
> <minimizedAffinity>
4.43212

> <CNNscore>
0.2284909487

> <CNNaffinity>
7.8099946976

> <CNN_VS>
1.7845131159

> <CNNaffinity_variance>
0.3963441253

$$$$
[H]OC(C([H])([H])[H])(C([H])([H])[H])C([H])([H])C(=O)N([H])C([H])([H])C([H])([H])c1c([H])c([H])c2nc([H])nc(N([H])c3c([H])c([H])c(Oc4c([H])c([H])c([H])c(C(F)(F)F)c4[H])c(Cl)c3[H])c2c1[H]


 42 45  0  0  0  0  0  0  0  0999 V2000
   10.8078   44.5612  129.1515 C   0  0  0  0  0  0  0  0  0  0  0  0
   10.2217   44.1522  127.9872 C   0  0  0  0  0  0  0  0  0  0  0  0
    9.8479   42.8557  127.8130 C   0  0  0  0  0  0  0  0  0  0  0  0
   10.0520   41.9063  128.8051 C   0  0  0  0  0  0  0  0  0  0  0  0
    9.6682   40.6386  128.5527 N   0  0  0  0  0  0  0  0  0  0  0  0
    9.8760   39.7052  129.4922 C   0  0  0  0  0  0  0  0  0  0  0  0
   10.4545   40.1008  130.6195 N   0  0  0  0  0  0  0  0  0  0  0  0
   10.8579   41.3191  130.9438 C   0  0  0  0  0  0  0  0  0  0  0  0
   10.6471   42.3127  129.9799 C   0  0  0  0  0  0  0  0  0  0  0  0
   11.0206   43.6033  130.1688 C   0  0  0  0  0  0  0  0  0  0  0  0
   11.5265   41.6171  132.1448 N   0  0  0  0  0  0  0  0  0  0  0  0
   12.2232   40.9623  132.5838 H   0  0  0  0  0  0  0  0  0  0  0  0
   11.3102   42.8200  132.8674 C   0  0  0  0  0  0  0  0  0  0  0  0
   12.2853   43.6836  133.2590 C   0  0  0  0  0  0  0  0  0  0  0  0
   11.9977   44.9070  133.8712 C   0  0  0  0  0  0  0  0  0  0  0  0
   10.6614   45.2786  134.1031 C   0  0  0  0  0  0  0  0  0  0  0  0
    9.6611   44.4158  133.7184 C   0  0  0  0  0  0  0  0  0  0  0  0
    7.9526   44.8037  133.9990 Cl  0  0  0  0  0  0  0  0  0  0  0  0
   10.0017   43.2249  133.1178 C   0  0  0  0  0  0  0  0  0  0  0  0
   10.4537   46.4697  134.6874 O   0  0  0  0  0  0  0  0  0  0  0  0
    9.7157   47.5697  134.4627 C   0  0  0  0  0  0  0  0  0  0  0  0
    8.7204   47.9074  135.3947 C   0  0  0  0  0  0  0  0  0  0  0  0
    7.9593   49.0229  135.1883 C   0  0  0  0  0  0  0  0  0  0  0  0
    8.1754   49.8008  134.0718 C   0  0  0  0  0  0  0  0  0  0  0  0
    9.1405   49.4968  133.1388 C   0  0  0  0  0  0  0  0  0  0  0  0
    9.9089   48.3819  133.3382 C   0  0  0  0  0  0  0  0  0  0  0  0
    9.2920   50.3770  131.9498 C   0  0  0  0  0  0  0  0  0  0  0  0
    8.0198   50.7460  131.4712 F   0  0  0  0  0  0  0  0  0  0  0  0
    9.8960   51.5449  132.3676 F   0  0  0  0  0  0  0  0  0  0  0  0
   10.0502   49.8002  130.9710 F   0  0  0  0  0  0  0  0  0  0  0  0
   11.2641   45.9163  129.3569 C   0  0  0  0  0  0  0  0  0  0  0  0
   10.7340   46.6446  130.5753 C   0  0  0  0  0  0  0  0  0  0  0  0
    7.9928   46.5768  130.7908 C   0  0  0  0  0  0  0  0  0  0  0  0
    7.2750   45.5706  130.9538 O   0  0  0  0  0  0  0  0  0  0  0  0
    9.3624   46.6124  130.6830 N   0  0  0  0  0  0  0  0  0  0  0  0
    9.4140   45.2789  130.9808 H   0  0  0  0  0  0  0  0  0  0  0  0
    7.2253   47.8759  130.7078 C   0  0  0  0  0  0  0  0  0  0  0  0
    5.6238   47.4114  128.8987 C   0  0  0  0  0  0  0  0  0  0  0  0
    6.7610   48.2639  129.3683 C   0  0  0  0  0  0  0  0  0  0  0  0
    7.8738   48.3850  128.3405 C   0  0  0  0  0  0  0  0  0  0  0  0
    6.2239   49.5922  129.5177 O   0  0  0  0  0  0  0  0  0  0  0  0
    6.8407   50.0553  130.1464 H   0  0  0  0  0  0  0  0  0  0  0  0
 38 39  1  0  0  0
 39 40  1  0  0  0
 39 41  1  0  0  0
 39 37  1  0  0  0
 37 33  1  0  0  0
 33 34  2  0  0  0
 33 35  1  0  0  0
 35 32  1  0  0  0
 32 31  1  0  0  0
 31  1  1  0  0  0
  1  2  2  0  0  0
  2  3  1  0  0  0
  3  4  2  0  0  0
  4  5  1  0  0  0
  5  6  2  0  0  0
  6  7  1  0  0  0
  7  8  2  0  0  0
  8 11  1  0  0  0
 11 13  1  0  0  0
 13 14  2  0  0  0
 14 15  1  0  0  0
 15 16  2  0  0  0
 16 20  1  0  0  0
 20 21  1  0  0  0
 21 22  2  0  0  0
 22 23  1  0  0  0
 23 24  2  0  0  0
 24 25  1  0  0  0
 25 27  1  0  0  0
 27 28  1  0  0  0
 27 29  1  0  0  0
 27 30  1  0  0  0
 25 26  2  0  0  0
 16 17  1  0  0  0
 17 18  1  0  0  0
 17 19  2  0  0  0
  8  9  1  0  0  0
  9 10  2  0  0  0
 10  1  1  0  0  0
  9  4  1  0  0  0
 19 13  1  0  0  0
 26 21  1  0  0  0
 41 42  1  0  0  0
 35 36  1  0  0  0
 11 12  1  0  0  0
M  END
> <minimizedAffinity>
10.78387

> <CNNscore>
0.2200875580

> <CNNaffinity>
7.7014245987

> <CNN_VS>
1.6949877739

> <CNNaffinity_variance>
0.1575157195

$$$$
[H]OC(=O)c1c([H])c([H])c(C([H])([H])N([H])C(=O)c2c([H])c([H])c(C(C([H])([H])[H])(C([H])([H])[H])C([H])([H])[H])c([H])c2[H])c([H])c1F


 26 27  0  0  0  0  0  0  0  0999 V2000
    7.8931   45.6873  131.3264 C   0  0  0  0  0  0  0  0  0  0  0  0
    6.8196   46.0797  131.8716 O   0  0  0  0  0  0  0  0  0  0  0  0
    8.0004   45.7233  129.9309 N   0  0  0  0  0  0  0  0  0  0  0  0
    8.9216   45.3984  129.5033 H   0  0  0  0  0  0  0  0  0  0  0  0
   11.1978   44.3047  133.6476 C   0  0  0  0  0  0  0  0  0  0  0  0
   10.3351   43.4240  133.0230 C   0  0  0  0  0  0  0  0  0  0  0  0
    9.2597   43.8591  132.2781 C   0  0  0  0  0  0  0  0  0  0  0  0
    9.0055   45.2057  132.1315 C   0  0  0  0  0  0  0  0  0  0  0  0
    9.8346   46.1098  132.7348 C   0  0  0  0  0  0  0  0  0  0  0  0
   10.9157   45.6370  133.4814 C   0  0  0  0  0  0  0  0  0  0  0  0
   13.3103   45.0170  134.6130 C   0  0  0  0  0  0  0  0  0  0  0  0
   12.3685   43.8398  134.4570 C   0  0  0  0  0  0  0  0  0  0  0  0
   13.1133   42.7682  133.6962 C   0  0  0  0  0  0  0  0  0  0  0  0
   11.9366   43.2894  135.8010 C   0  0  0  0  0  0  0  0  0  0  0  0
    7.0140   46.1698  128.9928 C   0  0  0  0  0  0  0  0  0  0  0  0
    6.8245   47.6402  129.0121 C   0  0  0  0  0  0  0  0  0  0  0  0
    7.9772   48.4487  128.9346 C   0  0  0  0  0  0  0  0  0  0  0  0
    7.8796   49.8156  128.9160 C   0  0  0  0  0  0  0  0  0  0  0  0
    6.6583   50.4844  128.9715 C   0  0  0  0  0  0  0  0  0  0  0  0
    5.5248   49.7010  129.0492 C   0  0  0  0  0  0  0  0  0  0  0  0
    4.3088   50.3018  129.0997 F   0  0  0  0  0  0  0  0  0  0  0  0
    5.6318   48.3054  129.0679 C   0  0  0  0  0  0  0  0  0  0  0  0
    6.6225   51.9331  128.9319 C   0  0  0  0  0  0  0  0  0  0  0  0
    6.4528   52.5464  130.0223 O   0  0  0  0  0  0  0  0  0  0  0  0
    6.7691   52.6177  127.7569 O   0  0  0  0  0  0  0  0  0  0  0  0
    7.6647   52.9056  127.3477 H   0  0  0  0  0  0  0  0  0  0  0  0
 11 12  1  0  0  0
 12 13  1  0  0  0
 12 14  1  0  0  0
 12  5  1  0  0  0
  5  6  2  0  0  0
  6  7  1  0  0  0
  7  8  2  0  0  0
  8  1  1  0  0  0
  1  2  2  0  0  0
  1  3  1  0  0  0
  3 15  1  0  0  0
 15 16  1  0  0  0
 16 17  2  0  0  0
 17 18  1  0  0  0
 18 19  2  0  0  0
 19 23  1  0  0  0
 23 24  2  0  0  0
 23 25  1  0  0  0
 19 20  1  0  0  0
 20 21  1  0  0  0
 20 22  2  0  0  0
  8  9  1  0  0  0
  9 10  2  0  0  0
 10  5  1  0  0  0
 22 16  1  0  0  0
  3  4  1  0  0  0
 25 26  1  0  0  0
M  END
> <minimizedAffinity>
2.60273

> <CNNscore>
0.4856743813

> <CNNaffinity>
6.5744042397

> <CNN_VS>
3.1930196285

> <CNNaffinity_variance>
1.6042436361

$$$$
[H]OC(=O)c1c([H])c([H])c(C([H])([H])N([H])C(=O)c2c([H])c([H])c(C(C([H])([H])[H])(C([H])([H])[H])C([H])([H])[H])c([H])c2[H])c([H])c1F


 26 27  0  0  0  0  0  0  0  0999 V2000
    8.9995   45.3807  130.2503 C   0  0  0  0  0  0  0  0  0  0  0  0
    7.8053   44.9596  130.2532 O   0  0  0  0  0  0  0  0  0  0  0  0
    9.4271   46.2076  129.2045 N   0  0  0  0  0  0  0  0  0  0  0  0
   10.4344   46.5558  129.2377 H   0  0  0  0  0  0  0  0  0  0  0  0
   11.6869   44.3675  133.4081 C   0  0  0  0  0  0  0  0  0  0  0  0
   12.1343   44.5716  132.1166 C   0  0  0  0  0  0  0  0  0  0  0  0
   11.2744   44.8906  131.0872 C   0  0  0  0  0  0  0  0  0  0  0  0
    9.9211   45.0167  131.3159 C   0  0  0  0  0  0  0  0  0  0  0  0
    9.4380   44.8214  132.5797 C   0  0  0  0  0  0  0  0  0  0  0  0
   10.3350   44.5005  133.6005 C   0  0  0  0  0  0  0  0  0  0  0  0
   13.4716   42.8591  134.0727 C   0  0  0  0  0  0  0  0  0  0  0  0
   12.6148   44.0222  134.5313 C   0  0  0  0  0  0  0  0  0  0  0  0
   11.8125   43.5462  135.7195 C   0  0  0  0  0  0  0  0  0  0  0  0
   13.4611   45.2095  134.9434 C   0  0  0  0  0  0  0  0  0  0  0  0
    8.6574   46.6667  128.0869 C   0  0  0  0  0  0  0  0  0  0  0  0
    7.6500   47.6881  128.4617 C   0  0  0  0  0  0  0  0  0  0  0  0
    6.3301   47.2495  128.6938 C   0  0  0  0  0  0  0  0  0  0  0  0
    5.3512   48.1303  129.0737 C   0  0  0  0  0  0  0  0  0  0  0  0
    5.5906   49.4915  129.2522 C   0  0  0  0  0  0  0  0  0  0  0  0
    6.8794   49.9299  129.0255 C   0  0  0  0  0  0  0  0  0  0  0  0
    7.1683   51.2457  129.1907 F   0  0  0  0  0  0  0  0  0  0  0  0
    7.8743   49.0247  128.6376 C   0  0  0  0  0  0  0  0  0  0  0  0
    4.5146   50.3682  129.6709 C   0  0  0  0  0  0  0  0  0  0  0  0
    4.5959   50.8918  130.8168 O   0  0  0  0  0  0  0  0  0  0  0  0
    3.4464   50.6248  128.8560 O   0  0  0  0  0  0  0  0  0  0  0  0
    3.4055   51.3688  128.1510 H   0  0  0  0  0  0  0  0  0  0  0  0
 11 12  1  0  0  0
 12 13  1  0  0  0
 12 14  1  0  0  0
 12  5  1  0  0  0
  5  6  2  0  0  0
  6  7  1  0  0  0
  7  8  2  0  0  0
  8  1  1  0  0  0
  1  2  2  0  0  0
  1  3  1  0  0  0
  3 15  1  0  0  0
 15 16  1  0  0  0
 16 17  2  0  0  0
 17 18  1  0  0  0
 18 19  2  0  0  0
 19 23  1  0  0  0
 23 24  2  0  0  0
 23 25  1  0  0  0
 19 20  1  0  0  0
 20 21  1  0  0  0
 20 22  2  0  0  0
  8  9  1  0  0  0
  9 10  2  0  0  0
 10  5  1  0  0  0
 22 16  1  0  0  0
  3  4  1  0  0  0
 25 26  1  0  0  0
M  END
> <minimizedAffinity>
5.93787

> <CNNscore>
0.4766498804

> <CNNaffinity>
6.4857645035

> <CNN_VS>
3.0914387703

> <CNNaffinity_variance>
1.4629495144

$$$$
[H]OC(=O)c1c([H])c([H])c(C([H])([H])N([H])C(=O)c2c([H])c([H])c(C(C([H])([H])[H])(C([H])([H])[H])C([H])([H])[H])c([H])c2[H])c([H])c1F


 26 27  0  0  0  0  0  0  0  0999 V2000
    8.7479   46.0201  130.7881 C   0  0  0  0  0  0  0  0  0  0  0  0
    9.8899   46.1172  131.3264 O   0  0  0  0  0  0  0  0  0  0  0  0
    8.2675   44.7533  130.4345 N   0  0  0  0  0  0  0  0  0  0  0  0
    7.2973   44.7041  129.9951 H   0  0  0  0  0  0  0  0  0  0  0  0
    6.3862   49.4854  129.9916 C   0  0  0  0  0  0  0  0  0  0  0  0
    7.5039   49.5438  130.8023 C   0  0  0  0  0  0  0  0  0  0  0  0
    8.2690   48.4294  131.0734 C   0  0  0  0  0  0  0  0  0  0  0  0
    7.9383   47.2031  130.5383 C   0  0  0  0  0  0  0  0  0  0  0  0
    6.8389   47.1026  129.7321 C   0  0  0  0  0  0  0  0  0  0  0  0
    6.0855   48.2500  129.4760 C   0  0  0  0  0  0  0  0  0  0  0  0
    4.4444   50.2566  128.7520 C   0  0  0  0  0  0  0  0  0  0  0  0
    5.5513   50.6914  129.6915 C   0  0  0  0  0  0  0  0  0  0  0  0
    6.3871   51.7128  128.9566 C   0  0  0  0  0  0  0  0  0  0  0  0
    4.9962   51.3165  130.9553 C   0  0  0  0  0  0  0  0  0  0  0  0
    8.9236   43.4923  130.6125 C   0  0  0  0  0  0  0  0  0  0  0  0
   10.3875   43.5679  130.3895 C   0  0  0  0  0  0  0  0  0  0  0  0
   10.8344   43.9421  129.1056 C   0  0  0  0  0  0  0  0  0  0  0  0
   12.1719   44.0634  128.8323 C   0  0  0  0  0  0  0  0  0  0  0  0
   13.1600   43.8293  129.7867 C   0  0  0  0  0  0  0  0  0  0  0  0
   12.7317   43.4608  131.0458 C   0  0  0  0  0  0  0  0  0  0  0  0
   13.6529   43.2265  132.0146 F   0  0  0  0  0  0  0  0  0  0  0  0
   11.3640   43.3387  131.3179 C   0  0  0  0  0  0  0  0  0  0  0  0
   14.5578   43.9906  129.4378 C   0  0  0  0  0  0  0  0  0  0  0  0
   14.9110   45.0861  128.9190 O   0  0  0  0  0  0  0  0  0  0  0  0
   15.4679   42.9946  129.6624 O   0  0  0  0  0  0  0  0  0  0  0  0
   15.9888   42.8550  130.5350 H   0  0  0  0  0  0  0  0  0  0  0  0
 11 12  1  0  0  0
 12 13  1  0  0  0
 12 14  1  0  0  0
 12  5  1  0  0  0
  5  6  2  0  0  0
  6  7  1  0  0  0
  7  8  2  0  0  0
  8  1  1  0  0  0
  1  2  2  0  0  0
  1  3  1  0  0  0
  3 15  1  0  0  0
 15 16  1  0  0  0
 16 17  2  0  0  0
 17 18  1  0  0  0
 18 19  2  0  0  0
 19 23  1  0  0  0
 23 24  2  0  0  0
 23 25  1  0  0  0
 19 20  1  0  0  0
 20 21  1  0  0  0
 20 22  2  0  0  0
  8  9  1  0  0  0
  9 10  2  0  0  0
 10  5  1  0  0  0
 22 16  1  0  0  0
  3  4  1  0  0  0
 25 26  1  0  0  0
M  END
> <minimizedAffinity>
5.42275

> <CNNscore>
0.4340293109

> <CNNaffinity>
6.3730521202

> <CNN_VS>
2.7660913467

> <CNNaffinity_variance>
1.7870538235

$$$$
[H]OC(=O)c1c([H])c([H])c(C([H])([H])N([H])C(=O)c2c([H])c([H])c(C(C([H])([H])[H])(C([H])([H])[H])C([H])([H])[H])c([H])c2[H])c([H])c1F


 26 27  0  0  0  0  0  0  0  0999 V2000
    8.4975   45.0291  130.2340 C   0  0  0  0  0  0  0  0  0  0  0  0
    8.5090   44.4655  129.1002 O   0  0  0  0  0  0  0  0  0  0  0  0
    7.4960   45.9653  130.5187 N   0  0  0  0  0  0  0  0  0  0  0  0
    7.5064   46.4126  131.4865 H   0  0  0  0  0  0  0  0  0  0  0  0
   11.4485   44.1615  133.1937 C   0  0  0  0  0  0  0  0  0  0  0  0
   11.7576   44.1714  131.8468 C   0  0  0  0  0  0  0  0  0  0  0  0
   10.8108   44.4418  130.8817 C   0  0  0  0  0  0  0  0  0  0  0  0
    9.5063   44.7132  131.2341 C   0  0  0  0  0  0  0  0  0  0  0  0
    9.1592   44.7117  132.5563 C   0  0  0  0  0  0  0  0  0  0  0  0
   10.1416   44.4353  133.5092 C   0  0  0  0  0  0  0  0  0  0  0  0
   11.7270   43.5012  135.5150 C   0  0  0  0  0  0  0  0  0  0  0  0
   12.4714   43.8701  134.2474 C   0  0  0  0  0  0  0  0  0  0  0  0
   13.2629   45.1228  134.5414 C   0  0  0  0  0  0  0  0  0  0  0  0
   13.4199   42.7695  133.8176 C   0  0  0  0  0  0  0  0  0  0  0  0
    6.4295   46.3876  129.6606 C   0  0  0  0  0  0  0  0  0  0  0  0
    6.4240   47.8517  129.4260 C   0  0  0  0  0  0  0  0  0  0  0  0
    7.6711   48.5025  129.3291 C   0  0  0  0  0  0  0  0  0  0  0  0
    7.7465   49.8486  129.0827 C   0  0  0  0  0  0  0  0  0  0  0  0
    6.6175   50.6480  128.9148 C   0  0  0  0  0  0  0  0  0  0  0  0
    5.3925   50.0196  129.0098 C   0  0  0  0  0  0  0  0  0  0  0  0
    4.2605   50.7510  128.8484 F   0  0  0  0  0  0  0  0  0  0  0  0
    5.3228   48.6444  129.2618 C   0  0  0  0  0  0  0  0  0  0  0  0
    6.7658   52.0638  128.6404 C   0  0  0  0  0  0  0  0  0  0  0  0
    6.6332   52.8662  129.6061 O   0  0  0  0  0  0  0  0  0  0  0  0
    7.0420   52.5205  127.3811 O   0  0  0  0  0  0  0  0  0  0  0  0
    7.9816   52.6284  126.9838 H   0  0  0  0  0  0  0  0  0  0  0  0
 11 12  1  0  0  0
 12 13  1  0  0  0
 12 14  1  0  0  0
 12  5  1  0  0  0
  5  6  2  0  0  0
  6  7  1  0  0  0
  7  8  2  0  0  0
  8  1  1  0  0  0
  1  2  2  0  0  0
  1  3  1  0  0  0
  3 15  1  0  0  0
 15 16  1  0  0  0
 16 17  2  0  0  0
 17 18  1  0  0  0
 18 19  2  0  0  0
 19 23  1  0  0  0
 23 24  2  0  0  0
 23 25  1  0  0  0
 19 20  1  0  0  0
 20 21  1  0  0  0
 20 22  2  0  0  0
  8  9  1  0  0  0
  9 10  2  0  0  0
 10  5  1  0  0  0
 22 16  1  0  0  0
  3  4  1  0  0  0
 25 26  1  0  0  0
M  END
> <minimizedAffinity>
3.21000

> <CNNscore>
0.4337099493

> <CNNaffinity>
6.4139380455

> <CNN_VS>
2.7817888260

> <CNNaffinity_variance>
1.0053695440

$$$$
[H]OC(=O)c1c([H])c([H])c(C([H])([H])N([H])C(=O)c2c([H])c([H])c(C(C([H])([H])[H])(C([H])([H])[H])C([H])([H])[H])c([H])c2[H])c([H])c1F


 26 27  0  0  0  0  0  0  0  0999 V2000
    9.9118   47.2220  132.2370 C   0  0  0  0  0  0  0  0  0  0  0  0
   10.9104   46.7607  131.6097 O   0  0  0  0  0  0  0  0  0  0  0  0
    9.7272   46.8665  133.5786 N   0  0  0  0  0  0  0  0  0  0  0  0
    8.8842   47.2817  134.0824 H   0  0  0  0  0  0  0  0  0  0  0  0
    7.1581   49.8122  130.2549 C   0  0  0  0  0  0  0  0  0  0  0  0
    8.1075   50.3021  131.1316 C   0  0  0  0  0  0  0  0  0  0  0  0
    8.9961   49.4741  131.7839 C   0  0  0  0  0  0  0  0  0  0  0  0
    8.9649   48.1112  131.5810 C   0  0  0  0  0  0  0  0  0  0  0  0
    8.0397   47.5864  130.7224 C   0  0  0  0  0  0  0  0  0  0  0  0
    7.1546   48.4519  130.0764 C   0  0  0  0  0  0  0  0  0  0  0  0
    5.3459   51.3940  130.5949 C   0  0  0  0  0  0  0  0  0  0  0  0
    6.1908   50.7052  129.5419 C   0  0  0  0  0  0  0  0  0  0  0  0
    5.2592   49.8673  128.6981 C   0  0  0  0  0  0  0  0  0  0  0  0
    6.9025   51.7069  128.6555 C   0  0  0  0  0  0  0  0  0  0  0  0
   10.5582   46.0145  134.3759 C   0  0  0  0  0  0  0  0  0  0  0  0
   10.8082   44.6972  133.7430 C   0  0  0  0  0  0  0  0  0  0  0  0
    9.6874   43.9088  133.4104 C   0  0  0  0  0  0  0  0  0  0  0  0
    9.8380   42.6935  132.7951 C   0  0  0  0  0  0  0  0  0  0  0  0
   11.0847   42.1662  132.4639 C   0  0  0  0  0  0  0  0  0  0  0  0
   12.1874   42.9302  132.7874 C   0  0  0  0  0  0  0  0  0  0  0  0
   13.4256   42.4659  132.4815 F   0  0  0  0  0  0  0  0  0  0  0  0
   12.0263   44.1707  133.4158 C   0  0  0  0  0  0  0  0  0  0  0  0
   11.1749   40.8811  131.7990 C   0  0  0  0  0  0  0  0  0  0  0  0
   10.5394   40.7332  130.7181 O   0  0  0  0  0  0  0  0  0  0  0  0
   11.9230   39.8608  132.3187 O   0  0  0  0  0  0  0  0  0  0  0  0
   12.9222   39.7103  132.1419 H   0  0  0  0  0  0  0  0  0  0  0  0
 11 12  1  0  0  0
 12 13  1  0  0  0
 12 14  1  0  0  0
 12  5  1  0  0  0
  5  6  2  0  0  0
  6  7  1  0  0  0
  7  8  2  0  0  0
  8  1  1  0  0  0
  1  2  2  0  0  0
  1  3  1  0  0  0
  3 15  1  0  0  0
 15 16  1  0  0  0
 16 17  2  0  0  0
 17 18  1  0  0  0
 18 19  2  0  0  0
 19 23  1  0  0  0
 23 24  2  0  0  0
 23 25  1  0  0  0
 19 20  1  0  0  0
 20 21  1  0  0  0
 20 22  2  0  0  0
  8  9  1  0  0  0
  9 10  2  0  0  0
 10  5  1  0  0  0
 22 16  1  0  0  0
  3  4  1  0  0  0
 25 26  1  0  0  0
M  END
> <minimizedAffinity>
3.29178

> <CNNscore>
0.3943981528

> <CNNaffinity>
6.4703493118

> <CNN_VS>
2.5518937111

> <CNNaffinity_variance>
0.9557479024

$$$$
[H]OC(=O)c1c([H])c([H])c(C([H])([H])N([H])C(=O)c2c([H])c([H])c(C(C([H])([H])[H])(C([H])([H])[H])C([H])([H])[H])c([H])c2[H])c([H])c1F


 26 27  0  0  0  0  0  0  0  0999 V2000
   10.0312   48.4175  132.1865 C   0  0  0  0  0  0  0  0  0  0  0  0
    9.6555   49.3925  132.9017 O   0  0  0  0  0  0  0  0  0  0  0  0
   10.0378   48.5579  130.7934 N   0  0  0  0  0  0  0  0  0  0  0  0
   10.3717   47.7233  130.2200 H   0  0  0  0  0  0  0  0  0  0  0  0
   11.2430   44.7114  133.9235 C   0  0  0  0  0  0  0  0  0  0  0  0
   10.3851   45.5715  134.5823 C   0  0  0  0  0  0  0  0  0  0  0  0
    9.9939   46.7748  134.0347 C   0  0  0  0  0  0  0  0  0  0  0  0
   10.4537   47.1652  132.7955 C   0  0  0  0  0  0  0  0  0  0  0  0
   11.3053   46.3432  132.1115 C   0  0  0  0  0  0  0  0  0  0  0  0
   11.6816   45.1308  132.6930 C   0  0  0  0  0  0  0  0  0  0  0  0
   13.0928   43.1419  134.0547 C   0  0  0  0  0  0  0  0  0  0  0  0
   11.6712   43.4025  134.5110 C   0  0  0  0  0  0  0  0  0  0  0  0
   10.8110   42.2937  133.9520 C   0  0  0  0  0  0  0  0  0  0  0  0
   11.5626   43.4052  136.0223 C   0  0  0  0  0  0  0  0  0  0  0  0
    9.6632   49.7126  130.0328 C   0  0  0  0  0  0  0  0  0  0  0  0
    8.2016   49.7991  129.7987 C   0  0  0  0  0  0  0  0  0  0  0  0
    7.6506   48.9749  128.7961 C   0  0  0  0  0  0  0  0  0  0  0  0
    6.3036   48.9771  128.5432 C   0  0  0  0  0  0  0  0  0  0  0  0
    5.4065   49.7785  129.2465 C   0  0  0  0  0  0  0  0  0  0  0  0
    5.9373   50.5899  130.2286 C   0  0  0  0  0  0  0  0  0  0  0  0
    5.1065   51.3865  130.9479 F   0  0  0  0  0  0  0  0  0  0  0  0
    7.3141   50.5827  130.4816 C   0  0  0  0  0  0  0  0  0  0  0  0
    3.9904   49.7222  128.9410 C   0  0  0  0  0  0  0  0  0  0  0  0
    3.3238   48.7634  129.4209 O   0  0  0  0  0  0  0  0  0  0  0  0
    3.3910   50.6734  128.1620 O   0  0  0  0  0  0  0  0  0  0  0  0
    2.9987   51.5573  128.5044 H   0  0  0  0  0  0  0  0  0  0  0  0
 11 12  1  0  0  0
 12 13  1  0  0  0
 12 14  1  0  0  0
 12  5  1  0  0  0
  5  6  2  0  0  0
  6  7  1  0  0  0
  7  8  2  0  0  0
  8  1  1  0  0  0
  1  2  2  0  0  0
  1  3  1  0  0  0
  3 15  1  0  0  0
 15 16  1  0  0  0
 16 17  2  0  0  0
 17 18  1  0  0  0
 18 19  2  0  0  0
 19 23  1  0  0  0
 23 24  2  0  0  0
 23 25  1  0  0  0
 19 20  1  0  0  0
 20 21  1  0  0  0
 20 22  2  0  0  0
  8  9  1  0  0  0
  9 10  2  0  0  0
 10  5  1  0  0  0
 22 16  1  0  0  0
  3  4  1  0  0  0
 25 26  1  0  0  0
M  END
> <minimizedAffinity>
5.51298

> <CNNscore>
0.3900116980

> <CNNaffinity>
6.1418957710

> <CNN_VS>
2.3954112530

> <CNNaffinity_variance>
0.8048195839

$$$$
[H]OC(=O)c1c([H])c([H])c(C([H])([H])N([H])C(=O)c2c([H])c([H])c(C(C([H])([H])[H])(C([H])([H])[H])C([H])([H])[H])c([H])c2[H])c([H])c1F


 26 27  0  0  0  0  0  0  0  0999 V2000
    9.9359   47.1546  131.8911 C   0  0  0  0  0  0  0  0  0  0  0  0
   10.7404   46.4828  131.1805 O   0  0  0  0  0  0  0  0  0  0  0  0
    9.9991   47.0389  133.2850 N   0  0  0  0  0  0  0  0  0  0  0  0
    9.3169   47.6272  133.8554 H   0  0  0  0  0  0  0  0  0  0  0  0
    7.0411   49.7616  130.1462 C   0  0  0  0  0  0  0  0  0  0  0  0
    7.0701   48.4122  129.8490 C   0  0  0  0  0  0  0  0  0  0  0  0
    8.0057   47.5626  130.3999 C   0  0  0  0  0  0  0  0  0  0  0  0
    8.9572   48.0386  131.2761 C   0  0  0  0  0  0  0  0  0  0  0  0
    8.9636   49.3678  131.5950 C   0  0  0  0  0  0  0  0  0  0  0  0
    8.0019   50.2018  131.0211 C   0  0  0  0  0  0  0  0  0  0  0  0
    6.7743   51.6914  128.6948 C   0  0  0  0  0  0  0  0  0  0  0  0
    6.0274   50.6901  129.5530 C   0  0  0  0  0  0  0  0  0  0  0  0
    5.3475   51.4656  130.6569 C   0  0  0  0  0  0  0  0  0  0  0  0
    4.9820   49.9401  128.7527 C   0  0  0  0  0  0  0  0  0  0  0  0
   10.8970   46.2276  134.0517 C   0  0  0  0  0  0  0  0  0  0  0  0
   11.0729   44.8689  133.4847 C   0  0  0  0  0  0  0  0  0  0  0  0
    9.9709   43.9909  133.5383 C   0  0  0  0  0  0  0  0  0  0  0  0
   10.0479   42.7298  133.0072 C   0  0  0  0  0  0  0  0  0  0  0  0
   11.1981   42.2409  132.3910 C   0  0  0  0  0  0  0  0  0  0  0  0
   12.2823   43.0930  132.3355 C   0  0  0  0  0  0  0  0  0  0  0  0
   13.4262   42.6687  131.7407 F   0  0  0  0  0  0  0  0  0  0  0  0
   12.1968   44.3797  132.8801 C   0  0  0  0  0  0  0  0  0  0  0  0
   11.2095   40.9023  131.8345 C   0  0  0  0  0  0  0  0  0  0  0  0
   10.5042   40.6862  130.8100 O   0  0  0  0  0  0  0  0  0  0  0  0
   11.9583   39.9041  132.3946 O   0  0  0  0  0  0  0  0  0  0  0  0
   12.9398   39.7051  132.1724 H   0  0  0  0  0  0  0  0  0  0  0  0
 11 12  1  0  0  0
 12 13  1  0  0  0
 12 14  1  0  0  0
 12  5  1  0  0  0
  5  6  2  0  0  0
  6  7  1  0  0  0
  7  8  2  0  0  0
  8  1  1  0  0  0
  1  2  2  0  0  0
  1  3  1  0  0  0
  3 15  1  0  0  0
 15 16  1  0  0  0
 16 17  2  0  0  0
 17 18  1  0  0  0
 18 19  2  0  0  0
 19 23  1  0  0  0
 23 24  2  0  0  0
 23 25  1  0  0  0
 19 20  1  0  0  0
 20 21  1  0  0  0
 20 22  2  0  0  0
  8  9  1  0  0  0
  9 10  2  0  0  0
 10  5  1  0  0  0
 22 16  1  0  0  0
  3  4  1  0  0  0
 25 26  1  0  0  0
M  END
> <minimizedAffinity>
3.68847

> <CNNscore>
0.3652704358

> <CNNaffinity>
6.4558730125

> <CNN_VS>
2.3581395149

> <CNNaffinity_variance>
0.8881672621

$$$$
[H]OC(=O)c1c([H])c([H])c(C([H])([H])N([H])C(=O)c2c([H])c([H])c(C(C([H])([H])[H])(C([H])([H])[H])C([H])([H])[H])c([H])c2[H])c([H])c1F


 26 27  0  0  0  0  0  0  0  0999 V2000
    9.8883   48.4338  132.1392 C   0  0  0  0  0  0  0  0  0  0  0  0
    9.2498   49.2087  132.9107 O   0  0  0  0  0  0  0  0  0  0  0  0
   10.0094   48.7693  130.7853 N   0  0  0  0  0  0  0  0  0  0  0  0
   10.5639   48.1028  130.1646 H   0  0  0  0  0  0  0  0  0  0  0  0
   11.6925   44.8794  133.6663 C   0  0  0  0  0  0  0  0  0  0  0  0
   11.9064   45.2969  132.3663 C   0  0  0  0  0  0  0  0  0  0  0  0
   11.3221   46.4383  131.8599 C   0  0  0  0  0  0  0  0  0  0  0  0
   10.4925   47.2102  132.6444 C   0  0  0  0  0  0  0  0  0  0  0  0
   10.2540   46.8308  133.9359 C   0  0  0  0  0  0  0  0  0  0  0  0
   10.8618   45.6703  134.4191 C   0  0  0  0  0  0  0  0  0  0  0  0
   11.4524   43.1600  135.3657 C   0  0  0  0  0  0  0  0  0  0  0  0
   12.3246   43.6419  134.2237 C   0  0  0  0  0  0  0  0  0  0  0  0
   13.6757   43.9846  134.8059 C   0  0  0  0  0  0  0  0  0  0  0  0
   12.4944   42.5735  133.1627 C   0  0  0  0  0  0  0  0  0  0  0  0
    9.4873   49.9287  130.1254 C   0  0  0  0  0  0  0  0  0  0  0  0
    8.0431   49.8114  129.8111 C   0  0  0  0  0  0  0  0  0  0  0  0
    7.2103   50.8976  130.1503 C   0  0  0  0  0  0  0  0  0  0  0  0
    5.8704   50.8749  129.8633 C   0  0  0  0  0  0  0  0  0  0  0  0
    5.2538   49.7978  129.2296 C   0  0  0  0  0  0  0  0  0  0  0  0
    6.0610   48.7295  128.8955 C   0  0  0  0  0  0  0  0  0  0  0  0
    5.5120   47.6566  128.2712 F   0  0  0  0  0  0  0  0  0  0  0  0
    7.4288   48.7592  129.1917 C   0  0  0  0  0  0  0  0  0  0  0  0
    3.8340   49.8430  128.9398 C   0  0  0  0  0  0  0  0  0  0  0  0
    3.4320   50.7006  128.1051 O   0  0  0  0  0  0  0  0  0  0  0  0
    2.9556   48.9869  129.5450 O   0  0  0  0  0  0  0  0  0  0  0  0
    2.7128   48.0502  129.2046 H   0  0  0  0  0  0  0  0  0  0  0  0
 11 12  1  0  0  0
 12 13  1  0  0  0
 12 14  1  0  0  0
 12  5  1  0  0  0
  5  6  2  0  0  0
  6  7  1  0  0  0
  7  8  2  0  0  0
  8  1  1  0  0  0
  1  2  2  0  0  0
  1  3  1  0  0  0
  3 15  1  0  0  0
 15 16  1  0  0  0
 16 17  2  0  0  0
 17 18  1  0  0  0
 18 19  2  0  0  0
 19 23  1  0  0  0
 23 24  2  0  0  0
 23 25  1  0  0  0
 19 20  1  0  0  0
 20 21  1  0  0  0
 20 22  2  0  0  0
  8  9  1  0  0  0
  9 10  2  0  0  0
 10  5  1  0  0  0
 22 16  1  0  0  0
  3  4  1  0  0  0
 25 26  1  0  0  0
M  END
> <minimizedAffinity>
7.05422

> <CNNscore>
0.3255357146

> <CNNaffinity>
5.9970803261

> <CNN_VS>
1.9522638321

> <CNNaffinity_variance>
0.8021837473

$$$$
[H]OC(=O)c1c([H])c([H])c(C([H])([H])N([H])C(=O)c2c([H])c([H])c(C(C([H])([H])[H])(C([H])([H])[H])C([H])([H])[H])c([H])c2[H])c([H])c1F


 26 27  0  0  0  0  0  0  0  0999 V2000
    8.7925   45.8494  129.8289 C   0  0  0  0  0  0  0  0  0  0  0  0
   10.0459   45.8886  129.6532 O   0  0  0  0  0  0  0  0  0  0  0  0
    8.1915   44.6334  130.1759 N   0  0  0  0  0  0  0  0  0  0  0  0
    7.1363   44.6363  130.3293 H   0  0  0  0  0  0  0  0  0  0  0  0
    6.4184   49.3759  129.4440 C   0  0  0  0  0  0  0  0  0  0  0  0
    5.8975   48.1226  129.1838 C   0  0  0  0  0  0  0  0  0  0  0  0
    6.6573   46.9777  129.2964 C   0  0  0  0  0  0  0  0  0  0  0  0
    7.9804   47.0472  129.6761 C   0  0  0  0  0  0  0  0  0  0  0  0
    8.5342   48.2685  129.9412 C   0  0  0  0  0  0  0  0  0  0  0  0
    7.7378   49.4089  129.8190 C   0  0  0  0  0  0  0  0  0  0  0  0
    6.4720   51.6815  128.6801 C   0  0  0  0  0  0  0  0  0  0  0  0
    5.5992   50.6235  129.3252 C   0  0  0  0  0  0  0  0  0  0  0  0
    5.2371   51.1218  130.7045 C   0  0  0  0  0  0  0  0  0  0  0  0
    4.3309   50.3868  128.5308 C   0  0  0  0  0  0  0  0  0  0  0  0
    8.8351   43.3688  130.3727 C   0  0  0  0  0  0  0  0  0  0  0  0
    9.7919   43.3792  131.5052 C   0  0  0  0  0  0  0  0  0  0  0  0
    9.3422   43.9007  132.7357 C   0  0  0  0  0  0  0  0  0  0  0  0
   10.1593   43.9155  133.8359 C   0  0  0  0  0  0  0  0  0  0  0  0
   11.4636   43.4256  133.8121 C   0  0  0  0  0  0  0  0  0  0  0  0
   11.9128   42.9148  132.6113 C   0  0  0  0  0  0  0  0  0  0  0  0
   13.1741   42.4193  132.5347 F   0  0  0  0  0  0  0  0  0  0  0  0
   11.0729   42.9030  131.4915 C   0  0  0  0  0  0  0  0  0  0  0  0
   12.2715   43.4556  135.0155 C   0  0  0  0  0  0  0  0  0  0  0  0
   13.4347   43.9389  134.9300 O   0  0  0  0  0  0  0  0  0  0  0  0
   11.7947   42.9801  136.2060 O   0  0  0  0  0  0  0  0  0  0  0  0
   11.2558   43.5254  136.8876 H   0  0  0  0  0  0  0  0  0  0  0  0
 11 12  1  0  0  0
 12 13  1  0  0  0
 12 14  1  0  0  0
 12  5  1  0  0  0
  5  6  2  0  0  0
  6  7  1  0  0  0
  7  8  2  0  0  0
  8  1  1  0  0  0
  1  2  2  0  0  0
  1  3  1  0  0  0
  3 15  1  0  0  0
 15 16  1  0  0  0
 16 17  2  0  0  0
 17 18  1  0  0  0
 18 19  2  0  0  0
 19 23  1  0  0  0
 23 24  2  0  0  0
 23 25  1  0  0  0
 19 20  1  0  0  0
 20 21  1  0  0  0
 20 22  2  0  0  0
  8  9  1  0  0  0
  9 10  2  0  0  0
 10  5  1  0  0  0
 22 16  1  0  0  0
  3  4  1  0  0  0
 25 26  1  0  0  0
M  END
> <minimizedAffinity>
2.54977

> <CNNscore>
0.3093379438

> <CNNaffinity>
6.2659196854

> <CNN_VS>
1.9382866621

> <CNNaffinity_variance>
0.5934266448

$$$$
[H]Oc1c([H])c(O[H])c([H])c([C@@]([H])(O[H])C([H])([H])N([H])[C@@]([H])(C([H])([H])[H])C([H])([H])c2c([H])c([H])c(OC([H])([H])[H])c([H])c2[H])c1[H]


 27 28  0  0  0  0  0  0  0  0999 V2000
    9.4658   48.1604  133.4353 C   0  0  0  0  0  0  0  0  0  0  0  0
    9.8070   48.9177  132.2003 C   0  0  0  0  0  0  0  0  0  0  0  0
    9.7412   50.3295  132.4966 O   0  0  0  0  0  0  0  0  0  0  0  0
   10.6514   50.6560  132.4104 H   0  0  0  0  0  0  0  0  0  0  0  0
    8.8239   48.7650  131.0810 C   0  0  0  0  0  0  0  0  0  0  0  0
    8.3240   47.5657  130.6681 C   0  0  0  0  0  0  0  0  0  0  0  0
    7.4037   47.4675  129.6185 C   0  0  0  0  0  0  0  0  0  0  0  0
    6.8870   46.2578  129.1874 O   0  0  0  0  0  0  0  0  0  0  0  0
    7.0020   48.6223  128.9966 C   0  0  0  0  0  0  0  0  0  0  0  0
    7.4699   49.8572  129.3681 C   0  0  0  0  0  0  0  0  0  0  0  0
    7.0391   51.0041  128.7145 O   0  0  0  0  0  0  0  0  0  0  0  0
    8.3750   49.9055  130.4068 C   0  0  0  0  0  0  0  0  0  0  0  0
    6.0210   45.9601  129.6640 H   0  0  0  0  0  0  0  0  0  0  0  0
    6.1982   51.4388  129.1239 H   0  0  0  0  0  0  0  0  0  0  0  0
   10.2860   47.1280  133.8763 N   0  0  0  0  0  0  0  0  0  0  0  0
   11.2192   47.0560  133.3982 H   0  0  0  0  0  0  0  0  0  0  0  0
    9.8344   45.9816  134.5121 C   0  0  0  0  0  0  0  0  0  0  0  0
    8.3452   45.8049  134.4322 C   0  0  0  0  0  0  0  0  0  0  0  0
   10.5641   44.7026  134.2046 C   0  0  0  0  0  0  0  0  0  0  0  0
    9.4862   43.3928  130.2363 C   0  0  0  0  0  0  0  0  0  0  0  0
    8.8009   42.9574  131.3509 C   0  0  0  0  0  0  0  0  0  0  0  0
    9.1445   43.3799  132.6246 C   0  0  0  0  0  0  0  0  0  0  0  0
   10.1921   44.2586  132.8346 C   0  0  0  0  0  0  0  0  0  0  0  0
   10.8792   44.6954  131.7194 C   0  0  0  0  0  0  0  0  0  0  0  0
   10.5296   44.2686  130.4501 C   0  0  0  0  0  0  0  0  0  0  0  0
    9.9230   43.3589  127.8207 C   0  0  0  0  0  0  0  0  0  0  0  0
    9.1598   42.9827  128.9450 O   0  0  0  0  0  0  0  0  0  0  0  0
 26 27  1  0  0  0
 27 20  1  0  0  0
 20 21  2  0  0  0
 21 22  1  0  0  0
 22 23  2  0  0  0
 23 19  1  0  0  0
 19 17  1  0  0  0
 17 18  1  0  0  0
 17 15  1  0  0  0
 15  1  1  0  0  0
  1  2  1  0  0  0
  2  3  1  0  0  0
  2  5  1  0  0  0
  5  6  2  0  0  0
  6  7  1  0  0  0
  7  8  1  0  0  0
  7  9  2  0  0  0
  9 10  1  0  0  0
 10 11  1  0  0  0
 10 12  2  0  0  0
 23 24  1  0  0  0
 24 25  2  0  0  0
 25 20  1  0  0  0
 12  5  1  0  0  0
 15 16  1  0  0  0
  3  4  1  0  0  0
  8 13  1  0  0  0
 11 14  1  0  0  0
M  END
> <minimizedAffinity>
-8.34423

> <CNNscore>
0.5199044347

> <CNNaffinity>
7.1331987381

> <CNN_VS>
3.7085816860

> <CNNaffinity_variance>
0.2614284754

$$$$
[H]Oc1c([H])c(O[H])c([H])c([C@@]([H])(O[H])C([H])([H])N([H])[C@@]([H])(C([H])([H])[H])C([H])([H])c2c([H])c([H])c(OC([H])([H])[H])c([H])c2[H])c1[H]


 27 28  0  0  0  0  0  0  0  0999 V2000
    9.2957   48.0062  133.5595 C   0  0  0  0  0  0  0  0  0  0  0  0
    9.7709   48.7654  132.3708 C   0  0  0  0  0  0  0  0  0  0  0  0
    9.8605   50.1621  132.7261 O   0  0  0  0  0  0  0  0  0  0  0  0
   10.8054   50.3809  132.6848 H   0  0  0  0  0  0  0  0  0  0  0  0
    8.8205   48.7751  131.2137 C   0  0  0  0  0  0  0  0  0  0  0  0
    8.4056   49.9097  130.5816 C   0  0  0  0  0  0  0  0  0  0  0  0
    7.5176   49.8741  129.5008 C   0  0  0  0  0  0  0  0  0  0  0  0
    7.0868   51.0167  128.8486 O   0  0  0  0  0  0  0  0  0  0  0  0
    7.0598   48.6528  129.0760 C   0  0  0  0  0  0  0  0  0  0  0  0
    7.4418   47.4777  129.6720 C   0  0  0  0  0  0  0  0  0  0  0  0
    6.9571   46.2602  129.2131 O   0  0  0  0  0  0  0  0  0  0  0  0
    8.3179   47.5613  130.7331 C   0  0  0  0  0  0  0  0  0  0  0  0
    7.6756   51.3118  128.0536 H   0  0  0  0  0  0  0  0  0  0  0  0
    7.5312   45.8220  128.4769 H   0  0  0  0  0  0  0  0  0  0  0  0
   10.1466   47.1251  134.2174 N   0  0  0  0  0  0  0  0  0  0  0  0
   11.1696   47.3599  134.1646 H   0  0  0  0  0  0  0  0  0  0  0  0
    9.8359   45.8073  134.5164 C   0  0  0  0  0  0  0  0  0  0  0  0
    8.5010   45.3750  133.9812 C   0  0  0  0  0  0  0  0  0  0  0  0
   10.9024   44.7809  134.2479 C   0  0  0  0  0  0  0  0  0  0  0  0
   10.8840   43.8661  130.0304 C   0  0  0  0  0  0  0  0  0  0  0  0
   11.3378   45.0792  130.5036 C   0  0  0  0  0  0  0  0  0  0  0  0
   11.3468   45.3722  131.8575 C   0  0  0  0  0  0  0  0  0  0  0  0
   10.9000   44.4590  132.7958 C   0  0  0  0  0  0  0  0  0  0  0  0
   10.4453   43.2439  132.3233 C   0  0  0  0  0  0  0  0  0  0  0  0
   10.4396   42.9588  130.9690 C   0  0  0  0  0  0  0  0  0  0  0  0
    9.6647   43.4504  127.9406 C   0  0  0  0  0  0  0  0  0  0  0  0
   10.8650   43.5475  128.6738 O   0  0  0  0  0  0  0  0  0  0  0  0
 26 27  1  0  0  0
 27 20  1  0  0  0
 20 21  2  0  0  0
 21 22  1  0  0  0
 22 23  2  0  0  0
 23 19  1  0  0  0
 19 17  1  0  0  0
 17 18  1  0  0  0
 17 15  1  0  0  0
 15  1  1  0  0  0
  1  2  1  0  0  0
  2  3  1  0  0  0
  2  5  1  0  0  0
  5  6  2  0  0  0
  6  7  1  0  0  0
  7  8  1  0  0  0
  7  9  2  0  0  0
  9 10  1  0  0  0
 10 11  1  0  0  0
 10 12  2  0  0  0
 23 24  1  0  0  0
 24 25  2  0  0  0
 25 20  1  0  0  0
 12  5  1  0  0  0
 15 16  1  0  0  0
  3  4  1  0  0  0
  8 13  1  0  0  0
 11 14  1  0  0  0
M  END
> <minimizedAffinity>
-8.38403

> <CNNscore>
0.4458267391

> <CNNaffinity>
7.0393042564

> <CNN_VS>
3.1383099556

> <CNNaffinity_variance>
0.1708779782

$$$$
[H]Oc1c([H])c(O[H])c([H])c([C@@]([H])(O[H])C([H])([H])N([H])[C@@]([H])(C([H])([H])[H])C([H])([H])c2c([H])c([H])c(OC([H])([H])[H])c([H])c2[H])c1[H]


 27 28  0  0  0  0  0  0  0  0999 V2000
   11.6281   43.9425  133.6728 C   0  0  0  0  0  0  0  0  0  0  0  0
   12.2105   43.7935  132.3112 C   0  0  0  0  0  0  0  0  0  0  0  0
   12.9949   44.9700  132.0182 O   0  0  0  0  0  0  0  0  0  0  0  0
   13.9134   44.6616  131.9570 H   0  0  0  0  0  0  0  0  0  0  0  0
   11.2070   43.7755  131.2000 C   0  0  0  0  0  0  0  0  0  0  0  0
   10.1097   42.9666  131.1810 C   0  0  0  0  0  0  0  0  0  0  0  0
    9.1941   42.9833  130.1230 C   0  0  0  0  0  0  0  0  0  0  0  0
    8.0756   42.1684  130.0887 O   0  0  0  0  0  0  0  0  0  0  0  0
    9.4213   43.8457  129.0807 C   0  0  0  0  0  0  0  0  0  0  0  0
   10.5072   44.6832  129.0443 C   0  0  0  0  0  0  0  0  0  0  0  0
   10.7031   45.5431  127.9717 O   0  0  0  0  0  0  0  0  0  0  0  0
   11.3825   44.6322  130.1082 C   0  0  0  0  0  0  0  0  0  0  0  0
    7.2292   42.5732  130.5196 H   0  0  0  0  0  0  0  0  0  0  0  0
   10.2641   46.4698  128.0814 H   0  0  0  0  0  0  0  0  0  0  0  0
   11.3917   45.2063  134.2021 N   0  0  0  0  0  0  0  0  0  0  0  0
   11.8856   45.4180  135.1053 H   0  0  0  0  0  0  0  0  0  0  0  0
   10.2795   45.9832  133.9163 C   0  0  0  0  0  0  0  0  0  0  0  0
    9.4372   46.2824  135.1232 C   0  0  0  0  0  0  0  0  0  0  0  0
   10.5067   47.2112  133.0776 C   0  0  0  0  0  0  0  0  0  0  0  0
    7.7276   47.1861  129.7760 C   0  0  0  0  0  0  0  0  0  0  0  0
    8.7896   48.0648  129.8186 C   0  0  0  0  0  0  0  0  0  0  0  0
    9.6836   48.0712  130.8767 C   0  0  0  0  0  0  0  0  0  0  0  0
    9.5501   47.1949  131.9388 C   0  0  0  0  0  0  0  0  0  0  0  0
    8.4872   46.3145  131.8974 C   0  0  0  0  0  0  0  0  0  0  0  0
    7.5982   46.3144  130.8367 C   0  0  0  0  0  0  0  0  0  0  0  0
    5.5100   47.6794  128.8456 C   0  0  0  0  0  0  0  0  0  0  0  0
    6.8149   47.1599  128.7231 O   0  0  0  0  0  0  0  0  0  0  0  0
 26 27  1  0  0  0
 27 20  1  0  0  0
 20 21  2  0  0  0
 21 22  1  0  0  0
 22 23  2  0  0  0
 23 19  1  0  0  0
 19 17  1  0  0  0
 17 18  1  0  0  0
 17 15  1  0  0  0
 15  1  1  0  0  0
  1  2  1  0  0  0
  2  3  1  0  0  0
  2  5  1  0  0  0
  5  6  2  0  0  0
  6  7  1  0  0  0
  7  8  1  0  0  0
  7  9  2  0  0  0
  9 10  1  0  0  0
 10 11  1  0  0  0
 10 12  2  0  0  0
 23 24  1  0  0  0
 24 25  2  0  0  0
 25 20  1  0  0  0
 12  5  1  0  0  0
 15 16  1  0  0  0
  3  4  1  0  0  0
  8 13  1  0  0  0
 11 14  1  0  0  0
M  END
> <minimizedAffinity>
-8.07716

> <CNNscore>
0.3067013323

> <CNNaffinity>
7.0497918129

> <CNN_VS>
2.1621804237

> <CNNaffinity_variance>
0.3514574170

$$$$
[H]Oc1c([H])c(O[H])c([H])c([C@@]([H])(O[H])C([H])([H])N([H])[C@@]([H])(C([H])([H])[H])C([H])([H])c2c([H])c([H])c(OC([H])([H])[H])c([H])c2[H])c1[H]


 27 28  0  0  0  0  0  0  0  0999 V2000
    9.9127   46.0407  128.9924 C   0  0  0  0  0  0  0  0  0  0  0  0
    9.7904   47.2946  129.7849 C   0  0  0  0  0  0  0  0  0  0  0  0
    9.8330   46.9549  131.1878 O   0  0  0  0  0  0  0  0  0  0  0  0
   10.6522   47.3506  131.5264 H   0  0  0  0  0  0  0  0  0  0  0  0
    8.4731   47.9939  129.6502 C   0  0  0  0  0  0  0  0  0  0  0  0
    8.3301   49.3498  129.6480 C   0  0  0  0  0  0  0  0  0  0  0  0
    7.0795   49.9635  129.5167 C   0  0  0  0  0  0  0  0  0  0  0  0
    6.9175   51.3383  129.5129 O   0  0  0  0  0  0  0  0  0  0  0  0
    5.9733   49.1628  129.3867 C   0  0  0  0  0  0  0  0  0  0  0  0
    6.0548   47.7933  129.3816 C   0  0  0  0  0  0  0  0  0  0  0  0
    4.9120   47.0161  129.2473 O   0  0  0  0  0  0  0  0  0  0  0  0
    7.3073   47.2328  129.5138 C   0  0  0  0  0  0  0  0  0  0  0  0
    6.9715   51.7800  128.5813 H   0  0  0  0  0  0  0  0  0  0  0  0
    4.6619   46.7891  128.2728 H   0  0  0  0  0  0  0  0  0  0  0  0
    9.0034   45.0042  129.1714 N   0  0  0  0  0  0  0  0  0  0  0  0
    8.3328   45.1239  129.9717 H   0  0  0  0  0  0  0  0  0  0  0  0
    9.1903   43.7071  128.7186 C   0  0  0  0  0  0  0  0  0  0  0  0
   10.4367   43.5376  127.8980 C   0  0  0  0  0  0  0  0  0  0  0  0
    9.0367   42.6058  129.7318 C   0  0  0  0  0  0  0  0  0  0  0  0
   10.5432   44.0147  133.5226 C   0  0  0  0  0  0  0  0  0  0  0  0
    9.2095   44.1255  133.1899 C   0  0  0  0  0  0  0  0  0  0  0  0
    8.7249   43.6707  131.9745 C   0  0  0  0  0  0  0  0  0  0  0  0
    9.5591   43.0844  131.0396 C   0  0  0  0  0  0  0  0  0  0  0  0
   10.8948   42.9727  131.3714 C   0  0  0  0  0  0  0  0  0  0  0  0
   11.3711   43.4296  132.5878 C   0  0  0  0  0  0  0  0  0  0  0  0
   11.6282   43.5886  135.6832 C   0  0  0  0  0  0  0  0  0  0  0  0
   11.0549   44.4642  134.7384 O   0  0  0  0  0  0  0  0  0  0  0  0
 26 27  1  0  0  0
 27 20  1  0  0  0
 20 21  2  0  0  0
 21 22  1  0  0  0
 22 23  2  0  0  0
 23 19  1  0  0  0
 19 17  1  0  0  0
 17 18  1  0  0  0
 17 15  1  0  0  0
 15  1  1  0  0  0
  1  2  1  0  0  0
  2  3  1  0  0  0
  2  5  1  0  0  0
  5  6  2  0  0  0
  6  7  1  0  0  0
  7  8  1  0  0  0
  7  9  2  0  0  0
  9 10  1  0  0  0
 10 11  1  0  0  0
 10 12  2  0  0  0
 23 24  1  0  0  0
 24 25  2  0  0  0
 25 20  1  0  0  0
 12  5  1  0  0  0
 15 16  1  0  0  0
  3  4  1  0  0  0
  8 13  1  0  0  0
 11 14  1  0  0  0
M  END
> <minimizedAffinity>
-7.15755

> <CNNscore>
0.3012575507

> <CNNaffinity>
6.7280211449

> <CNN_VS>
2.0268671513

> <CNNaffinity_variance>
0.5964537859

$$$$
[H]Oc1c([H])c(O[H])c([H])c([C@@]([H])(O[H])C([H])([H])N([H])[C@@]([H])(C([H])([H])[H])C([H])([H])c2c([H])c([H])c(OC([H])([H])[H])c([H])c2[H])c1[H]


 27 28  0  0  0  0  0  0  0  0999 V2000
   11.5889   43.8569  133.5436 C   0  0  0  0  0  0  0  0  0  0  0  0
   12.2151   43.7909  132.1950 C   0  0  0  0  0  0  0  0  0  0  0  0
   13.0196   44.9750  132.0059 O   0  0  0  0  0  0  0  0  0  0  0  0
   13.9367   44.6608  131.9545 H   0  0  0  0  0  0  0  0  0  0  0  0
   11.2491   43.8572  131.0527 C   0  0  0  0  0  0  0  0  0  0  0  0
   11.3983   44.6845  129.9793 C   0  0  0  0  0  0  0  0  0  0  0  0
   10.4724   44.7131  128.9306 C   0  0  0  0  0  0  0  0  0  0  0  0
   10.6094   45.5472  127.8343 O   0  0  0  0  0  0  0  0  0  0  0  0
    9.3871   43.8770  128.9991 C   0  0  0  0  0  0  0  0  0  0  0  0
    9.1838   43.0228  130.0531 C   0  0  0  0  0  0  0  0  0  0  0  0
    8.0728   42.1906  130.0866 O   0  0  0  0  0  0  0  0  0  0  0  0
   10.1218   43.0290  131.0634 C   0  0  0  0  0  0  0  0  0  0  0  0
   11.1391   45.1445  127.0449 H   0  0  0  0  0  0  0  0  0  0  0  0
    8.2162   41.2686  129.6474 H   0  0  0  0  0  0  0  0  0  0  0  0
   11.3491   45.0859  134.1481 N   0  0  0  0  0  0  0  0  0  0  0  0
   11.8058   45.2263  135.0842 H   0  0  0  0  0  0  0  0  0  0  0  0
   10.2627   45.9010  133.8690 C   0  0  0  0  0  0  0  0  0  0  0  0
    9.4078   46.1844  135.0707 C   0  0  0  0  0  0  0  0  0  0  0  0
   10.5366   47.1483  133.0739 C   0  0  0  0  0  0  0  0  0  0  0  0
    7.7909   47.3209  129.7489 C   0  0  0  0  0  0  0  0  0  0  0  0
    8.8802   48.1627  129.8297 C   0  0  0  0  0  0  0  0  0  0  0  0
    9.7635   48.1057  130.8952 C   0  0  0  0  0  0  0  0  0  0  0  0
    9.5913   47.2001  131.9268 C   0  0  0  0  0  0  0  0  0  0  0  0
    8.5010   46.3566  131.8472 C   0  0  0  0  0  0  0  0  0  0  0  0
    7.6231   46.4199  130.7792 C   0  0  0  0  0  0  0  0  0  0  0  0
    5.5068   47.5621  128.8820 C   0  0  0  0  0  0  0  0  0  0  0  0
    6.8883   47.3586  128.6877 O   0  0  0  0  0  0  0  0  0  0  0  0
 26 27  1  0  0  0
 27 20  1  0  0  0
 20 21  2  0  0  0
 21 22  1  0  0  0
 22 23  2  0  0  0
 23 19  1  0  0  0
 19 17  1  0  0  0
 17 18  1  0  0  0
 17 15  1  0  0  0
 15  1  1  0  0  0
  1  2  1  0  0  0
  2  3  1  0  0  0
  2  5  1  0  0  0
  5  6  2  0  0  0
  6  7  1  0  0  0
  7  8  1  0  0  0
  7  9  2  0  0  0
  9 10  1  0  0  0
 10 11  1  0  0  0
 10 12  2  0  0  0
 23 24  1  0  0  0
 24 25  2  0  0  0
 25 20  1  0  0  0
 12  5  1  0  0  0
 15 16  1  0  0  0
  3  4  1  0  0  0
  8 13  1  0  0  0
 11 14  1  0  0  0
M  END
> <minimizedAffinity>
-8.09218

> <CNNscore>
0.3008889556

> <CNNaffinity>
7.0279135704

> <CNN_VS>
2.1146216393

> <CNNaffinity_variance>
0.4200217724

$$$$
[H]Oc1c([H])c(O[H])c([H])c([C@@]([H])(O[H])C([H])([H])N([H])[C@@]([H])(C([H])([H])[H])C([H])([H])c2c([H])c([H])c(OC([H])([H])[H])c([H])c2[H])c1[H]


 27 28  0  0  0  0  0  0  0  0999 V2000
   11.3801   44.0370  130.5580 C   0  0  0  0  0  0  0  0  0  0  0  0
   10.3410   42.9788  130.6833 C   0  0  0  0  0  0  0  0  0  0  0  0
    9.4885   43.0349  129.5191 O   0  0  0  0  0  0  0  0  0  0  0  0
    9.6408   42.2016  129.0450 H   0  0  0  0  0  0  0  0  0  0  0  0
    9.3781   43.1781  131.8126 C   0  0  0  0  0  0  0  0  0  0  0  0
    8.9518   44.4006  132.2401 C   0  0  0  0  0  0  0  0  0  0  0  0
    8.0478   44.5424  133.2987 C   0  0  0  0  0  0  0  0  0  0  0  0
    7.6056   45.7761  133.7446 O   0  0  0  0  0  0  0  0  0  0  0  0
    7.5853   43.4073  133.9146 C   0  0  0  0  0  0  0  0  0  0  0  0
    7.9778   42.1508  133.5286 C   0  0  0  0  0  0  0  0  0  0  0  0
    7.4870   41.0249  134.1764 O   0  0  0  0  0  0  0  0  0  0  0  0
    8.8697   42.0596  132.4814 C   0  0  0  0  0  0  0  0  0  0  0  0
    6.7542   46.1275  133.2783 H   0  0  0  0  0  0  0  0  0  0  0  0
    6.6190   40.6432  133.7710 H   0  0  0  0  0  0  0  0  0  0  0  0
   11.0876   45.3534  130.8965 N   0  0  0  0  0  0  0  0  0  0  0  0
   10.6108   45.9175  130.1487 H   0  0  0  0  0  0  0  0  0  0  0  0
   11.7396   46.0749  131.8849 C   0  0  0  0  0  0  0  0  0  0  0  0
   13.1799   45.6845  132.0537 C   0  0  0  0  0  0  0  0  0  0  0  0
   11.5669   47.5691  131.8602 C   0  0  0  0  0  0  0  0  0  0  0  0
    7.7020   48.5078  130.1852 C   0  0  0  0  0  0  0  0  0  0  0  0
    8.8517   48.5694  129.4261 C   0  0  0  0  0  0  0  0  0  0  0  0
   10.0921   48.2653  129.9625 C   0  0  0  0  0  0  0  0  0  0  0  0
   10.2322   47.8857  131.2854 C   0  0  0  0  0  0  0  0  0  0  0  0
    9.0818   47.8236  132.0466 C   0  0  0  0  0  0  0  0  0  0  0  0
    7.8461   48.1291  131.5032 C   0  0  0  0  0  0  0  0  0  0  0  0
    6.1270   48.6326  128.3062 C   0  0  0  0  0  0  0  0  0  0  0  0
    6.4429   48.8086  129.6689 O   0  0  0  0  0  0  0  0  0  0  0  0
 26 27  1  0  0  0
 27 20  1  0  0  0
 20 21  2  0  0  0
 21 22  1  0  0  0
 22 23  2  0  0  0
 23 19  1  0  0  0
 19 17  1  0  0  0
 17 18  1  0  0  0
 17 15  1  0  0  0
 15  1  1  0  0  0
  1  2  1  0  0  0
  2  3  1  0  0  0
  2  5  1  0  0  0
  5  6  2  0  0  0
  6  7  1  0  0  0
  7  8  1  0  0  0
  7  9  2  0  0  0
  9 10  1  0  0  0
 10 11  1  0  0  0
 10 12  2  0  0  0
 23 24  1  0  0  0
 24 25  2  0  0  0
 25 20  1  0  0  0
 12  5  1  0  0  0
 15 16  1  0  0  0
  3  4  1  0  0  0
  8 13  1  0  0  0
 11 14  1  0  0  0
M  END
> <minimizedAffinity>
2.88698

> <CNNscore>
0.2641118467

> <CNNaffinity>
6.1841149330

> <CNN_VS>
1.6332980394

> <CNNaffinity_variance>
1.0701636076

$$$$
[H]Oc1c([H])c(O[H])c([H])c([C@@]([H])(O[H])C([H])([H])N([H])[C@@]([H])(C([H])([H])[H])C([H])([H])c2c([H])c([H])c(OC([H])([H])[H])c([H])c2[H])c1[H]


 27 28  0  0  0  0  0  0  0  0999 V2000
    9.1387   48.0879  133.0793 C   0  0  0  0  0  0  0  0  0  0  0  0
    9.5327   48.1469  131.6453 C   0  0  0  0  0  0  0  0  0  0  0  0
   10.4253   49.2671  131.4619 O   0  0  0  0  0  0  0  0  0  0  0  0
   11.2815   48.8802  131.2181 H   0  0  0  0  0  0  0  0  0  0  0  0
    8.4121   48.4542  130.7007 C   0  0  0  0  0  0  0  0  0  0  0  0
    7.5721   47.5113  130.1868 C   0  0  0  0  0  0  0  0  0  0  0  0
    6.5345   47.8420  129.3082 C   0  0  0  0  0  0  0  0  0  0  0  0
    5.6736   46.8966  128.7778 O   0  0  0  0  0  0  0  0  0  0  0  0
    6.3702   49.1595  128.9634 C   0  0  0  0  0  0  0  0  0  0  0  0
    7.1835   50.1522  129.4484 C   0  0  0  0  0  0  0  0  0  0  0  0
    6.9854   51.4753  129.0766 O   0  0  0  0  0  0  0  0  0  0  0  0
    8.1924   49.7796  130.3109 C   0  0  0  0  0  0  0  0  0  0  0  0
    4.8263   46.7162  129.3394 H   0  0  0  0  0  0  0  0  0  0  0  0
    6.3430   51.9997  129.6897 H   0  0  0  0  0  0  0  0  0  0  0  0
    9.8658   47.3141  133.9771 N   0  0  0  0  0  0  0  0  0  0  0  0
   10.9103   47.4153  133.9189 H   0  0  0  0  0  0  0  0  0  0  0  0
    9.3958   46.1562  134.5778 C   0  0  0  0  0  0  0  0  0  0  0  0
    8.0018   45.7908  134.1551 C   0  0  0  0  0  0  0  0  0  0  0  0
   10.3127   44.9637  134.5632 C   0  0  0  0  0  0  0  0  0  0  0  0
   12.0667   44.5963  130.6372 C   0  0  0  0  0  0  0  0  0  0  0  0
   10.7751   44.1856  130.8918 C   0  0  0  0  0  0  0  0  0  0  0  0
   10.2106   44.3062  132.1510 C   0  0  0  0  0  0  0  0  0  0  0  0
   10.9190   44.8447  133.2103 C   0  0  0  0  0  0  0  0  0  0  0  0
   12.2124   45.2563  132.9567 C   0  0  0  0  0  0  0  0  0  0  0  0
   12.7692   45.1324  131.6958 C   0  0  0  0  0  0  0  0  0  0  0  0
   14.0537   44.3985  129.2091 C   0  0  0  0  0  0  0  0  0  0  0  0
   12.6569   44.4858  129.3796 O   0  0  0  0  0  0  0  0  0  0  0  0
 26 27  1  0  0  0
 27 20  1  0  0  0
 20 21  2  0  0  0
 21 22  1  0  0  0
 22 23  2  0  0  0
 23 19  1  0  0  0
 19 17  1  0  0  0
 17 18  1  0  0  0
 17 15  1  0  0  0
 15  1  1  0  0  0
  1  2  1  0  0  0
  2  3  1  0  0  0
  2  5  1  0  0  0
  5  6  2  0  0  0
  6  7  1  0  0  0
  7  8  1  0  0  0
  7  9  2  0  0  0
  9 10  1  0  0  0
 10 11  1  0  0  0
 10 12  2  0  0  0
 23 24  1  0  0  0
 24 25  2  0  0  0
 25 20  1  0  0  0
 12  5  1  0  0  0
 15 16  1  0  0  0
  3  4  1  0  0  0
  8 13  1  0  0  0
 11 14  1  0  0  0
M  END
> <minimizedAffinity>
-7.19683

> <CNNscore>
0.2532025278

> <CNNaffinity>
6.5552315712

> <CNN_VS>
1.6598012447

> <CNNaffinity_variance>
0.2404403239

$$$$
[H]Oc1c([H])c(O[H])c([H])c([C@@]([H])(O[H])C([H])([H])N([H])[C@@]([H])(C([H])([H])[H])C([H])([H])c2c([H])c([H])c(OC([H])([H])[H])c([H])c2[H])c1[H]


 27 28  0  0  0  0  0  0  0  0999 V2000
    8.2443   45.4734  129.1263 C   0  0  0  0  0  0  0  0  0  0  0  0
    7.6348   46.1395  130.3094 C   0  0  0  0  0  0  0  0  0  0  0  0
    6.2010   46.1540  130.1379 O   0  0  0  0  0  0  0  0  0  0  0  0
    5.8493   45.5829  130.8396 H   0  0  0  0  0  0  0  0  0  0  0  0
    7.9692   47.5923  130.4509 C   0  0  0  0  0  0  0  0  0  0  0  0
    7.4801   48.5671  129.6327 C   0  0  0  0  0  0  0  0  0  0  0  0
    7.8161   49.9149  129.8017 C   0  0  0  0  0  0  0  0  0  0  0  0
    7.3282   50.9162  128.9797 O   0  0  0  0  0  0  0  0  0  0  0  0
    8.6643   50.2494  130.8265 C   0  0  0  0  0  0  0  0  0  0  0  0
    9.1877   49.3131  131.6816 C   0  0  0  0  0  0  0  0  0  0  0  0
   10.0431   49.6907  132.7082 O   0  0  0  0  0  0  0  0  0  0  0  0
    8.8290   47.9978  131.4771 C   0  0  0  0  0  0  0  0  0  0  0  0
    6.4400   51.3404  129.2911 H   0  0  0  0  0  0  0  0  0  0  0  0
    9.5703   49.9210  133.5953 H   0  0  0  0  0  0  0  0  0  0  0  0
    8.3655   44.0889  129.0836 N   0  0  0  0  0  0  0  0  0  0  0  0
    7.6124   43.5533  129.5841 H   0  0  0  0  0  0  0  0  0  0  0  0
    9.5536   43.4100  128.8601 C   0  0  0  0  0  0  0  0  0  0  0  0
   10.6000   44.2493  128.1848 C   0  0  0  0  0  0  0  0  0  0  0  0
   10.1221   42.6372  130.0188 C   0  0  0  0  0  0  0  0  0  0  0  0
   10.0166   45.1226  133.5453 C   0  0  0  0  0  0  0  0  0  0  0  0
   11.0342   45.2254  132.6202 C   0  0  0  0  0  0  0  0  0  0  0  0
   11.0668   44.4301  131.4866 C   0  0  0  0  0  0  0  0  0  0  0  0
   10.0785   43.4960  131.2324 C   0  0  0  0  0  0  0  0  0  0  0  0
    9.0591   43.3920  132.1578 C   0  0  0  0  0  0  0  0  0  0  0  0
    9.0336   44.1904  133.2880 C   0  0  0  0  0  0  0  0  0  0  0  0
    8.8738   46.7659  134.9667 C   0  0  0  0  0  0  0  0  0  0  0  0
    9.9612   45.9111  134.6931 O   0  0  0  0  0  0  0  0  0  0  0  0
 26 27  1  0  0  0
 27 20  1  0  0  0
 20 21  2  0  0  0
 21 22  1  0  0  0
 22 23  2  0  0  0
 23 19  1  0  0  0
 19 17  1  0  0  0
 17 18  1  0  0  0
 17 15  1  0  0  0
 15  1  1  0  0  0
  1  2  1  0  0  0
  2  3  1  0  0  0
  2  5  1  0  0  0
  5  6  2  0  0  0
  6  7  1  0  0  0
  7  8  1  0  0  0
  7  9  2  0  0  0
  9 10  1  0  0  0
 10 11  1  0  0  0
 10 12  2  0  0  0
 23 24  1  0  0  0
 24 25  2  0  0  0
 25 20  1  0  0  0
 12  5  1  0  0  0
 15 16  1  0  0  0
  3  4  1  0  0  0
  8 13  1  0  0  0
 11 14  1  0  0  0
M  END
> <minimizedAffinity>
-7.91556

> <CNNscore>
0.2495861053

> <CNNaffinity>
6.7843995094

> <CNN_VS>
1.6932919025

> <CNNaffinity_variance>
0.0491124503

$$$$
[H]Oc1c([H])c(O[H])c([H])c([C@@]([H])(O[H])C([H])([H])N([H])[C@@]([H])(C([H])([H])[H])C([H])([H])c2c([H])c([H])c(OC([H])([H])[H])c([H])c2[H])c1[H]


 27 28  0  0  0  0  0  0  0  0999 V2000
   10.0003   42.9687  133.3818 C   0  0  0  0  0  0  0  0  0  0  0  0
   10.7765   42.3172  132.2917 C   0  0  0  0  0  0  0  0  0  0  0  0
   12.1830   42.4420  132.5943 O   0  0  0  0  0  0  0  0  0  0  0  0
   12.4969   41.5366  132.7497 H   0  0  0  0  0  0  0  0  0  0  0  0
   10.6614   42.9850  130.9564 C   0  0  0  0  0  0  0  0  0  0  0  0
    9.5506   42.9203  130.1684 C   0  0  0  0  0  0  0  0  0  0  0  0
    9.4836   43.5622  128.9269 C   0  0  0  0  0  0  0  0  0  0  0  0
    8.3636   43.5060  128.1152 O   0  0  0  0  0  0  0  0  0  0  0  0
   10.5768   44.2747  128.5040 C   0  0  0  0  0  0  0  0  0  0  0  0
   11.7217   44.3759  129.2529 C   0  0  0  0  0  0  0  0  0  0  0  0
   12.8082   45.1070  128.7911 O   0  0  0  0  0  0  0  0  0  0  0  0
   11.7425   43.7270  130.4691 C   0  0  0  0  0  0  0  0  0  0  0  0
    7.6711   44.2545  128.2771 H   0  0  0  0  0  0  0  0  0  0  0  0
   12.8003   46.1018  129.0631 H   0  0  0  0  0  0  0  0  0  0  0  0
    9.7059   44.3262  133.3210 N   0  0  0  0  0  0  0  0  0  0  0  0
    9.3066   44.6621  132.4086 H   0  0  0  0  0  0  0  0  0  0  0  0
   10.2846   45.2934  134.1285 C   0  0  0  0  0  0  0  0  0  0  0  0
   11.6669   45.6843  133.6905 C   0  0  0  0  0  0  0  0  0  0  0  0
    9.4431   46.4966  134.4558 C   0  0  0  0  0  0  0  0  0  0  0  0
    8.8292   48.7575  130.8314 C   0  0  0  0  0  0  0  0  0  0  0  0
    8.3524   47.4708  130.9688 C   0  0  0  0  0  0  0  0  0  0  0  0
    8.5466   46.7458  132.1330 C   0  0  0  0  0  0  0  0  0  0  0  0
    9.2285   47.2816  133.2108 C   0  0  0  0  0  0  0  0  0  0  0  0
    9.7064   48.5699  133.0747 C   0  0  0  0  0  0  0  0  0  0  0  0
    9.5083   49.2877  131.9081 C   0  0  0  0  0  0  0  0  0  0  0  0
    7.3851   50.0073  129.2889 C   0  0  0  0  0  0  0  0  0  0  0  0
    8.6468   49.5072  129.6709 O   0  0  0  0  0  0  0  0  0  0  0  0
 26 27  1  0  0  0
 27 20  1  0  0  0
 20 21  2  0  0  0
 21 22  1  0  0  0
 22 23  2  0  0  0
 23 19  1  0  0  0
 19 17  1  0  0  0
 17 18  1  0  0  0
 17 15  1  0  0  0
 15  1  1  0  0  0
  1  2  1  0  0  0
  2  3  1  0  0  0
  2  5  1  0  0  0
  5  6  2  0  0  0
  6  7  1  0  0  0
  7  8  1  0  0  0
  7  9  2  0  0  0
  9 10  1  0  0  0
 10 11  1  0  0  0
 10 12  2  0  0  0
 23 24  1  0  0  0
 24 25  2  0  0  0
 25 20  1  0  0  0
 12  5  1  0  0  0
 15 16  1  0  0  0
  3  4  1  0  0  0
  8 13  1  0  0  0
 11 14  1  0  0  0
M  END
> <minimizedAffinity>
-7.86829

> <CNNscore>
0.2280389965

> <CNNaffinity>
6.6794710159

> <CNN_VS>
1.5231798887

> <CNNaffinity_variance>
0.3102812171

$$$$
[H]c1nc(N2C([H])([H])C([H])([H])C(N3C([H])([H])C([H])([H])OC([H])([H])C3([H])[H])(C([H])(C([H])([H])[H])C([H])([H])[H])C([H])([H])C2([H])[H])c([H])c2c1C(=O)c1c(n([H])c3c([H])c(C#N)c([H])c([H])c13)C2(C([H])([H])[H])C([H])([H])[H]


 38 43  0  0  0  0  0  0  0  0999 V2000
   10.0371   42.0901  128.8517 C   0  0  0  0  0  0  0  0  0  0  0  0
    9.9154   43.4153  128.5247 C   0  0  0  0  0  0  0  0  0  0  0  0
    9.9068   44.4151  129.5071 C   0  0  0  0  0  0  0  0  0  0  0  0
   10.0250   44.0184  130.8139 C   0  0  0  0  0  0  0  0  0  0  0  0
   10.1465   42.6732  131.1182 C   0  0  0  0  0  0  0  0  0  0  0  0
   10.1502   41.7481  130.1464 N   0  0  0  0  0  0  0  0  0  0  0  0
   10.0225   45.0146  131.8723 C   0  0  0  0  0  0  0  0  0  0  0  0
   10.1312   44.6573  133.0839 O   0  0  0  0  0  0  0  0  0  0  0  0
    9.8944   46.4160  131.5216 C   0  0  0  0  0  0  0  0  0  0  0  0
    9.7788   46.7633  130.1982 C   0  0  0  0  0  0  0  0  0  0  0  0
    9.6720   48.1196  130.1154 N   0  0  0  0  0  0  0  0  0  0  0  0
    9.7165   48.6503  131.3592 C   0  0  0  0  0  0  0  0  0  0  0  0
    9.6503   49.9528  131.8213 C   0  0  0  0  0  0  0  0  0  0  0  0
    9.7232   50.1979  133.1693 C   0  0  0  0  0  0  0  0  0  0  0  0
    9.8616   49.1251  134.0252 C   0  0  0  0  0  0  0  0  0  0  0  0
    9.9276   47.8281  133.5683 C   0  0  0  0  0  0  0  0  0  0  0  0
    9.8548   47.5870  132.2281 C   0  0  0  0  0  0  0  0  0  0  0  0
    9.7752   45.8099  129.0878 C   0  0  0  0  0  0  0  0  0  0  0  0
   10.9272   46.2089  128.1551 C   0  0  0  0  0  0  0  0  0  0  0  0
    8.5024   46.0647  128.2821 C   0  0  0  0  0  0  0  0  0  0  0  0
    9.5714   48.6948  129.2596 H   0  0  0  0  0  0  0  0  0  0  0  0
   10.4559   38.9952  125.7310 C   0  0  0  0  0  0  0  0  0  0  0  0
   10.6658   40.5182  125.5902 C   0  0  0  0  0  0  0  0  0  0  0  0
    9.7522   41.3267  126.4535 C   0  0  0  0  0  0  0  0  0  0  0  0
   10.0480   41.0656  127.8488 N   0  0  0  0  0  0  0  0  0  0  0  0
   10.3581   39.6756  128.1600 C   0  0  0  0  0  0  0  0  0  0  0  0
    9.7224   38.8664  127.0491 C   0  0  0  0  0  0  0  0  0  0  0  0
   11.7379   38.4420  125.7391 N   0  0  0  0  0  0  0  0  0  0  0  0
   12.0813   37.2367  126.2934 C   0  0  0  0  0  0  0  0  0  0  0  0
   13.3398   37.3032  127.1242 C   0  0  0  0  0  0  0  0  0  0  0  0
   14.3297   38.0695  126.5695 O   0  0  0  0  0  0  0  0  0  0  0  0
   13.8844   39.3514  126.2326 C   0  0  0  0  0  0  0  0  0  0  0  0
   12.8109   39.1629  125.1805 C   0  0  0  0  0  0  0  0  0  0  0  0
    8.1149   38.7061  124.8123 C   0  0  0  0  0  0  0  0  0  0  0  0
    9.6145   38.4763  124.6133 C   0  0  0  0  0  0  0  0  0  0  0  0
    9.8968   38.9702  123.2385 C   0  0  0  0  0  0  0  0  0  0  0  0
    9.6569   51.5589  133.6917 C   0  0  0  0  0  0  0  0  0  0  0  0
    9.6191   52.6340  134.1147 N   0  0  0  0  0  0  0  0  0  0  0  0
 34 35  1  0  0  0
 35 36  1  0  0  0
 35 22  1  0  0  0
 22 28  1  0  0  0
 28 29  1  0  0  0
 29 30  1  0  0  0
 30 31  1  0  0  0
 31 32  1  0  0  0
 32 33  1  0  0  0
 22 23  1  0  0  0
 23 24  1  0  0  0
 24 25  1  0  0  0
 25  1  1  0  0  0
  1  2  2  0  0  0
  2  3  1  0  0  0
  3  4  2  0  0  0
  4  5  1  0  0  0
  5  6  2  0  0  0
  4  7  1  0  0  0
  7  8  2  0  0  0
  7  9  1  0  0  0
  9 10  2  0  0  0
 10 11  1  0  0  0
 11 12  1  0  0  0
 12 13  2  0  0  0
 13 14  1  0  0  0
 14 37  1  0  0  0
 37 38  3  0  0  0
 14 15  2  0  0  0
 15 16  1  0  0  0
 16 17  2  0  0  0
 10 18  1  0  0  0
 18 19  1  0  0  0
 18 20  1  0  0  0
 25 26  1  0  0  0
 26 27  1  0  0  0
 27 22  1  0  0  0
 33 28  1  0  0  0
  6  1  1  0  0  0
 17  9  1  0  0  0
 18  3  1  0  0  0
 17 12  1  0  0  0
 11 21  1  0  0  0
M  END
> <minimizedAffinity>
41.48734

> <CNNscore>
0.4585188925

> <CNNaffinity>
7.3297743797

> <CNN_VS>
3.3608400822

> <CNNaffinity_variance>
0.2241220474

$$$$
[H]c1nc(N2C([H])([H])C([H])([H])C(N3C([H])([H])C([H])([H])OC([H])([H])C3([H])[H])(C([H])(C([H])([H])[H])C([H])([H])[H])C([H])([H])C2([H])[H])c([H])c2c1C(=O)c1c(n([H])c3c([H])c(C#N)c([H])c([H])c13)C2(C([H])([H])[H])C([H])([H])[H]


 38 43  0  0  0  0  0  0  0  0999 V2000
    7.9636   46.1330  130.6892 C   0  0  0  0  0  0  0  0  0  0  0  0
    7.9158   47.4333  130.2595 C   0  0  0  0  0  0  0  0  0  0  0  0
    6.7180   48.0192  129.8274 C   0  0  0  0  0  0  0  0  0  0  0  0
    5.5895   47.2414  129.8500 C   0  0  0  0  0  0  0  0  0  0  0  0
    5.6642   45.9303  130.2886 C   0  0  0  0  0  0  0  0  0  0  0  0
    6.8318   45.4083  130.6938 N   0  0  0  0  0  0  0  0  0  0  0  0
    4.3206   47.7997  129.4132 C   0  0  0  0  0  0  0  0  0  0  0  0
    3.2716   47.0879  129.4303 O   0  0  0  0  0  0  0  0  0  0  0  0
    4.2746   49.1765  128.9599 C   0  0  0  0  0  0  0  0  0  0  0  0
    5.4320   49.9153  128.9559 C   0  0  0  0  0  0  0  0  0  0  0  0
    5.1449   51.1652  128.4945 N   0  0  0  0  0  0  0  0  0  0  0  0
    3.8263   51.2441  128.2020 C   0  0  0  0  0  0  0  0  0  0  0  0
    3.0386   52.2704  127.7112 C   0  0  0  0  0  0  0  0  0  0  0  0
    1.6984   52.0581  127.5082 C   0  0  0  0  0  0  0  0  0  0  0  0
    1.1783   50.8153  127.8042 C   0  0  0  0  0  0  0  0  0  0  0  0
    1.9596   49.7923  128.2926 C   0  0  0  0  0  0  0  0  0  0  0  0
    3.2913   50.0056  128.4934 C   0  0  0  0  0  0  0  0  0  0  0  0
    6.7384   49.4123  129.3831 C   0  0  0  0  0  0  0  0  0  0  0  0
    7.2241   50.3357  130.5090 C   0  0  0  0  0  0  0  0  0  0  0  0
    7.7093   49.6473  128.2271 C   0  0  0  0  0  0  0  0  0  0  0  0
    5.7989   51.9593  128.3711 H   0  0  0  0  0  0  0  0  0  0  0  0
   11.6933   44.4893  132.3864 C   0  0  0  0  0  0  0  0  0  0  0  0
   11.4027   45.9474  131.9704 C   0  0  0  0  0  0  0  0  0  0  0  0
   10.4933   46.0589  130.7896 C   0  0  0  0  0  0  0  0  0  0  0  0
    9.1870   45.5318  131.1334 N   0  0  0  0  0  0  0  0  0  0  0  0
    9.2084   44.3369  131.9683 C   0  0  0  0  0  0  0  0  0  0  0  0
   10.5682   43.7123  131.7364 C   0  0  0  0  0  0  0  0  0  0  0  0
   11.6527   44.4855  133.7821 N   0  0  0  0  0  0  0  0  0  0  0  0
   12.6086   45.0171  134.6077 C   0  0  0  0  0  0  0  0  0  0  0  0
   12.9799   44.1034  135.7504 C   0  0  0  0  0  0  0  0  0  0  0  0
   11.9102   43.4661  136.3199 O   0  0  0  0  0  0  0  0  0  0  0  0
   11.1272   42.7942  135.3762 C   0  0  0  0  0  0  0  0  0  0  0  0
   10.5811   43.8577  134.4458 C   0  0  0  0  0  0  0  0  0  0  0  0
   13.0846   42.5436  131.5578 C   0  0  0  0  0  0  0  0  0  0  0  0
   13.0124   44.0439  131.8498 C   0  0  0  0  0  0  0  0  0  0  0  0
   13.5210   44.6978  130.6139 C   0  0  0  0  0  0  0  0  0  0  0  0
    0.8380   53.1177  126.9921 C   0  0  0  0  0  0  0  0  0  0  0  0
    0.1511   53.9605  126.5996 N   0  0  0  0  0  0  0  0  0  0  0  0
 34 35  1  0  0  0
 35 36  1  0  0  0
 35 22  1  0  0  0
 22 28  1  0  0  0
 28 29  1  0  0  0
 29 30  1  0  0  0
 30 31  1  0  0  0
 31 32  1  0  0  0
 32 33  1  0  0  0
 22 23  1  0  0  0
 23 24  1  0  0  0
 24 25  1  0  0  0
 25  1  1  0  0  0
  1  2  2  0  0  0
  2  3  1  0  0  0
  3  4  2  0  0  0
  4  5  1  0  0  0
  5  6  2  0  0  0
  4  7  1  0  0  0
  7  8  2  0  0  0
  7  9  1  0  0  0
  9 10  2  0  0  0
 10 11  1  0  0  0
 11 12  1  0  0  0
 12 13  2  0  0  0
 13 14  1  0  0  0
 14 37  1  0  0  0
 37 38  3  0  0  0
 14 15  2  0  0  0
 15 16  1  0  0  0
 16 17  2  0  0  0
 10 18  1  0  0  0
 18 19  1  0  0  0
 18 20  1  0  0  0
 25 26  1  0  0  0
 26 27  1  0  0  0
 27 22  1  0  0  0
 33 28  1  0  0  0
  6  1  1  0  0  0
 17  9  1  0  0  0
 18  3  1  0  0  0
 17 12  1  0  0  0
 11 21  1  0  0  0
M  END
> <minimizedAffinity>
41.13291

> <CNNscore>
0.3118953109

> <CNNaffinity>
7.2104721069

> <CNN_VS>
2.2489123344

> <CNNaffinity_variance>
0.6680179238

$$$$
[H]c1nc(N2C([H])([H])C([H])([H])C(N3C([H])([H])C([H])([H])OC([H])([H])C3([H])[H])(C([H])(C([H])([H])[H])C([H])([H])[H])C([H])([H])C2([H])[H])c([H])c2c1C(=O)c1c(n([H])c3c([H])c(C#N)c([H])c([H])c13)C2(C([H])([H])[H])C([H])([H])[H]


 38 43  0  0  0  0  0  0  0  0999 V2000
    8.3728   46.7580  131.0820 C   0  0  0  0  0  0  0  0  0  0  0  0
    8.3146   48.0524  130.6359 C   0  0  0  0  0  0  0  0  0  0  0  0
    7.1564   48.5717  130.0411 C   0  0  0  0  0  0  0  0  0  0  0  0
    6.0778   47.7344  129.9207 C   0  0  0  0  0  0  0  0  0  0  0  0
    6.1619   46.4308  130.3793 C   0  0  0  0  0  0  0  0  0  0  0  0
    7.2905   45.9737  130.9428 N   0  0  0  0  0  0  0  0  0  0  0  0
    4.8514   48.2223  129.3120 C   0  0  0  0  0  0  0  0  0  0  0  0
    3.8485   47.4553  129.1962 O   0  0  0  0  0  0  0  0  0  0  0  0
    4.7940   49.5931  128.8420 C   0  0  0  0  0  0  0  0  0  0  0  0
    5.9010   50.3930  128.9851 C   0  0  0  0  0  0  0  0  0  0  0  0
    5.6129   51.6241  128.4762 N   0  0  0  0  0  0  0  0  0  0  0  0
    4.3431   51.6310  128.0090 C   0  0  0  0  0  0  0  0  0  0  0  0
    3.5756   52.6118  127.4062 C   0  0  0  0  0  0  0  0  0  0  0  0
    2.2878   52.3272  127.0279 C   0  0  0  0  0  0  0  0  0  0  0  0
    1.7989   51.0593  127.2647 C   0  0  0  0  0  0  0  0  0  0  0  0
    2.5604   50.0814  127.8642 C   0  0  0  0  0  0  0  0  0  0  0  0
    3.8400   50.3666  128.2392 C   0  0  0  0  0  0  0  0  0  0  0  0
    7.1628   49.9623  129.5887 C   0  0  0  0  0  0  0  0  0  0  0  0
    7.4436   50.9144  130.7597 C   0  0  0  0  0  0  0  0  0  0  0  0
    8.2664   50.2451  128.5707 C   0  0  0  0  0  0  0  0  0  0  0  0
    6.2347   52.4517  128.4330 H   0  0  0  0  0  0  0  0  0  0  0  0
   11.7976   44.8121  133.0761 C   0  0  0  0  0  0  0  0  0  0  0  0
   10.5225   45.3880  133.7287 C   0  0  0  0  0  0  0  0  0  0  0  0
    9.9877   46.5940  133.0263 C   0  0  0  0  0  0  0  0  0  0  0  0
    9.5555   46.2250  131.6924 N   0  0  0  0  0  0  0  0  0  0  0  0
   10.4179   45.2669  131.0116 C   0  0  0  0  0  0  0  0  0  0  0  0
   11.7694   45.4002  131.6814 C   0  0  0  0  0  0  0  0  0  0  0  0
   11.6392   43.4253  133.1101 N   0  0  0  0  0  0  0  0  0  0  0  0
   12.3049   42.5283  132.3162 C   0  0  0  0  0  0  0  0  0  0  0  0
   11.4001   41.4756  131.7234 C   0  0  0  0  0  0  0  0  0  0  0  0
   10.4596   40.9982  132.5965 O   0  0  0  0  0  0  0  0  0  0  0  0
    9.7144   42.0227  133.1882 C   0  0  0  0  0  0  0  0  0  0  0  0
   10.6976   42.8532  133.9872 C   0  0  0  0  0  0  0  0  0  0  0  0
   12.8500   46.6295  134.4894 C   0  0  0  0  0  0  0  0  0  0  0  0
   13.0141   45.2684  133.8098 C   0  0  0  0  0  0  0  0  0  0  0  0
   13.5678   44.3790  134.8663 C   0  0  0  0  0  0  0  0  0  0  0  0
    1.4498   53.3373  126.3899 C   0  0  0  0  0  0  0  0  0  0  0  0
    0.7952   54.1354  125.8697 N   0  0  0  0  0  0  0  0  0  0  0  0
 34 35  1  0  0  0
 35 36  1  0  0  0
 35 22  1  0  0  0
 22 28  1  0  0  0
 28 29  1  0  0  0
 29 30  1  0  0  0
 30 31  1  0  0  0
 31 32  1  0  0  0
 32 33  1  0  0  0
 22 23  1  0  0  0
 23 24  1  0  0  0
 24 25  1  0  0  0
 25  1  1  0  0  0
  1  2  2  0  0  0
  2  3  1  0  0  0
  3  4  2  0  0  0
  4  5  1  0  0  0
  5  6  2  0  0  0
  4  7  1  0  0  0
  7  8  2  0  0  0
  7  9  1  0  0  0
  9 10  2  0  0  0
 10 11  1  0  0  0
 11 12  1  0  0  0
 12 13  2  0  0  0
 13 14  1  0  0  0
 14 37  1  0  0  0
 37 38  3  0  0  0
 14 15  2  0  0  0
 15 16  1  0  0  0
 16 17  2  0  0  0
 10 18  1  0  0  0
 18 19  1  0  0  0
 18 20  1  0  0  0
 25 26  1  0  0  0
 26 27  1  0  0  0
 27 22  1  0  0  0
 33 28  1  0  0  0
  6  1  1  0  0  0
 17  9  1  0  0  0
 18  3  1  0  0  0
 17 12  1  0  0  0
 11 21  1  0  0  0
M  END
> <minimizedAffinity>
34.82450

> <CNNscore>
0.3049509823

> <CNNaffinity>
7.2650208473

> <CNN_VS>
2.2154753208

> <CNNaffinity_variance>
0.6366676688

$$$$
[H]c1nc(N2C([H])([H])C([H])([H])C(N3C([H])([H])C([H])([H])OC([H])([H])C3([H])[H])(C([H])(C([H])([H])[H])C([H])([H])[H])C([H])([H])C2([H])[H])c([H])c2c1C(=O)c1c(n([H])c3c([H])c(C#N)c([H])c([H])c13)C2(C([H])([H])[H])C([H])([H])[H]


 38 43  0  0  0  0  0  0  0  0999 V2000
   10.3937   42.5505  127.7919 C   0  0  0  0  0  0  0  0  0  0  0  0
   11.0168   43.1437  128.8586 C   0  0  0  0  0  0  0  0  0  0  0  0
   10.5716   44.3659  129.3810 C   0  0  0  0  0  0  0  0  0  0  0  0
    9.4847   44.9502  128.7841 C   0  0  0  0  0  0  0  0  0  0  0  0
    8.8729   44.3306  127.7077 C   0  0  0  0  0  0  0  0  0  0  0  0
    9.3316   43.1603  127.2386 N   0  0  0  0  0  0  0  0  0  0  0  0
    8.9814   46.2177  129.2867 C   0  0  0  0  0  0  0  0  0  0  0  0
    7.9768   46.7658  128.7410 O   0  0  0  0  0  0  0  0  0  0  0  0
    9.6434   46.8415  130.4162 C   0  0  0  0  0  0  0  0  0  0  0  0
   10.7285   46.2170  130.9801 C   0  0  0  0  0  0  0  0  0  0  0  0
   11.1782   46.9825  132.0142 N   0  0  0  0  0  0  0  0  0  0  0  0
   10.4038   48.0864  132.1257 C   0  0  0  0  0  0  0  0  0  0  0  0
   10.4325   49.1630  132.9943 C   0  0  0  0  0  0  0  0  0  0  0  0
    9.4987   50.1603  132.8681 C   0  0  0  0  0  0  0  0  0  0  0  0
    8.5541   50.0527  131.8688 C   0  0  0  0  0  0  0  0  0  0  0  0
    8.5232   48.9827  131.0031 C   0  0  0  0  0  0  0  0  0  0  0  0
    9.4523   47.9928  131.1304 C   0  0  0  0  0  0  0  0  0  0  0  0
   11.2824   44.9422  130.5217 C   0  0  0  0  0  0  0  0  0  0  0  0
   11.2508   43.9860  131.7222 C   0  0  0  0  0  0  0  0  0  0  0  0
   12.7649   45.1745  130.2352 C   0  0  0  0  0  0  0  0  0  0  0  0
   11.9800   46.7899  132.6414 H   0  0  0  0  0  0  0  0  0  0  0  0
   11.4281   38.6533  125.9934 C   0  0  0  0  0  0  0  0  0  0  0  0
   10.4218   38.9361  127.1295 C   0  0  0  0  0  0  0  0  0  0  0  0
   10.8304   40.0660  128.0185 C   0  0  0  0  0  0  0  0  0  0  0  0
   10.8459   41.2997  127.2568 N   0  0  0  0  0  0  0  0  0  0  0  0
   11.3597   41.1750  125.8982 C   0  0  0  0  0  0  0  0  0  0  0  0
   12.2293   39.9354  125.9125 C   0  0  0  0  0  0  0  0  0  0  0  0
   10.6504   38.3983  124.8622 N   0  0  0  0  0  0  0  0  0  0  0  0
   11.0320   38.6262  123.5659 C   0  0  0  0  0  0  0  0  0  0  0  0
    9.9654   39.3102  122.7454 C   0  0  0  0  0  0  0  0  0  0  0  0
    8.7009   38.8393  122.9778 O   0  0  0  0  0  0  0  0  0  0  0  0
    8.3706   38.8501  124.3364 C   0  0  0  0  0  0  0  0  0  0  0  0
    9.3404   37.9045  125.0147 C   0  0  0  0  0  0  0  0  0  0  0  0
   13.5499   37.3809  125.4578 C   0  0  0  0  0  0  0  0  0  0  0  0
   12.3138   37.5069  126.3507 C   0  0  0  0  0  0  0  0  0  0  0  0
   12.8389   37.4363  127.7411 C   0  0  0  0  0  0  0  0  0  0  0  0
    9.4992   51.3102  133.7667 C   0  0  0  0  0  0  0  0  0  0  0  0
    9.5142   52.2267  134.4708 N   0  0  0  0  0  0  0  0  0  0  0  0
 34 35  1  0  0  0
 35 36  1  0  0  0
 35 22  1  0  0  0
 22 28  1  0  0  0
 28 29  1  0  0  0
 29 30  1  0  0  0
 30 31  1  0  0  0
 31 32  1  0  0  0
 32 33  1  0  0  0
 22 23  1  0  0  0
 23 24  1  0  0  0
 24 25  1  0  0  0
 25  1  1  0  0  0
  1  2  2  0  0  0
  2  3  1  0  0  0
  3  4  2  0  0  0
  4  5  1  0  0  0
  5  6  2  0  0  0
  4  7  1  0  0  0
  7  8  2  0  0  0
  7  9  1  0  0  0
  9 10  2  0  0  0
 10 11  1  0  0  0
 11 12  1  0  0  0
 12 13  2  0  0  0
 13 14  1  0  0  0
 14 37  1  0  0  0
 37 38  3  0  0  0
 14 15  2  0  0  0
 15 16  1  0  0  0
 16 17  2  0  0  0
 10 18  1  0  0  0
 18 19  1  0  0  0
 18 20  1  0  0  0
 25 26  1  0  0  0
 26 27  1  0  0  0
 27 22  1  0  0  0
 33 28  1  0  0  0
  6  1  1  0  0  0
 17  9  1  0  0  0
 18  3  1  0  0  0
 17 12  1  0  0  0
 11 21  1  0  0  0
M  END
> <minimizedAffinity>
46.56582

> <CNNscore>
0.2465195507

> <CNNaffinity>
7.0800704956

> <CNN_VS>
1.7453757524

> <CNNaffinity_variance>
0.2215133160

$$$$
[H]c1nc(N2C([H])([H])C([H])([H])C(N3C([H])([H])C([H])([H])OC([H])([H])C3([H])[H])(C([H])(C([H])([H])[H])C([H])([H])[H])C([H])([H])C2([H])[H])c([H])c2c1C(=O)c1c(n([H])c3c([H])c(C#N)c([H])c([H])c13)C2(C([H])([H])[H])C([H])([H])[H]


 38 43  0  0  0  0  0  0  0  0999 V2000
    7.8876   46.4408  131.1549 C   0  0  0  0  0  0  0  0  0  0  0  0
    7.9830   47.7096  130.6462 C   0  0  0  0  0  0  0  0  0  0  0  0
    6.8841   48.3462  130.0528 C   0  0  0  0  0  0  0  0  0  0  0  0
    5.7039   47.6509  129.9990 C   0  0  0  0  0  0  0  0  0  0  0  0
    5.6336   46.3701  130.5201 C   0  0  0  0  0  0  0  0  0  0  0  0
    6.7101   45.7975  131.0797 N   0  0  0  0  0  0  0  0  0  0  0  0
    4.5330   48.2645  129.3949 C   0  0  0  0  0  0  0  0  0  0  0  0
    3.4372   47.6292  129.3404 O   0  0  0  0  0  0  0  0  0  0  0  0
    4.6382   49.6078  128.8585 C   0  0  0  0  0  0  0  0  0  0  0  0
    5.8422   50.2634  128.9361 C   0  0  0  0  0  0  0  0  0  0  0  0
    5.6996   51.4964  128.3731 N   0  0  0  0  0  0  0  0  0  0  0  0
    4.4282   51.6459  127.9352 C   0  0  0  0  0  0  0  0  0  0  0  0
    3.7754   52.6887  127.3019 C   0  0  0  0  0  0  0  0  0  0  0  0
    2.4513   52.5558  126.9678 C   0  0  0  0  0  0  0  0  0  0  0  0
    1.8110   51.3742  127.2788 C   0  0  0  0  0  0  0  0  0  0  0  0
    2.4580   50.3350  127.9088 C   0  0  0  0  0  0  0  0  0  0  0  0
    3.7740   50.4694  128.2398 C   0  0  0  0  0  0  0  0  0  0  0  0
    7.0555   49.7017  129.5315 C   0  0  0  0  0  0  0  0  0  0  0  0
    7.4899   50.6629  130.6467 C   0  0  0  0  0  0  0  0  0  0  0  0
    8.1561   49.7915  128.4757 C   0  0  0  0  0  0  0  0  0  0  0  0
    6.4209   52.2337  128.2744 H   0  0  0  0  0  0  0  0  0  0  0  0
   11.2040   44.0953  132.8849 C   0  0  0  0  0  0  0  0  0  0  0  0
    9.7053   44.0299  133.2495 C   0  0  0  0  0  0  0  0  0  0  0  0
    9.0099   45.3488  133.1457 C   0  0  0  0  0  0  0  0  0  0  0  0
    9.0095   45.7882  131.7639 N   0  0  0  0  0  0  0  0  0  0  0  0
   10.2422   45.5173  131.0342 C   0  0  0  0  0  0  0  0  0  0  0  0
   11.3133   45.3828  132.0960 C   0  0  0  0  0  0  0  0  0  0  0  0
   11.4543   42.9461  132.1324 N   0  0  0  0  0  0  0  0  0  0  0  0
   11.1839   42.7941  130.7975 C   0  0  0  0  0  0  0  0  0  0  0  0
   10.5120   41.4816  130.4744 C   0  0  0  0  0  0  0  0  0  0  0  0
   11.0254   40.4132  131.1596 O   0  0  0  0  0  0  0  0  0  0  0  0
   11.0573   40.6322  132.5402 C   0  0  0  0  0  0  0  0  0  0  0  0
   11.9901   41.8053  132.7606 C   0  0  0  0  0  0  0  0  0  0  0  0
   12.6704   45.5408  134.3573 C   0  0  0  0  0  0  0  0  0  0  0  0
   12.0410   44.1668  134.1181 C   0  0  0  0  0  0  0  0  0  0  0  0
   11.4069   43.8069  135.4151 C   0  0  0  0  0  0  0  0  0  0  0  0
    1.7315   53.6351  126.2995 C   0  0  0  0  0  0  0  0  0  0  0  0
    1.1549   54.4950  125.7857 N   0  0  0  0  0  0  0  0  0  0  0  0
 34 35  1  0  0  0
 35 36  1  0  0  0
 35 22  1  0  0  0
 22 28  1  0  0  0
 28 29  1  0  0  0
 29 30  1  0  0  0
 30 31  1  0  0  0
 31 32  1  0  0  0
 32 33  1  0  0  0
 22 23  1  0  0  0
 23 24  1  0  0  0
 24 25  1  0  0  0
 25  1  1  0  0  0
  1  2  2  0  0  0
  2  3  1  0  0  0
  3  4  2  0  0  0
  4  5  1  0  0  0
  5  6  2  0  0  0
  4  7  1  0  0  0
  7  8  2  0  0  0
  7  9  1  0  0  0
  9 10  2  0  0  0
 10 11  1  0  0  0
 11 12  1  0  0  0
 12 13  2  0  0  0
 13 14  1  0  0  0
 14 37  1  0  0  0
 37 38  3  0  0  0
 14 15  2  0  0  0
 15 16  1  0  0  0
 16 17  2  0  0  0
 10 18  1  0  0  0
 18 19  1  0  0  0
 18 20  1  0  0  0
 25 26  1  0  0  0
 26 27  1  0  0  0
 27 22  1  0  0  0
 33 28  1  0  0  0
  6  1  1  0  0  0
 17  9  1  0  0  0
 18  3  1  0  0  0
 17 12  1  0  0  0
 11 21  1  0  0  0
M  END
> <minimizedAffinity>
36.43311

> <CNNscore>
0.2314749807

> <CNNaffinity>
7.1178121567

> <CNN_VS>
1.6475954056

> <CNNaffinity_variance>
0.6309722662

$$$$
[H]c1nc(N2C([H])([H])C([H])([H])C(N3C([H])([H])C([H])([H])OC([H])([H])C3([H])[H])(C([H])(C([H])([H])[H])C([H])([H])[H])C([H])([H])C2([H])[H])c([H])c2c1C(=O)c1c(n([H])c3c([H])c(C#N)c([H])c([H])c13)C2(C([H])([H])[H])C([H])([H])[H]


 38 43  0  0  0  0  0  0  0  0999 V2000
    7.1224   50.7054  128.3131 C   0  0  0  0  0  0  0  0  0  0  0  0
    8.2693   50.0469  128.6721 C   0  0  0  0  0  0  0  0  0  0  0  0
    8.2336   48.8888  129.4611 C   0  0  0  0  0  0  0  0  0  0  0  0
    7.0040   48.4356  129.8632 C   0  0  0  0  0  0  0  0  0  0  0  0
    5.8601   49.1189  129.4873 C   0  0  0  0  0  0  0  0  0  0  0  0
    5.9392   50.2242  128.7308 N   0  0  0  0  0  0  0  0  0  0  0  0
    6.9099   47.2385  130.6823 C   0  0  0  0  0  0  0  0  0  0  0  0
    5.7771   46.8118  131.0592 O   0  0  0  0  0  0  0  0  0  0  0  0
    8.1262   46.5443  131.0592 C   0  0  0  0  0  0  0  0  0  0  0  0
    9.3342   47.0376  130.6315 C   0  0  0  0  0  0  0  0  0  0  0  0
   10.3231   46.2278  131.1045 N   0  0  0  0  0  0  0  0  0  0  0  0
    9.7746   45.2244  131.8276 C   0  0  0  0  0  0  0  0  0  0  0  0
   10.3274   44.1554  132.5105 C   0  0  0  0  0  0  0  0  0  0  0  0
    9.5070   43.2759  133.1705 C   0  0  0  0  0  0  0  0  0  0  0  0
    8.1451   43.4910  133.1293 C   0  0  0  0  0  0  0  0  0  0  0  0
    7.5923   44.5538  132.4507 C   0  0  0  0  0  0  0  0  0  0  0  0
    8.4097   45.4266  131.7955 C   0  0  0  0  0  0  0  0  0  0  0  0
    9.4955   48.2353  129.8060 C   0  0  0  0  0  0  0  0  0  0  0  0
   10.2494   47.8049  128.5400 C   0  0  0  0  0  0  0  0  0  0  0  0
   10.4563   49.1642  130.5464 C   0  0  0  0  0  0  0  0  0  0  0  0
   11.3443   46.3257  130.9590 H   0  0  0  0  0  0  0  0  0  0  0  0
    7.0403   54.1455  125.5469 C   0  0  0  0  0  0  0  0  0  0  0  0
    7.8036   52.8138  125.3816 C   0  0  0  0  0  0  0  0  0  0  0  0
    8.2906   52.2430  126.6741 C   0  0  0  0  0  0  0  0  0  0  0  0
    7.1561   51.8889  127.5047 N   0  0  0  0  0  0  0  0  0  0  0  0
    6.0448   52.8315  127.4588 C   0  0  0  0  0  0  0  0  0  0  0  0
    6.6529   54.1438  127.0105 C   0  0  0  0  0  0  0  0  0  0  0  0
    5.9546   54.0631  124.6729 N   0  0  0  0  0  0  0  0  0  0  0  0
    6.0335   53.8229  123.3259 C   0  0  0  0  0  0  0  0  0  0  0  0
    5.1644   54.7463  122.5071 C   0  0  0  0  0  0  0  0  0  0  0  0
    3.9311   54.9770  123.0554 O   0  0  0  0  0  0  0  0  0  0  0  0
    4.0115   55.4114  124.3819 C   0  0  0  0  0  0  0  0  0  0  0  0
    4.6509   54.2793  125.1594 C   0  0  0  0  0  0  0  0  0  0  0  0
    9.1388   55.4113  126.1808 C   0  0  0  0  0  0  0  0  0  0  0  0
    7.9329   55.3025  125.2453 C   0  0  0  0  0  0  0  0  0  0  0  0
    8.5029   55.4068  123.8748 C   0  0  0  0  0  0  0  0  0  0  0  0
   10.0556   42.1376  133.9006 C   0  0  0  0  0  0  0  0  0  0  0  0
   10.4858   41.2438  134.4940 N   0  0  0  0  0  0  0  0  0  0  0  0
 34 35  1  0  0  0
 35 36  1  0  0  0
 35 22  1  0  0  0
 22 28  1  0  0  0
 28 29  1  0  0  0
 29 30  1  0  0  0
 30 31  1  0  0  0
 31 32  1  0  0  0
 32 33  1  0  0  0
 22 23  1  0  0  0
 23 24  1  0  0  0
 24 25  1  0  0  0
 25  1  1  0  0  0
  1  2  2  0  0  0
  2  3  1  0  0  0
  3  4  2  0  0  0
  4  5  1  0  0  0
  5  6  2  0  0  0
  4  7  1  0  0  0
  7  8  2  0  0  0
  7  9  1  0  0  0
  9 10  2  0  0  0
 10 11  1  0  0  0
 11 12  1  0  0  0
 12 13  2  0  0  0
 13 14  1  0  0  0
 14 37  1  0  0  0
 37 38  3  0  0  0
 14 15  2  0  0  0
 15 16  1  0  0  0
 16 17  2  0  0  0
 10 18  1  0  0  0
 18 19  1  0  0  0
 18 20  1  0  0  0
 25 26  1  0  0  0
 26 27  1  0  0  0
 27 22  1  0  0  0
 33 28  1  0  0  0
  6  1  1  0  0  0
 17  9  1  0  0  0
 18  3  1  0  0  0
 17 12  1  0  0  0
 11 21  1  0  0  0
M  END
> <minimizedAffinity>
22.28473

> <CNNscore>
0.2252355516

> <CNNaffinity>
6.9174675941

> <CNN_VS>
1.5580595732

> <CNNaffinity_variance>
0.3451067805

$$$$
[H]c1nc(N2C([H])([H])C([H])([H])C(N3C([H])([H])C([H])([H])OC([H])([H])C3([H])[H])(C([H])(C([H])([H])[H])C([H])([H])[H])C([H])([H])C2([H])[H])c([H])c2c1C(=O)c1c(n([H])c3c([H])c(C#N)c([H])c([H])c13)C2(C([H])([H])[H])C([H])([H])[H]


 38 43  0  0  0  0  0  0  0  0999 V2000
    7.3124   50.9752  128.3337 C   0  0  0  0  0  0  0  0  0  0  0  0
    8.3473   50.7799  129.2104 C   0  0  0  0  0  0  0  0  0  0  0  0
    8.4434   49.6146  129.9836 C   0  0  0  0  0  0  0  0  0  0  0  0
    7.4601   48.6719  129.8310 C   0  0  0  0  0  0  0  0  0  0  0  0
    6.4249   48.8930  128.9386 C   0  0  0  0  0  0  0  0  0  0  0  0
    6.3710   50.0232  128.2176 N   0  0  0  0  0  0  0  0  0  0  0  0
    7.5117   47.4446  130.6080 C   0  0  0  0  0  0  0  0  0  0  0  0
    6.6067   46.5669  130.4738 O   0  0  0  0  0  0  0  0  0  0  0  0
    8.6093   47.2418  131.5341 C   0  0  0  0  0  0  0  0  0  0  0  0
    9.5702   48.2157  131.6514 C   0  0  0  0  0  0  0  0  0  0  0  0
   10.4893   47.8069  132.5710 N   0  0  0  0  0  0  0  0  0  0  0  0
   10.1380   46.5900  133.0469 C   0  0  0  0  0  0  0  0  0  0  0  0
   10.7188   45.7491  133.9795 C   0  0  0  0  0  0  0  0  0  0  0  0
   10.1256   44.5464  134.2696 C   0  0  0  0  0  0  0  0  0  0  0  0
    8.9583   44.2149  133.6136 C   0  0  0  0  0  0  0  0  0  0  0  0
    8.3780   45.0498  132.6853 C   0  0  0  0  0  0  0  0  0  0  0  0
    8.9695   46.2446  132.3988 C   0  0  0  0  0  0  0  0  0  0  0  0
    9.5752   49.4706  130.8983 C   0  0  0  0  0  0  0  0  0  0  0  0
   10.9044   49.5246  130.1324 C   0  0  0  0  0  0  0  0  0  0  0  0
    9.6558   50.6053  131.9183 C   0  0  0  0  0  0  0  0  0  0  0  0
   11.3365   48.3132  132.8863 H   0  0  0  0  0  0  0  0  0  0  0  0
    6.6533   54.5137  125.7768 C   0  0  0  0  0  0  0  0  0  0  0  0
    6.8221   53.0437  125.3363 C   0  0  0  0  0  0  0  0  0  0  0  0
    7.7611   52.2674  126.2021 C   0  0  0  0  0  0  0  0  0  0  0  0
    7.2128   52.1653  127.5405 N   0  0  0  0  0  0  0  0  0  0  0  0
    6.5493   53.3697  128.0248 C   0  0  0  0  0  0  0  0  0  0  0  0
    7.1371   54.5036  127.2114 C   0  0  0  0  0  0  0  0  0  0  0  0
    5.2914   54.7892  125.6396 N   0  0  0  0  0  0  0  0  0  0  0  0
    4.3184   54.4671  126.5493 C   0  0  0  0  0  0  0  0  0  0  0  0
    3.0950   53.8505  125.9156 C   0  0  0  0  0  0  0  0  0  0  0  0
    2.7170   54.4493  124.7437 O   0  0  0  0  0  0  0  0  0  0  0  0
    3.7681   54.5320  123.8254 C   0  0  0  0  0  0  0  0  0  0  0  0
    4.8216   55.4115  124.4669 C   0  0  0  0  0  0  0  0  0  0  0  0
    8.9819   55.4109  125.3517 C   0  0  0  0  0  0  0  0  0  0  0  0
    7.5067   55.4116  124.9451 C   0  0  0  0  0  0  0  0  0  0  0  0
    7.5171   55.1992  123.4725 C   0  0  0  0  0  0  0  0  0  0  0  0
   10.7105   43.6348  135.2476 C   0  0  0  0  0  0  0  0  0  0  0  0
   11.1785   42.9266  136.0321 N   0  0  0  0  0  0  0  0  0  0  0  0
 34 35  1  0  0  0
 35 36  1  0  0  0
 35 22  1  0  0  0
 22 28  1  0  0  0
 28 29  1  0  0  0
 29 30  1  0  0  0
 30 31  1  0  0  0
 31 32  1  0  0  0
 32 33  1  0  0  0
 22 23  1  0  0  0
 23 24  1  0  0  0
 24 25  1  0  0  0
 25  1  1  0  0  0
  1  2  2  0  0  0
  2  3  1  0  0  0
  3  4  2  0  0  0
  4  5  1  0  0  0
  5  6  2  0  0  0
  4  7  1  0  0  0
  7  8  2  0  0  0
  7  9  1  0  0  0
  9 10  2  0  0  0
 10 11  1  0  0  0
 11 12  1  0  0  0
 12 13  2  0  0  0
 13 14  1  0  0  0
 14 37  1  0  0  0
 37 38  3  0  0  0
 14 15  2  0  0  0
 15 16  1  0  0  0
 16 17  2  0  0  0
 10 18  1  0  0  0
 18 19  1  0  0  0
 18 20  1  0  0  0
 25 26  1  0  0  0
 26 27  1  0  0  0
 27 22  1  0  0  0
 33 28  1  0  0  0
  6  1  1  0  0  0
 17  9  1  0  0  0
 18  3  1  0  0  0
 17 12  1  0  0  0
 11 21  1  0  0  0
M  END
> <minimizedAffinity>
13.26735

> <CNNscore>
0.2212924659

> <CNNaffinity>
6.8716154099

> <CNN_VS>
1.5206366777

> <CNNaffinity_variance>
0.1990590543

$$$$
[H]c1nc(N2C([H])([H])C([H])([H])C(N3C([H])([H])C([H])([H])OC([H])([H])C3([H])[H])(C([H])(C([H])([H])[H])C([H])([H])[H])C([H])([H])C2([H])[H])c([H])c2c1C(=O)c1c(n([H])c3c([H])c(C#N)c([H])c([H])c13)C2(C([H])([H])[H])C([H])([H])[H]


 38 43  0  0  0  0  0  0  0  0999 V2000
    7.4042   51.9497  128.2095 C   0  0  0  0  0  0  0  0  0  0  0  0
    7.4469   50.6029  127.9599 C   0  0  0  0  0  0  0  0  0  0  0  0
    7.6360   49.6719  128.9906 C   0  0  0  0  0  0  0  0  0  0  0  0
    7.7775   50.1587  130.2642 C   0  0  0  0  0  0  0  0  0  0  0  0
    7.7307   51.5238  130.4900 C   0  0  0  0  0  0  0  0  0  0  0  0
    7.5478   52.3810  129.4742 N   0  0  0  0  0  0  0  0  0  0  0  0
    7.9754   49.2366  131.3701 C   0  0  0  0  0  0  0  0  0  0  0  0
    8.1075   49.6774  132.5515 O   0  0  0  0  0  0  0  0  0  0  0  0
    8.0191   47.8120  131.1016 C   0  0  0  0  0  0  0  0  0  0  0  0
    7.8723   47.3734  129.8087 C   0  0  0  0  0  0  0  0  0  0  0  0
    7.9475   46.0125  129.8032 N   0  0  0  0  0  0  0  0  0  0  0  0
    8.1399   45.5683  131.0667 C   0  0  0  0  0  0  0  0  0  0  0  0
    8.2815   44.2988  131.5985 C   0  0  0  0  0  0  0  0  0  0  0  0
    8.4691   44.1472  132.9492 C   0  0  0  0  0  0  0  0  0  0  0  0
    8.5101   45.2784  133.7374 C   0  0  0  0  0  0  0  0  0  0  0  0
    8.3696   46.5427  133.2110 C   0  0  0  0  0  0  0  0  0  0  0  0
    8.1833   46.6909  131.8683 C   0  0  0  0  0  0  0  0  0  0  0  0
    7.6698   48.2492  128.6537 C   0  0  0  0  0  0  0  0  0  0  0  0
    6.3548   47.8153  127.9913 C   0  0  0  0  0  0  0  0  0  0  0  0
    8.7595   47.9106  127.6378 C   0  0  0  0  0  0  0  0  0  0  0  0
    7.8744   45.3785  128.9870 H   0  0  0  0  0  0  0  0  0  0  0  0
    6.4495   54.7306  124.9159 C   0  0  0  0  0  0  0  0  0  0  0  0
    6.6442   53.2010  124.8390 C   0  0  0  0  0  0  0  0  0  0  0  0
    7.6655   52.6825  125.7991 C   0  0  0  0  0  0  0  0  0  0  0  0
    7.2091   52.9039  127.1574 N   0  0  0  0  0  0  0  0  0  0  0  0
    6.5338   54.1771  127.3774 C   0  0  0  0  0  0  0  0  0  0  0  0
    7.0250   55.0859  126.2703 C   0  0  0  0  0  0  0  0  0  0  0  0
    5.0722   54.9360  124.8133 N   0  0  0  0  0  0  0  0  0  0  0  0
    4.2618   55.4110  125.8111 C   0  0  0  0  0  0  0  0  0  0  0  0
    2.9834   54.6228  125.9624 C   0  0  0  0  0  0  0  0  0  0  0  0
    2.4084   54.2663  124.7720 O   0  0  0  0  0  0  0  0  0  0  0  0
    3.3046   53.6080  123.9244 C   0  0  0  0  0  0  0  0  0  0  0  0
    4.4055   54.6028  123.6186 C   0  0  0  0  0  0  0  0  0  0  0  0
    8.7278   55.4116  124.0478 C   0  0  0  0  0  0  0  0  0  0  0  0
    7.2132   55.4116  123.8299 C   0  0  0  0  0  0  0  0  0  0  0  0
    7.0286   54.9264  122.4355 C   0  0  0  0  0  0  0  0  0  0  0  0
    8.6220   42.8234  133.5441 C   0  0  0  0  0  0  0  0  0  0  0  0
    8.7603   41.7755  134.0119 N   0  0  0  0  0  0  0  0  0  0  0  0
 34 35  1  0  0  0
 35 36  1  0  0  0
 35 22  1  0  0  0
 22 28  1  0  0  0
 28 29  1  0  0  0
 29 30  1  0  0  0
 30 31  1  0  0  0
 31 32  1  0  0  0
 32 33  1  0  0  0
 22 23  1  0  0  0
 23 24  1  0  0  0
 24 25  1  0  0  0
 25  1  1  0  0  0
  1  2  2  0  0  0
  2  3  1  0  0  0
  3  4  2  0  0  0
  4  5  1  0  0  0
  5  6  2  0  0  0
  4  7  1  0  0  0
  7  8  2  0  0  0
  7  9  1  0  0  0
  9 10  2  0  0  0
 10 11  1  0  0  0
 11 12  1  0  0  0
 12 13  2  0  0  0
 13 14  1  0  0  0
 14 37  1  0  0  0
 37 38  3  0  0  0
 14 15  2  0  0  0
 15 16  1  0  0  0
 16 17  2  0  0  0
 10 18  1  0  0  0
 18 19  1  0  0  0
 18 20  1  0  0  0
 25 26  1  0  0  0
 26 27  1  0  0  0
 27 22  1  0  0  0
 33 28  1  0  0  0
  6  1  1  0  0  0
 17  9  1  0  0  0
 18  3  1  0  0  0
 17 12  1  0  0  0
 11 21  1  0  0  0
M  END
> <minimizedAffinity>
10.88245

> <CNNscore>
0.2195357680

> <CNNaffinity>
6.9240708351

> <CNN_VS>
1.5200811625

> <CNNaffinity_variance>
0.1738902628

$$$$
[H]c1nc(N2C([H])([H])C([H])([H])C(N3C([H])([H])C([H])([H])OC([H])([H])C3([H])[H])(C([H])(C([H])([H])[H])C([H])([H])[H])C([H])([H])C2([H])[H])c([H])c2c1C(=O)c1c(n([H])c3c([H])c(C#N)c([H])c([H])c13)C2(C([H])([H])[H])C([H])([H])[H]


 38 43  0  0  0  0  0  0  0  0999 V2000
    8.1791   46.3212  130.2589 C   0  0  0  0  0  0  0  0  0  0  0  0
    8.0980   47.6012  129.7761 C   0  0  0  0  0  0  0  0  0  0  0  0
    6.8662   48.1847  129.4489 C   0  0  0  0  0  0  0  0  0  0  0  0
    5.7392   47.4258  129.6299 C   0  0  0  0  0  0  0  0  0  0  0  0
    5.8479   46.1351  130.1191 C   0  0  0  0  0  0  0  0  0  0  0  0
    7.0474   45.6147  130.4199 N   0  0  0  0  0  0  0  0  0  0  0  0
    4.4360   47.9826  129.3070 C   0  0  0  0  0  0  0  0  0  0  0  0
    3.3880   47.2882  129.4709 O   0  0  0  0  0  0  0  0  0  0  0  0
    4.3548   49.3379  128.7971 C   0  0  0  0  0  0  0  0  0  0  0  0
    5.5123   50.0582  128.6332 C   0  0  0  0  0  0  0  0  0  0  0  0
    5.1893   51.2899  128.1473 N   0  0  0  0  0  0  0  0  0  0  0  0
    3.8475   51.3752  127.9956 C   0  0  0  0  0  0  0  0  0  0  0  0
    3.0216   52.3897  127.5451 C   0  0  0  0  0  0  0  0  0  0  0  0
    1.6651   52.1886  127.4984 C   0  0  0  0  0  0  0  0  0  0  0  0
    1.1678   50.9686  127.9069 C   0  0  0  0  0  0  0  0  0  0  0  0
    1.9873   49.9573  128.3556 C   0  0  0  0  0  0  0  0  0  0  0  0
    3.3350   50.1595  128.4010 C   0  0  0  0  0  0  0  0  0  0  0  0
    6.8522   49.5556  128.9399 C   0  0  0  0  0  0  0  0  0  0  0  0
    7.4667   50.5220  129.9621 C   0  0  0  0  0  0  0  0  0  0  0  0
    7.6940   49.7229  127.6760 C   0  0  0  0  0  0  0  0  0  0  0  0
    5.8339   52.0675  127.9167 H   0  0  0  0  0  0  0  0  0  0  0  0
   11.9181   44.4384  131.6616 C   0  0  0  0  0  0  0  0  0  0  0  0
   11.3318   45.8054  132.0749 C   0  0  0  0  0  0  0  0  0  0  0  0
   10.6037   46.4991  130.9692 C   0  0  0  0  0  0  0  0  0  0  0  0
    9.4375   45.7227  130.5960 N   0  0  0  0  0  0  0  0  0  0  0  0
    9.6394   44.2789  130.5871 C   0  0  0  0  0  0  0  0  0  0  0  0
   11.1316   44.0856  130.4170 C   0  0  0  0  0  0  0  0  0  0  0  0
   11.6791   43.5886  132.7434 N   0  0  0  0  0  0  0  0  0  0  0  0
   10.7885   42.5471  132.7559 C   0  0  0  0  0  0  0  0  0  0  0  0
    9.9374   42.5097  134.0020 C   0  0  0  0  0  0  0  0  0  0  0  0
   10.6261   42.7901  135.1516 O   0  0  0  0  0  0  0  0  0  0  0  0
   11.3361   43.9917  135.0667 C   0  0  0  0  0  0  0  0  0  0  0  0
   12.3539   43.8040  133.9605 C   0  0  0  0  0  0  0  0  0  0  0  0
   13.6922   44.3906  129.8566 C   0  0  0  0  0  0  0  0  0  0  0  0
   13.3701   44.5655  131.3422 C   0  0  0  0  0  0  0  0  0  0  0  0
   14.0656   45.8199  131.7380 C   0  0  0  0  0  0  0  0  0  0  0  0
    0.7644   53.2364  127.0289 C   0  0  0  0  0  0  0  0  0  0  0  0
    0.0571   54.0641  126.6407 N   0  0  0  0  0  0  0  0  0  0  0  0
 34 35  1  0  0  0
 35 36  1  0  0  0
 35 22  1  0  0  0
 22 28  1  0  0  0
 28 29  1  0  0  0
 29 30  1  0  0  0
 30 31  1  0  0  0
 31 32  1  0  0  0
 32 33  1  0  0  0
 22 23  1  0  0  0
 23 24  1  0  0  0
 24 25  1  0  0  0
 25  1  1  0  0  0
  1  2  2  0  0  0
  2  3  1  0  0  0
  3  4  2  0  0  0
  4  5  1  0  0  0
  5  6  2  0  0  0
  4  7  1  0  0  0
  7  8  2  0  0  0
  7  9  1  0  0  0
  9 10  2  0  0  0
 10 11  1  0  0  0
 11 12  1  0  0  0
 12 13  2  0  0  0
 13 14  1  0  0  0
 14 37  1  0  0  0
 37 38  3  0  0  0
 14 15  2  0  0  0
 15 16  1  0  0  0
 16 17  2  0  0  0
 10 18  1  0  0  0
 18 19  1  0  0  0
 18 20  1  0  0  0
 25 26  1  0  0  0
 26 27  1  0  0  0
 27 22  1  0  0  0
 33 28  1  0  0  0
  6  1  1  0  0  0
 17  9  1  0  0  0
 18  3  1  0  0  0
 17 12  1  0  0  0
 11 21  1  0  0  0
M  END
> <minimizedAffinity>
36.12128

> <CNNscore>
0.2087606043

> <CNNaffinity>
7.1193618774

> <CNN_VS>
1.4862422943

> <CNNaffinity_variance>
0.5112639666

$$$$
[H]OC(=O)c1c([H])c([H])nc([H])c1N([H])C([H])([H])C1([H])c2c([H])c([H])c(Sc3sc([H])c([H])c3[H])c([H])c2OC([H])([H])C1([H])[H]


 29 32  0  0  0  0  0  0  0  0999 V2000
    9.6561   43.2094  127.6948 C   0  0  0  0  0  0  0  0  0  0  0  0
    9.8539   44.6051  127.1250 C   0  0  0  0  0  0  0  0  0  0  0  0
   11.1934   45.1398  127.5280 C   0  0  0  0  0  0  0  0  0  0  0  0
   11.3985   45.0190  128.9033 O   0  0  0  0  0  0  0  0  0  0  0  0
   10.5876   44.2375  129.7264 C   0  0  0  0  0  0  0  0  0  0  0  0
   10.6625   44.3740  131.1185 C   0  0  0  0  0  0  0  0  0  0  0  0
    9.8715   43.6129  131.9575 C   0  0  0  0  0  0  0  0  0  0  0  0
    9.0052   42.7135  131.3709 C   0  0  0  0  0  0  0  0  0  0  0  0
    8.9254   42.5721  129.9810 C   0  0  0  0  0  0  0  0  0  0  0  0
    9.7193   43.3376  129.1795 C   0  0  0  0  0  0  0  0  0  0  0  0
   10.7727   42.3462  127.1742 C   0  0  0  0  0  0  0  0  0  0  0  0
   10.3335   41.0037  126.8016 N   0  0  0  0  0  0  0  0  0  0  0  0
    9.4315   40.6613  127.1776 H   0  0  0  0  0  0  0  0  0  0  0  0
   10.5777   39.0826  125.2820 C   0  0  0  0  0  0  0  0  0  0  0  0
   11.4750   38.2783  124.5431 C   0  0  0  0  0  0  0  0  0  0  0  0
   12.8138   38.5322  124.5016 C   0  0  0  0  0  0  0  0  0  0  0  0
   13.2958   39.5714  125.1788 N   0  0  0  0  0  0  0  0  0  0  0  0
   12.4923   40.3652  125.8953 C   0  0  0  0  0  0  0  0  0  0  0  0
   11.1090   40.1471  125.9705 C   0  0  0  0  0  0  0  0  0  0  0  0
    8.5333   38.1601  126.0953 O   0  0  0  0  0  0  0  0  0  0  0  0
    9.1753   38.7766  125.2506 C   0  0  0  0  0  0  0  0  0  0  0  0
    8.4260   39.2195  124.1397 O   0  0  0  0  0  0  0  0  0  0  0  0
    8.0386   38.5776  123.4687 H   0  0  0  0  0  0  0  0  0  0  0  0
   10.0259   43.8455  133.7063 S   0  0  0  0  0  0  0  0  0  0  0  0
    9.4869   45.4989  134.1919 C   0  0  0  0  0  0  0  0  0  0  0  0
    9.8545   46.1939  135.3172 C   0  0  0  0  0  0  0  0  0  0  0  0
    9.3236   47.4214  135.4752 C   0  0  0  0  0  0  0  0  0  0  0  0
    8.4665   47.8645  134.5011 C   0  0  0  0  0  0  0  0  0  0  0  0
    8.4271   46.5666  133.4029 S   0  0  0  0  0  0  0  0  0  0  0  0
 20 21  2  0  0  0
 21 22  1  0  0  0
 21 14  1  0  0  0
 14 15  2  0  0  0
 15 16  1  0  0  0
 16 17  2  0  0  0
 17 18  1  0  0  0
 18 19  2  0  0  0
 19 12  1  0  0  0
 12 11  1  0  0  0
 11  1  1  0  0  0
  1  2  1  0  0  0
  2  3  1  0  0  0
  3  4  1  0  0  0
  4  5  1  0  0  0
  5  6  2  0  0  0
  6  7  1  0  0  0
  7 24  1  0  0  0
 24 25  1  0  0  0
 25 26  2  0  0  0
 26 27  1  0  0  0
 27 28  2  0  0  0
 28 29  1  0  0  0
  7  8  2  0  0  0
  8  9  1  0  0  0
  9 10  2  0  0  0
 19 14  1  0  0  0
 10  1  1  0  0  0
 10  5  1  0  0  0
 29 25  1  0  0  0
 22 23  1  0  0  0
 12 13  1  0  0  0
M  END
> <minimizedAffinity>
22.66827

> <CNNscore>
0.5051934719

> <CNNaffinity>
7.1064910889

> <CNN_VS>
3.5901529789

> <CNNaffinity_variance>
1.1230690479

$$$$
[H]OC(=O)c1c([H])c([H])nc([H])c1N([H])C([H])([H])C1([H])c2c([H])c([H])c(Sc3sc([H])c([H])c3[H])c([H])c2OC([H])([H])C1([H])[H]


 29 32  0  0  0  0  0  0  0  0999 V2000
    8.5981   47.3940  134.5994 C   0  0  0  0  0  0  0  0  0  0  0  0
    9.7232   47.5763  135.6058 C   0  0  0  0  0  0  0  0  0  0  0  0
   11.0199   47.8030  134.8918 C   0  0  0  0  0  0  0  0  0  0  0  0
   11.2412   46.8313  133.9146 O   0  0  0  0  0  0  0  0  0  0  0  0
   10.2476   45.9566  133.4745 C   0  0  0  0  0  0  0  0  0  0  0  0
   10.5900   44.8331  132.7112 C   0  0  0  0  0  0  0  0  0  0  0  0
    9.6267   43.9505  132.2620 C   0  0  0  0  0  0  0  0  0  0  0  0
    8.3149   44.2186  132.5944 C   0  0  0  0  0  0  0  0  0  0  0  0
    7.9659   45.3392  133.3566 C   0  0  0  0  0  0  0  0  0  0  0  0
    8.9396   46.1919  133.7852 C   0  0  0  0  0  0  0  0  0  0  0  0
    8.5484   48.6330  133.7478 C   0  0  0  0  0  0  0  0  0  0  0  0
    9.0374   48.4144  132.3887 N   0  0  0  0  0  0  0  0  0  0  0  0
    9.9430   47.9276  132.2662 H   0  0  0  0  0  0  0  0  0  0  0  0
    8.2465   48.1448  130.0732 C   0  0  0  0  0  0  0  0  0  0  0  0
    7.5665   48.7445  128.9888 C   0  0  0  0  0  0  0  0  0  0  0  0
    7.0115   49.9866  129.0760 C   0  0  0  0  0  0  0  0  0  0  0  0
    7.1117   50.6605  130.2191 N   0  0  0  0  0  0  0  0  0  0  0  0
    7.7449   50.1415  131.2768 C   0  0  0  0  0  0  0  0  0  0  0  0
    8.3324   48.8687  131.2386 C   0  0  0  0  0  0  0  0  0  0  0  0
    9.9491   46.4746  130.0131 O   0  0  0  0  0  0  0  0  0  0  0  0
    8.7749   46.8186  129.9206 C   0  0  0  0  0  0  0  0  0  0  0  0
    7.8698   45.7749  129.6319 O   0  0  0  0  0  0  0  0  0  0  0  0
    7.8675   45.3026  128.7434 H   0  0  0  0  0  0  0  0  0  0  0  0
   10.1414   42.5539  131.3024 S   0  0  0  0  0  0  0  0  0  0  0  0
   10.3482   42.9998  129.5651 C   0  0  0  0  0  0  0  0  0  0  0  0
    9.5321   42.6533  128.5171 C   0  0  0  0  0  0  0  0  0  0  0  0
    9.8842   43.1018  127.2971 C   0  0  0  0  0  0  0  0  0  0  0  0
   11.0224   43.8615  127.2123 C   0  0  0  0  0  0  0  0  0  0  0  0
   11.5630   43.9271  128.8233 S   0  0  0  0  0  0  0  0  0  0  0  0
 20 21  2  0  0  0
 21 22  1  0  0  0
 21 14  1  0  0  0
 14 15  2  0  0  0
 15 16  1  0  0  0
 16 17  2  0  0  0
 17 18  1  0  0  0
 18 19  2  0  0  0
 19 12  1  0  0  0
 12 11  1  0  0  0
 11  1  1  0  0  0
  1  2  1  0  0  0
  2  3  1  0  0  0
  3  4  1  0  0  0
  4  5  1  0  0  0
  5  6  2  0  0  0
  6  7  1  0  0  0
  7 24  1  0  0  0
 24 25  1  0  0  0
 25 26  2  0  0  0
 26 27  1  0  0  0
 27 28  2  0  0  0
 28 29  1  0  0  0
  7  8  2  0  0  0
  8  9  1  0  0  0
  9 10  2  0  0  0
 19 14  1  0  0  0
 10  1  1  0  0  0
 10  5  1  0  0  0
 29 25  1  0  0  0
 22 23  1  0  0  0
 12 13  1  0  0  0
M  END
> <minimizedAffinity>
-1.10006

> <CNNscore>
0.3061490059

> <CNNaffinity>
7.0752053261

> <CNN_VS>
2.1660671234

> <CNNaffinity_variance>
0.0694345534

$$$$
[H]OC(=O)c1c([H])c([H])nc([H])c1N([H])C([H])([H])C1([H])c2c([H])c([H])c(Sc3sc([H])c([H])c3[H])c([H])c2OC([H])([H])C1([H])[H]


 29 32  0  0  0  0  0  0  0  0999 V2000
    7.0231   46.8095  128.3283 C   0  0  0  0  0  0  0  0  0  0  0  0
    5.6491   46.8333  128.9789 C   0  0  0  0  0  0  0  0  0  0  0  0
    5.7770   47.1383  130.4395 C   0  0  0  0  0  0  0  0  0  0  0  0
    6.7168   46.3090  131.0536 O   0  0  0  0  0  0  0  0  0  0  0  0
    7.6159   45.5189  130.3372 C   0  0  0  0  0  0  0  0  0  0  0  0
    8.3343   44.5078  130.9881 C   0  0  0  0  0  0  0  0  0  0  0  0
    9.2312   43.7106  130.3034 C   0  0  0  0  0  0  0  0  0  0  0  0
    9.3915   43.9490  128.9540 C   0  0  0  0  0  0  0  0  0  0  0  0
    8.6770   44.9573  128.2976 C   0  0  0  0  0  0  0  0  0  0  0  0
    7.7991   45.7276  129.0009 C   0  0  0  0  0  0  0  0  0  0  0  0
    7.6546   48.1557  128.5564 C   0  0  0  0  0  0  0  0  0  0  0  0
    8.9692   48.0726  129.1879 N   0  0  0  0  0  0  0  0  0  0  0  0
    9.7301   47.5935  128.6743 H   0  0  0  0  0  0  0  0  0  0  0  0
    8.5752   49.6897  131.0015 C   0  0  0  0  0  0  0  0  0  0  0  0
    8.9789   50.1408  132.2789 C   0  0  0  0  0  0  0  0  0  0  0  0
    9.9731   49.5309  132.9847 C   0  0  0  0  0  0  0  0  0  0  0  0
   10.5868   48.4751  132.4562 N   0  0  0  0  0  0  0  0  0  0  0  0
   10.2458   48.0063  131.2507 C   0  0  0  0  0  0  0  0  0  0  0  0
    9.2305   48.5973  130.4849 C   0  0  0  0  0  0  0  0  0  0  0  0
    6.3603   50.5424  130.7584 O   0  0  0  0  0  0  0  0  0  0  0  0
    7.4960   50.3592  130.3317 C   0  0  0  0  0  0  0  0  0  0  0  0
    7.7367   50.8735  129.0398 O   0  0  0  0  0  0  0  0  0  0  0  0
    7.2984   50.4849  128.2217 H   0  0  0  0  0  0  0  0  0  0  0  0
   10.1001   42.4539  131.1990 S   0  0  0  0  0  0  0  0  0  0  0  0
   10.9794   43.1535  132.6123 C   0  0  0  0  0  0  0  0  0  0  0  0
   10.4829   43.3696  133.8737 C   0  0  0  0  0  0  0  0  0  0  0  0
   11.3261   43.9062  134.7762 C   0  0  0  0  0  0  0  0  0  0  0  0
   12.6003   44.1872  134.3549 C   0  0  0  0  0  0  0  0  0  0  0  0
   12.5842   43.6988  132.7260 S   0  0  0  0  0  0  0  0  0  0  0  0
 20 21  2  0  0  0
 21 22  1  0  0  0
 21 14  1  0  0  0
 14 15  2  0  0  0
 15 16  1  0  0  0
 16 17  2  0  0  0
 17 18  1  0  0  0
 18 19  2  0  0  0
 19 12  1  0  0  0
 12 11  1  0  0  0
 11  1  1  0  0  0
  1  2  1  0  0  0
  2  3  1  0  0  0
  3  4  1  0  0  0
  4  5  1  0  0  0
  5  6  2  0  0  0
  6  7  1  0  0  0
  7 24  1  0  0  0
 24 25  1  0  0  0
 25 26  2  0  0  0
 26 27  1  0  0  0
 27 28  2  0  0  0
 28 29  1  0  0  0
  7  8  2  0  0  0
  8  9  1  0  0  0
  9 10  2  0  0  0
 19 14  1  0  0  0
 10  1  1  0  0  0
 10  5  1  0  0  0
 29 25  1  0  0  0
 22 23  1  0  0  0
 12 13  1  0  0  0
M  END
> <minimizedAffinity>
-2.77874

> <CNNscore>
0.3046045005

> <CNNaffinity>
7.2429490089

> <CNN_VS>
2.2062349319

> <CNNaffinity_variance>
0.1555698216

$$$$
[H]OC(=O)c1c([H])c([H])nc([H])c1N([H])C([H])([H])C1([H])c2c([H])c([H])c(Sc3sc([H])c([H])c3[H])c([H])c2OC([H])([H])C1([H])[H]


 29 32  0  0  0  0  0  0  0  0999 V2000
    7.5196   47.5708  128.3182 C   0  0  0  0  0  0  0  0  0  0  0  0
    6.0186   47.4002  128.4910 C   0  0  0  0  0  0  0  0  0  0  0  0
    5.6795   47.2724  129.9439 C   0  0  0  0  0  0  0  0  0  0  0  0
    6.4687   46.3057  130.5691 O   0  0  0  0  0  0  0  0  0  0  0  0
    7.6092   45.7593  129.9804 C   0  0  0  0  0  0  0  0  0  0  0  0
    8.1940   44.6069  130.5209 C   0  0  0  0  0  0  0  0  0  0  0  0
    9.3237   44.0445  129.9584 C   0  0  0  0  0  0  0  0  0  0  0  0
    9.8531   44.6620  128.8440 C   0  0  0  0  0  0  0  0  0  0  0  0
    9.2739   45.8134  128.2991 C   0  0  0  0  0  0  0  0  0  0  0  0
    8.1592   46.3447  128.8769 C   0  0  0  0  0  0  0  0  0  0  0  0
    7.9265   48.7972  129.0885 C   0  0  0  0  0  0  0  0  0  0  0  0
    9.2284   48.6610  129.7370 N   0  0  0  0  0  0  0  0  0  0  0  0
    9.9713   48.1385  129.2397 H   0  0  0  0  0  0  0  0  0  0  0  0
   10.0063   48.4391  132.0620 C   0  0  0  0  0  0  0  0  0  0  0  0
   10.1688   49.0813  133.3107 C   0  0  0  0  0  0  0  0  0  0  0  0
    9.8438   50.3912  133.5023 C   0  0  0  0  0  0  0  0  0  0  0  0
    9.3564   51.0922  132.4816 N   0  0  0  0  0  0  0  0  0  0  0  0
    9.1811   50.5348  131.2785 C   0  0  0  0  0  0  0  0  0  0  0  0
    9.4996   49.1920  131.0295 C   0  0  0  0  0  0  0  0  0  0  0  0
   11.1819   46.6007  131.0974 O   0  0  0  0  0  0  0  0  0  0  0  0
   10.4037   47.0664  131.9240 C   0  0  0  0  0  0  0  0  0  0  0  0
    9.8565   46.1256  132.8224 O   0  0  0  0  0  0  0  0  0  0  0  0
    9.2111   45.4148  132.5214 H   0  0  0  0  0  0  0  0  0  0  0  0
   10.0021   42.5872  130.7015 S   0  0  0  0  0  0  0  0  0  0  0  0
   10.8069   42.9727  132.2711 C   0  0  0  0  0  0  0  0  0  0  0  0
   12.1118   43.3534  132.4625 C   0  0  0  0  0  0  0  0  0  0  0  0
   12.4968   43.5914  133.7308 C   0  0  0  0  0  0  0  0  0  0  0  0
   11.5536   43.4324  134.7132 C   0  0  0  0  0  0  0  0  0  0  0  0
   10.1695   42.9596  133.8457 S   0  0  0  0  0  0  0  0  0  0  0  0
 20 21  2  0  0  0
 21 22  1  0  0  0
 21 14  1  0  0  0
 14 15  2  0  0  0
 15 16  1  0  0  0
 16 17  2  0  0  0
 17 18  1  0  0  0
 18 19  2  0  0  0
 19 12  1  0  0  0
 12 11  1  0  0  0
 11  1  1  0  0  0
  1  2  1  0  0  0
  2  3  1  0  0  0
  3  4  1  0  0  0
  4  5  1  0  0  0
  5  6  2  0  0  0
  6  7  1  0  0  0
  7 24  1  0  0  0
 24 25  1  0  0  0
 25 26  2  0  0  0
 26 27  1  0  0  0
 27 28  2  0  0  0
 28 29  1  0  0  0
  7  8  2  0  0  0
  8  9  1  0  0  0
  9 10  2  0  0  0
 19 14  1  0  0  0
 10  1  1  0  0  0
 10  5  1  0  0  0
 29 25  1  0  0  0
 22 23  1  0  0  0
 12 13  1  0  0  0
M  END
> <minimizedAffinity>
-2.62165

> <CNNscore>
0.2962248623

> <CNNaffinity>
7.0569519997

> <CNN_VS>
2.0904445648

> <CNNaffinity_variance>
0.0836403370

$$$$
[H]OC(=O)c1c([H])c([H])nc([H])c1N([H])C([H])([H])C1([H])c2c([H])c([H])c(Sc3sc([H])c([H])c3[H])c([H])c2OC([H])([H])C1([H])[H]


 29 32  0  0  0  0  0  0  0  0999 V2000
    7.5976   45.4700  134.4239 C   0  0  0  0  0  0  0  0  0  0  0  0
    7.2226   44.0143  134.6525 C   0  0  0  0  0  0  0  0  0  0  0  0
    8.3678   43.1239  134.2809 C   0  0  0  0  0  0  0  0  0  0  0  0
    8.8561   43.4245  133.0084 O   0  0  0  0  0  0  0  0  0  0  0  0
    8.5119   44.5865  132.3177 C   0  0  0  0  0  0  0  0  0  0  0  0
    8.7994   44.7016  130.9516 C   0  0  0  0  0  0  0  0  0  0  0  0
    8.4699   45.8409  130.2428 C   0  0  0  0  0  0  0  0  0  0  0  0
    7.8469   46.8604  130.9327 C   0  0  0  0  0  0  0  0  0  0  0  0
    7.5568   46.7518  132.2974 C   0  0  0  0  0  0  0  0  0  0  0  0
    7.8945   45.6146  132.9693 C   0  0  0  0  0  0  0  0  0  0  0  0
    8.8141   45.7599  135.2600 C   0  0  0  0  0  0  0  0  0  0  0  0
    9.7540   46.6689  134.6086 N   0  0  0  0  0  0  0  0  0  0  0  0
    9.6457   47.6856  134.7723 H   0  0  0  0  0  0  0  0  0  0  0  0
   11.1691   46.8842  132.6059 C   0  0  0  0  0  0  0  0  0  0  0  0
   12.1662   46.2831  131.8043 C   0  0  0  0  0  0  0  0  0  0  0  0
   12.7369   45.0882  132.1280 C   0  0  0  0  0  0  0  0  0  0  0  0
   12.3443   44.4633  133.2353 N   0  0  0  0  0  0  0  0  0  0  0  0
   11.4040   44.9859  134.0301 C   0  0  0  0  0  0  0  0  0  0  0  0
   10.7863   46.2115  133.7419 C   0  0  0  0  0  0  0  0  0  0  0  0
   10.6902   48.6812  131.1114 O   0  0  0  0  0  0  0  0  0  0  0  0
   10.6384   48.1618  132.2219 C   0  0  0  0  0  0  0  0  0  0  0  0
    9.9797   48.9279  133.2072 O   0  0  0  0  0  0  0  0  0  0  0  0
   10.3649   49.7888  133.5580 H   0  0  0  0  0  0  0  0  0  0  0  0
    8.8674   45.9082  128.5184 S   0  0  0  0  0  0  0  0  0  0  0  0
   10.4385   45.0848  128.1811 C   0  0  0  0  0  0  0  0  0  0  0  0
   11.6268   45.2616  128.8451 C   0  0  0  0  0  0  0  0  0  0  0  0
   12.6772   44.5354  128.4175 C   0  0  0  0  0  0  0  0  0  0  0  0
   12.4653   43.6877  127.3608 C   0  0  0  0  0  0  0  0  0  0  0  0
   10.8211   43.9270  126.9984 S   0  0  0  0  0  0  0  0  0  0  0  0
 20 21  2  0  0  0
 21 22  1  0  0  0
 21 14  1  0  0  0
 14 15  2  0  0  0
 15 16  1  0  0  0
 16 17  2  0  0  0
 17 18  1  0  0  0
 18 19  2  0  0  0
 19 12  1  0  0  0
 12 11  1  0  0  0
 11  1  1  0  0  0
  1  2  1  0  0  0
  2  3  1  0  0  0
  3  4  1  0  0  0
  4  5  1  0  0  0
  5  6  2  0  0  0
  6  7  1  0  0  0
  7 24  1  0  0  0
 24 25  1  0  0  0
 25 26  2  0  0  0
 26 27  1  0  0  0
 27 28  2  0  0  0
 28 29  1  0  0  0
  7  8  2  0  0  0
  8  9  1  0  0  0
  9 10  2  0  0  0
 19 14  1  0  0  0
 10  1  1  0  0  0
 10  5  1  0  0  0
 29 25  1  0  0  0
 22 23  1  0  0  0
 12 13  1  0  0  0
M  END
> <minimizedAffinity>
6.96447

> <CNNscore>
0.2495786101

> <CNNaffinity>
6.8167829514

> <CNN_VS>
1.7013232708

> <CNNaffinity_variance>
0.5177162886

$$$$
[H]OC(=O)c1c([H])c([H])nc([H])c1N([H])C([H])([H])C1([H])c2c([H])c([H])c(Sc3sc([H])c([H])c3[H])c([H])c2OC([H])([H])C1([H])[H]


 29 32  0  0  0  0  0  0  0  0999 V2000
    8.7369   46.7058  135.0909 C   0  0  0  0  0  0  0  0  0  0  0  0
    9.9728   47.1885  135.8336 C   0  0  0  0  0  0  0  0  0  0  0  0
   10.9582   47.7708  134.8680 C   0  0  0  0  0  0  0  0  0  0  0  0
   11.2002   46.9043  133.8009 O   0  0  0  0  0  0  0  0  0  0  0  0
   10.4051   45.7902  133.5317 C   0  0  0  0  0  0  0  0  0  0  0  0
   10.8508   44.8105  132.6353 C   0  0  0  0  0  0  0  0  0  0  0  0
   10.0840   43.6971  132.3500 C   0  0  0  0  0  0  0  0  0  0  0  0
    8.8627   43.5880  132.9823 C   0  0  0  0  0  0  0  0  0  0  0  0
    8.4114   44.5630  133.8788 C   0  0  0  0  0  0  0  0  0  0  0  0
    9.1911   45.6506  134.1397 C   0  0  0  0  0  0  0  0  0  0  0  0
    8.1591   47.8867  134.3597 C   0  0  0  0  0  0  0  0  0  0  0  0
    8.7730   48.1079  133.0527 N   0  0  0  0  0  0  0  0  0  0  0  0
    9.7174   48.5312  133.0203 H   0  0  0  0  0  0  0  0  0  0  0  0
    7.8986   48.7085  130.8314 C   0  0  0  0  0  0  0  0  0  0  0  0
    7.1737   48.2721  129.6990 C   0  0  0  0  0  0  0  0  0  0  0  0
    6.6994   46.9991  129.5856 C   0  0  0  0  0  0  0  0  0  0  0  0
    6.9242   46.1353  130.5726 N   0  0  0  0  0  0  0  0  0  0  0  0
    7.6034   46.4947  131.6674 C   0  0  0  0  0  0  0  0  0  0  0  0
    8.1120   47.7911  131.8326 C   0  0  0  0  0  0  0  0  0  0  0  0
    9.4434   50.4418  131.3800 O   0  0  0  0  0  0  0  0  0  0  0  0
    8.3989   50.0538  130.8662 C   0  0  0  0  0  0  0  0  0  0  0  0
    7.6273   51.0628  130.2513 O   0  0  0  0  0  0  0  0  0  0  0  0
    7.1714   51.7840  130.7846 H   0  0  0  0  0  0  0  0  0  0  0  0
   10.7189   42.5041  131.2055 S   0  0  0  0  0  0  0  0  0  0  0  0
   10.8009   43.1854  129.5355 C   0  0  0  0  0  0  0  0  0  0  0  0
   11.7392   44.0564  129.0403 C   0  0  0  0  0  0  0  0  0  0  0  0
   11.6014   44.4337  127.7549 C   0  0  0  0  0  0  0  0  0  0  0  0
   10.5396   43.9153  127.0593 C   0  0  0  0  0  0  0  0  0  0  0  0
    9.7717   42.9255  128.2092 S   0  0  0  0  0  0  0  0  0  0  0  0
 20 21  2  0  0  0
 21 22  1  0  0  0
 21 14  1  0  0  0
 14 15  2  0  0  0
 15 16  1  0  0  0
 16 17  2  0  0  0
 17 18  1  0  0  0
 18 19  2  0  0  0
 19 12  1  0  0  0
 12 11  1  0  0  0
 11  1  1  0  0  0
  1  2  1  0  0  0
  2  3  1  0  0  0
  3  4  1  0  0  0
  4  5  1  0  0  0
  5  6  2  0  0  0
  6  7  1  0  0  0
  7 24  1  0  0  0
 24 25  1  0  0  0
 25 26  2  0  0  0
 26 27  1  0  0  0
 27 28  2  0  0  0
 28 29  1  0  0  0
  7  8  2  0  0  0
  8  9  1  0  0  0
  9 10  2  0  0  0
 19 14  1  0  0  0
 10  1  1  0  0  0
 10  5  1  0  0  0
 29 25  1  0  0  0
 22 23  1  0  0  0
 12 13  1  0  0  0
M  END
> <minimizedAffinity>
-1.24634

> <CNNscore>
0.2486773878

> <CNNaffinity>
7.2396278381

> <CNN_VS>
1.8003317118

> <CNNaffinity_variance>
0.1201858297

$$$$
[H]OC(=O)c1c([H])c([H])nc([H])c1N([H])C([H])([H])C1([H])c2c([H])c([H])c(Sc3sc([H])c([H])c3[H])c([H])c2OC([H])([H])C1([H])[H]


 29 32  0  0  0  0  0  0  0  0999 V2000
   10.8576   44.7620  127.9087 C   0  0  0  0  0  0  0  0  0  0  0  0
    9.9883   43.6098  127.4308 C   0  0  0  0  0  0  0  0  0  0  0  0
    8.7716   43.4904  128.2957 C   0  0  0  0  0  0  0  0  0  0  0  0
    9.1087   43.4656  129.6499 O   0  0  0  0  0  0  0  0  0  0  0  0
   10.3757   43.8060  130.1237 C   0  0  0  0  0  0  0  0  0  0  0  0
   10.7388   43.4958  131.4406 C   0  0  0  0  0  0  0  0  0  0  0  0
   11.9867   43.8213  131.9361 C   0  0  0  0  0  0  0  0  0  0  0  0
   12.8611   44.4634  131.0837 C   0  0  0  0  0  0  0  0  0  0  0  0
   12.5047   44.7762  129.7672 C   0  0  0  0  0  0  0  0  0  0  0  0
   11.2656   44.4419  129.3073 C   0  0  0  0  0  0  0  0  0  0  0  0
   10.0209   46.0110  127.8572 C   0  0  0  0  0  0  0  0  0  0  0  0
    9.8269   46.6255  129.1683 N   0  0  0  0  0  0  0  0  0  0  0  0
   10.4038   46.2863  129.9585 H   0  0  0  0  0  0  0  0  0  0  0  0
    8.8513   48.4292  130.5300 C   0  0  0  0  0  0  0  0  0  0  0  0
    7.7969   49.3617  130.6594 C   0  0  0  0  0  0  0  0  0  0  0  0
    6.8226   49.4934  129.7151 C   0  0  0  0  0  0  0  0  0  0  0  0
    6.8621   48.7192  128.6335 N   0  0  0  0  0  0  0  0  0  0  0  0
    7.8363   47.8193  128.4600 C   0  0  0  0  0  0  0  0  0  0  0  0
    8.8612   47.6448  129.4011 C   0  0  0  0  0  0  0  0  0  0  0  0
   10.7063   47.4934  131.7026 O   0  0  0  0  0  0  0  0  0  0  0  0
    9.8628   48.3708  131.5472 C   0  0  0  0  0  0  0  0  0  0  0  0
    9.9184   49.4229  132.4862 O   0  0  0  0  0  0  0  0  0  0  0  0
    9.6875   49.2842  133.4557 H   0  0  0  0  0  0  0  0  0  0  0  0
   12.3685   43.3945  133.6119 S   0  0  0  0  0  0  0  0  0  0  0  0
   11.3201   44.3019  134.7685 C   0  0  0  0  0  0  0  0  0  0  0  0
   11.0761   43.9938  136.0837 C   0  0  0  0  0  0  0  0  0  0  0  0
   10.2544   44.8190  136.7600 C   0  0  0  0  0  0  0  0  0  0  0  0
    9.7374   45.8889  136.0759 C   0  0  0  0  0  0  0  0  0  0  0  0
   10.4072   45.7133  134.5226 S   0  0  0  0  0  0  0  0  0  0  0  0
 20 21  2  0  0  0
 21 22  1  0  0  0
 21 14  1  0  0  0
 14 15  2  0  0  0
 15 16  1  0  0  0
 16 17  2  0  0  0
 17 18  1  0  0  0
 18 19  2  0  0  0
 19 12  1  0  0  0
 12 11  1  0  0  0
 11  1  1  0  0  0
  1  2  1  0  0  0
  2  3  1  0  0  0
  3  4  1  0  0  0
  4  5  1  0  0  0
  5  6  2  0  0  0
  6  7  1  0  0  0
  7 24  1  0  0  0
 24 25  1  0  0  0
 25 26  2  0  0  0
 26 27  1  0  0  0
 27 28  2  0  0  0
 28 29  1  0  0  0
  7  8  2  0  0  0
  8  9  1  0  0  0
  9 10  2  0  0  0
 19 14  1  0  0  0
 10  1  1  0  0  0
 10  5  1  0  0  0
 29 25  1  0  0  0
 22 23  1  0  0  0
 12 13  1  0  0  0
M  END
> <minimizedAffinity>
-2.36047

> <CNNscore>
0.2274310738

> <CNNaffinity>
7.1574578285

> <CNN_VS>
1.6278283596

> <CNNaffinity_variance>
0.0436487123

$$$$
[H]OC(=O)c1c([H])c([H])nc([H])c1N([H])C([H])([H])C1([H])c2c([H])c([H])c(Sc3sc([H])c([H])c3[H])c([H])c2OC([H])([H])C1([H])[H]


 29 32  0  0  0  0  0  0  0  0999 V2000
    8.6039   47.2198  130.4155 C   0  0  0  0  0  0  0  0  0  0  0  0
    7.3946   46.2992  130.3692 C   0  0  0  0  0  0  0  0  0  0  0  0
    6.8275   46.2647  128.9837 C   0  0  0  0  0  0  0  0  0  0  0  0
    6.6207   47.5517  128.4846 O   0  0  0  0  0  0  0  0  0  0  0  0
    7.1510   48.6935  129.0852 C   0  0  0  0  0  0  0  0  0  0  0  0
    6.6859   49.9616  128.7141 C   0  0  0  0  0  0  0  0  0  0  0  0
    7.1932   51.1093  129.2923 C   0  0  0  0  0  0  0  0  0  0  0  0
    8.1755   50.9577  130.2492 C   0  0  0  0  0  0  0  0  0  0  0  0
    8.6446   49.6939  130.6246 C   0  0  0  0  0  0  0  0  0  0  0  0
    8.1241   48.5800  130.0356 C   0  0  0  0  0  0  0  0  0  0  0  0
    9.6069   46.6986  129.4229 C   0  0  0  0  0  0  0  0  0  0  0  0
   10.5381   45.7334  130.0019 N   0  0  0  0  0  0  0  0  0  0  0  0
   11.1416   45.1891  129.3602 H   0  0  0  0  0  0  0  0  0  0  0  0
   10.3339   44.2838  131.9809 C   0  0  0  0  0  0  0  0  0  0  0  0
   10.4010   44.2076  133.3908 C   0  0  0  0  0  0  0  0  0  0  0  0
   10.7380   45.2802  134.1618 C   0  0  0  0  0  0  0  0  0  0  0  0
   11.0134   46.4400  133.5705 N   0  0  0  0  0  0  0  0  0  0  0  0
   10.9645   46.5690  132.2401 C   0  0  0  0  0  0  0  0  0  0  0  0
   10.6235   45.4969  131.4029 C   0  0  0  0  0  0  0  0  0  0  0  0
    9.0713   42.9585  130.4509 O   0  0  0  0  0  0  0  0  0  0  0  0
   10.0071   43.1039  131.2310 C   0  0  0  0  0  0  0  0  0  0  0  0
   10.8337   41.9707  131.3870 O   0  0  0  0  0  0  0  0  0  0  0  0
   10.5073   41.1313  131.8356 H   0  0  0  0  0  0  0  0  0  0  0  0
    6.5519   52.6746  128.7681 S   0  0  0  0  0  0  0  0  0  0  0  0
    7.3282   53.2125  127.2293 C   0  0  0  0  0  0  0  0  0  0  0  0
    7.6890   54.4914  126.8853 C   0  0  0  0  0  0  0  0  0  0  0  0
    8.2577   54.6593  125.6762 C   0  0  0  0  0  0  0  0  0  0  0  0
    8.4243   53.5410  124.9005 C   0  0  0  0  0  0  0  0  0  0  0  0
    7.7881   52.2992  125.8727 S   0  0  0  0  0  0  0  0  0  0  0  0
 20 21  2  0  0  0
 21 22  1  0  0  0
 21 14  1  0  0  0
 14 15  2  0  0  0
 15 16  1  0  0  0
 16 17  2  0  0  0
 17 18  1  0  0  0
 18 19  2  0  0  0
 19 12  1  0  0  0
 12 11  1  0  0  0
 11  1  1  0  0  0
  1  2  1  0  0  0
  2  3  1  0  0  0
  3  4  1  0  0  0
  4  5  1  0  0  0
  5  6  2  0  0  0
  6  7  1  0  0  0
  7 24  1  0  0  0
 24 25  1  0  0  0
 25 26  2  0  0  0
 26 27  1  0  0  0
 27 28  2  0  0  0
 28 29  1  0  0  0
  7  8  2  0  0  0
  8  9  1  0  0  0
  9 10  2  0  0  0
 19 14  1  0  0  0
 10  1  1  0  0  0
 10  5  1  0  0  0
 29 25  1  0  0  0
 22 23  1  0  0  0
 12 13  1  0  0  0
M  END
> <minimizedAffinity>
2.25429

> <CNNscore>
0.2200300097

> <CNNaffinity>
6.7655501366

> <CNN_VS>
1.4886240959

> <CNNaffinity_variance>
0.2453266382

$$$$
[H]OC(=O)c1c([H])c([H])nc([H])c1N([H])C([H])([H])C1([H])c2c([H])c([H])c(Sc3sc([H])c([H])c3[H])c([H])c2OC([H])([H])C1([H])[H]


 29 32  0  0  0  0  0  0  0  0999 V2000
    7.3621   48.2013  130.2626 C   0  0  0  0  0  0  0  0  0  0  0  0
    6.5254   47.3443  129.3259 C   0  0  0  0  0  0  0  0  0  0  0  0
    7.0586   47.4376  127.9297 C   0  0  0  0  0  0  0  0  0  0  0  0
    7.2284   48.7659  127.5360 O   0  0  0  0  0  0  0  0  0  0  0  0
    7.1873   49.8347  128.4313 C   0  0  0  0  0  0  0  0  0  0  0  0
    7.0815   51.1469  127.9527 C   0  0  0  0  0  0  0  0  0  0  0  0
    7.0388   52.2243  128.8167 C   0  0  0  0  0  0  0  0  0  0  0  0
    7.1045   51.9574  130.1687 C   0  0  0  0  0  0  0  0  0  0  0  0
    7.2103   50.6489  130.6534 C   0  0  0  0  0  0  0  0  0  0  0  0
    7.2501   49.6066  129.7755 C   0  0  0  0  0  0  0  0  0  0  0  0
    8.7807   47.7074  130.1809 C   0  0  0  0  0  0  0  0  0  0  0  0
    9.1732   46.8983  131.3321 N   0  0  0  0  0  0  0  0  0  0  0  0
    8.5821   46.9354  132.1814 H   0  0  0  0  0  0  0  0  0  0  0  0
   10.6659   45.2232  130.3194 C   0  0  0  0  0  0  0  0  0  0  0  0
   11.8287   44.4364  130.4838 C   0  0  0  0  0  0  0  0  0  0  0  0
   12.6123   44.5207  131.5961 C   0  0  0  0  0  0  0  0  0  0  0  0
   12.2740   45.3711  132.5621 N   0  0  0  0  0  0  0  0  0  0  0  0
   11.1837   46.1391  132.4595 C   0  0  0  0  0  0  0  0  0  0  0  0
   10.3450   46.0903  131.3366 C   0  0  0  0  0  0  0  0  0  0  0  0
    8.8563   44.4968  128.9447 O   0  0  0  0  0  0  0  0  0  0  0  0
    9.9085   45.1074  129.1052 C   0  0  0  0  0  0  0  0  0  0  0  0
   10.4026   45.7552  127.9529 O   0  0  0  0  0  0  0  0  0  0  0  0
   10.7480   45.2411  127.1599 H   0  0  0  0  0  0  0  0  0  0  0  0
    6.9043   53.8520  128.1322 S   0  0  0  0  0  0  0  0  0  0  0  0
    7.3932   53.8685  126.3942 C   0  0  0  0  0  0  0  0  0  0  0  0
    8.6548   53.6832  125.8858 C   0  0  0  0  0  0  0  0  0  0  0  0
    8.7856   53.7377  124.5466 C   0  0  0  0  0  0  0  0  0  0  0  0
    7.6504   53.9727  123.8143 C   0  0  0  0  0  0  0  0  0  0  0  0
    6.4446   54.1094  125.0057 S   0  0  0  0  0  0  0  0  0  0  0  0
 20 21  2  0  0  0
 21 22  1  0  0  0
 21 14  1  0  0  0
 14 15  2  0  0  0
 15 16  1  0  0  0
 16 17  2  0  0  0
 17 18  1  0  0  0
 18 19  2  0  0  0
 19 12  1  0  0  0
 12 11  1  0  0  0
 11  1  1  0  0  0
  1  2  1  0  0  0
  2  3  1  0  0  0
  3  4  1  0  0  0
  4  5  1  0  0  0
  5  6  2  0  0  0
  6  7  1  0  0  0
  7 24  1  0  0  0
 24 25  1  0  0  0
 25 26  2  0  0  0
 26 27  1  0  0  0
 27 28  2  0  0  0
 28 29  1  0  0  0
  7  8  2  0  0  0
  8  9  1  0  0  0
  9 10  2  0  0  0
 19 14  1  0  0  0
 10  1  1  0  0  0
 10  5  1  0  0  0
 29 25  1  0  0  0
 22 23  1  0  0  0
 12 13  1  0  0  0
M  END
> <minimizedAffinity>
3.46602

> <CNNscore>
0.1931404471

> <CNNaffinity>
6.1896409988

> <CNN_VS>
1.1954699755

> <CNNaffinity_variance>
0.1519139707

$$$$
[H]N=c1c(C(=O)N([H])C([H])([H])c2oc([H])c([H])c2[H])c([H])c2c(=O)n3c([H])c([H])c([H])c([H])c3nc2n1C([H])([H])c1c([H])c([H])c(C([H])([H])[H])c([H])c1[H]


 35 39  0  0  0  0  0  0  0  0999 V2000
    7.9592   47.6658  129.5664 N   0  0  0  0  0  0  0  0  0  0  0  0
    7.5158   48.8307  129.0215 C   0  0  0  0  0  0  0  0  0  0  0  0
    6.9331   48.7392  127.9170 N   0  0  0  0  0  0  0  0  0  0  0  0
    7.7260   50.0660  129.5769 C   0  0  0  0  0  0  0  0  0  0  0  0
    8.4481   50.1009  130.7745 C   0  0  0  0  0  0  0  0  0  0  0  0
    8.9081   48.9607  131.3462 C   0  0  0  0  0  0  0  0  0  0  0  0
    9.6280   49.0196  132.5130 C   0  0  0  0  0  0  0  0  0  0  0  0
    9.8636   50.1119  133.0846 O   0  0  0  0  0  0  0  0  0  0  0  0
   10.0993   47.8930  133.0712 N   0  0  0  0  0  0  0  0  0  0  0  0
   10.8082   47.9350  134.2174 C   0  0  0  0  0  0  0  0  0  0  0  0
   11.3072   46.8219  134.8225 C   0  0  0  0  0  0  0  0  0  0  0  0
   11.0807   45.5791  134.2392 C   0  0  0  0  0  0  0  0  0  0  0  0
   10.3548   45.5724  133.0719 C   0  0  0  0  0  0  0  0  0  0  0  0
    9.8574   46.7096  132.4737 C   0  0  0  0  0  0  0  0  0  0  0  0
    9.1510   46.6730  131.3341 N   0  0  0  0  0  0  0  0  0  0  0  0
    8.6458   47.7574  130.7159 C   0  0  0  0  0  0  0  0  0  0  0  0
    6.5174   49.3896  127.2967 H   0  0  0  0  0  0  0  0  0  0  0  0
    7.2093   51.3312  129.1236 C   0  0  0  0  0  0  0  0  0  0  0  0
    6.4473   51.9410  129.9788 O   0  0  0  0  0  0  0  0  0  0  0  0
    7.4288   51.9582  127.8843 N   0  0  0  0  0  0  0  0  0  0  0  0
    7.9947   51.4925  127.1622 H   0  0  0  0  0  0  0  0  0  0  0  0
    6.8444   53.2549  127.5621 C   0  0  0  0  0  0  0  0  0  0  0  0
    7.4187   53.8344  126.3399 C   0  0  0  0  0  0  0  0  0  0  0  0
    6.7645   54.1252  125.1736 C   0  0  0  0  0  0  0  0  0  0  0  0
    7.7056   54.6613  124.2825 C   0  0  0  0  0  0  0  0  0  0  0  0
    8.8851   54.6579  124.9836 C   0  0  0  0  0  0  0  0  0  0  0  0
    8.6739   54.1712  126.1688 O   0  0  0  0  0  0  0  0  0  0  0  0
    7.7423   46.4029  128.9219 C   0  0  0  0  0  0  0  0  0  0  0  0
   10.8180   41.9340  130.9817 C   0  0  0  0  0  0  0  0  0  0  0  0
    9.9711   43.0534  130.4832 C   0  0  0  0  0  0  0  0  0  0  0  0
    8.6820   43.2493  130.8535 C   0  0  0  0  0  0  0  0  0  0  0  0
    7.9370   44.3305  130.3463 C   0  0  0  0  0  0  0  0  0  0  0  0
    8.4590   45.2351  129.4632 C   0  0  0  0  0  0  0  0  0  0  0  0
    9.7933   45.0033  129.1026 C   0  0  0  0  0  0  0  0  0  0  0  0
   10.5329   43.9381  129.5995 C   0  0  0  0  0  0  0  0  0  0  0  0
 29 30  1  0  0  0
 30 31  2  0  0  0
 31 32  1  0  0  0
 32 33  2  0  0  0
 33 28  1  0  0  0
 28  1  1  0  0  0
  1  2  1  0  0  0
  2  3  2  0  0  0
  2  4  1  0  0  0
  4 18  1  0  0  0
 18 19  2  0  0  0
 18 20  1  0  0  0
 20 22  1  0  0  0
 22 23  1  0  0  0
 23 24  2  0  0  0
 24 25  1  0  0  0
 25 26  2  0  0  0
 26 27  1  0  0  0
  4  5  2  0  0  0
  5  6  1  0  0  0
  6  7  1  0  0  0
  7  8  2  0  0  0
  7  9  1  0  0  0
  9 10  1  0  0  0
 10 11  2  0  0  0
 11 12  1  0  0  0
 12 13  2  0  0  0
 13 14  1  0  0  0
 14 15  2  0  0  0
 15 16  1  0  0  0
 33 34  1  0  0  0
 34 35  2  0  0  0
 35 30  1  0  0  0
 16  1  1  0  0  0
 27 23  1  0  0  0
 16  6  2  0  0  0
 14  9  1  0  0  0
  3 17  1  0  0  0
 20 21  1  0  0  0
M  END
> <minimizedAffinity>
-4.88524

> <CNNscore>
0.6369034648

> <CNNaffinity>
7.6805357933

> <CNN_VS>
4.8917598724

> <CNNaffinity_variance>
0.3630355000

$$$$
[H]N=c1c(C(=O)N([H])C([H])([H])c2oc([H])c([H])c2[H])c([H])c2c(=O)n3c([H])c([H])c([H])c([H])c3nc2n1C([H])([H])c1c([H])c([H])c(C([H])([H])[H])c([H])c1[H]


 35 39  0  0  0  0  0  0  0  0999 V2000
    9.5325   48.7134  131.3893 N   0  0  0  0  0  0  0  0  0  0  0  0
    8.8297   49.8209  131.0287 C   0  0  0  0  0  0  0  0  0  0  0  0
    9.0184   50.8467  131.7214 N   0  0  0  0  0  0  0  0  0  0  0  0
    7.9079   49.8476  130.0146 C   0  0  0  0  0  0  0  0  0  0  0  0
    7.6936   48.6469  129.3296 C   0  0  0  0  0  0  0  0  0  0  0  0
    8.3737   47.5220  129.6624 C   0  0  0  0  0  0  0  0  0  0  0  0
    8.1361   46.3511  128.9874 C   0  0  0  0  0  0  0  0  0  0  0  0
    7.3076   46.2922  128.0464 O   0  0  0  0  0  0  0  0  0  0  0  0
    8.7959   45.2321  129.3272 N   0  0  0  0  0  0  0  0  0  0  0  0
    8.5731   44.0741  128.6732 C   0  0  0  0  0  0  0  0  0  0  0  0
    9.2159   42.9134  128.9795 C   0  0  0  0  0  0  0  0  0  0  0  0
   10.1472   42.9115  130.0132 C   0  0  0  0  0  0  0  0  0  0  0  0
   10.3500   44.1082  130.6585 C   0  0  0  0  0  0  0  0  0  0  0  0
    9.6899   45.2736  130.3346 C   0  0  0  0  0  0  0  0  0  0  0  0
    9.9085   46.4280  130.9815 N   0  0  0  0  0  0  0  0  0  0  0  0
    9.2879   47.5891  130.6985 C   0  0  0  0  0  0  0  0  0  0  0  0
    8.6615   51.7703  131.7037 H   0  0  0  0  0  0  0  0  0  0  0  0
    7.1981   50.9916  129.5042 C   0  0  0  0  0  0  0  0  0  0  0  0
    6.1880   51.3671  130.2270 O   0  0  0  0  0  0  0  0  0  0  0  0
    7.4688   51.7228  128.3340 N   0  0  0  0  0  0  0  0  0  0  0  0
    8.2361   51.4365  127.7113 H   0  0  0  0  0  0  0  0  0  0  0  0
    6.6653   52.8749  127.9416 C   0  0  0  0  0  0  0  0  0  0  0  0
    7.2564   53.6047  126.8114 C   0  0  0  0  0  0  0  0  0  0  0  0
    6.6339   53.9847  125.6534 C   0  0  0  0  0  0  0  0  0  0  0  0
    7.5804   54.6542  124.8638 C   0  0  0  0  0  0  0  0  0  0  0  0
    8.7305   54.6326  125.6119 C   0  0  0  0  0  0  0  0  0  0  0  0
    8.4985   54.0158  126.7308 O   0  0  0  0  0  0  0  0  0  0  0  0
   10.4589   48.7334  132.4842 C   0  0  0  0  0  0  0  0  0  0  0  0
   11.1759   43.6934  135.2694 C   0  0  0  0  0  0  0  0  0  0  0  0
   11.0586   44.9824  134.5323 C   0  0  0  0  0  0  0  0  0  0  0  0
   12.0050   45.4590  133.6870 C   0  0  0  0  0  0  0  0  0  0  0  0
   11.8305   46.6854  133.0186 C   0  0  0  0  0  0  0  0  0  0  0  0
   10.7141   47.4590  133.1780 C   0  0  0  0  0  0  0  0  0  0  0  0
    9.7564   46.9366  134.0576 C   0  0  0  0  0  0  0  0  0  0  0  0
    9.9234   45.7275  134.7201 C   0  0  0  0  0  0  0  0  0  0  0  0
 29 30  1  0  0  0
 30 31  2  0  0  0
 31 32  1  0  0  0
 32 33  2  0  0  0
 33 28  1  0  0  0
 28  1  1  0  0  0
  1  2  1  0  0  0
  2  3  2  0  0  0
  2  4  1  0  0  0
  4 18  1  0  0  0
 18 19  2  0  0  0
 18 20  1  0  0  0
 20 22  1  0  0  0
 22 23  1  0  0  0
 23 24  2  0  0  0
 24 25  1  0  0  0
 25 26  2  0  0  0
 26 27  1  0  0  0
  4  5  2  0  0  0
  5  6  1  0  0  0
  6  7  1  0  0  0
  7  8  2  0  0  0
  7  9  1  0  0  0
  9 10  1  0  0  0
 10 11  2  0  0  0
 11 12  1  0  0  0
 12 13  2  0  0  0
 13 14  1  0  0  0
 14 15  2  0  0  0
 15 16  1  0  0  0
 33 34  1  0  0  0
 34 35  2  0  0  0
 35 30  1  0  0  0
 16  1  1  0  0  0
 27 23  1  0  0  0
 16  6  2  0  0  0
 14  9  1  0  0  0
  3 17  1  0  0  0
 20 21  1  0  0  0
M  END
> <minimizedAffinity>
-2.55217

> <CNNscore>
0.4812243581

> <CNNaffinity>
7.5687689781

> <CNN_VS>
3.6422760487

> <CNNaffinity_variance>
0.2992972434

$$$$
[H]N=c1c(C(=O)N([H])C([H])([H])c2oc([H])c([H])c2[H])c([H])c2c(=O)n3c([H])c([H])c([H])c([H])c3nc2n1C([H])([H])c1c([H])c([H])c(C([H])([H])[H])c([H])c1[H]


 35 39  0  0  0  0  0  0  0  0999 V2000
   10.5343   47.0911  131.4798 N   0  0  0  0  0  0  0  0  0  0  0  0
    9.9951   48.3368  131.3914 C   0  0  0  0  0  0  0  0  0  0  0  0
   10.7679   49.2931  131.6282 N   0  0  0  0  0  0  0  0  0  0  0  0
    8.6731   48.5832  131.1258 C   0  0  0  0  0  0  0  0  0  0  0  0
    7.8509   47.4662  130.9441 C   0  0  0  0  0  0  0  0  0  0  0  0
    8.3521   46.2090  131.0271 C   0  0  0  0  0  0  0  0  0  0  0  0
    7.5242   45.1273  130.8611 C   0  0  0  0  0  0  0  0  0  0  0  0
    6.3015   45.2682  130.6151 O   0  0  0  0  0  0  0  0  0  0  0  0
    8.0154   43.8817  130.9603 N   0  0  0  0  0  0  0  0  0  0  0  0
    7.2142   42.8091  130.7997 C   0  0  0  0  0  0  0  0  0  0  0  0
    7.6637   41.5269  130.8905 C   0  0  0  0  0  0  0  0  0  0  0  0
    9.0099   41.3025  131.1612 C   0  0  0  0  0  0  0  0  0  0  0  0
    9.7981   42.4175  131.3192 C   0  0  0  0  0  0  0  0  0  0  0  0
    9.3256   43.7083  131.2237 C   0  0  0  0  0  0  0  0  0  0  0  0
   10.1186   44.7784  131.3818 N   0  0  0  0  0  0  0  0  0  0  0  0
    9.7005   46.0556  131.2963 C   0  0  0  0  0  0  0  0  0  0  0  0
   10.6673   50.2781  131.6437 H   0  0  0  0  0  0  0  0  0  0  0  0
    8.0437   49.8611  130.9165 C   0  0  0  0  0  0  0  0  0  0  0  0
    8.6852   50.8687  131.4236 O   0  0  0  0  0  0  0  0  0  0  0  0
    6.8369   50.1285  130.2462 N   0  0  0  0  0  0  0  0  0  0  0  0
    6.2763   49.3558  129.8625 H   0  0  0  0  0  0  0  0  0  0  0  0
    6.3198   51.4844  130.1008 C   0  0  0  0  0  0  0  0  0  0  0  0
    6.7985   52.1322  128.8717 C   0  0  0  0  0  0  0  0  0  0  0  0
    7.3942   51.5316  127.7960 C   0  0  0  0  0  0  0  0  0  0  0  0
    7.6830   52.5335  126.8578 C   0  0  0  0  0  0  0  0  0  0  0  0
    7.2340   53.6916  127.4410 C   0  0  0  0  0  0  0  0  0  0  0  0
    6.7299   53.4138  128.6050 O   0  0  0  0  0  0  0  0  0  0  0  0
   11.9186   46.8910  131.7973 C   0  0  0  0  0  0  0  0  0  0  0  0
   14.7551   43.3094  128.2195 C   0  0  0  0  0  0  0  0  0  0  0  0
   14.0760   44.2158  129.1870 C   0  0  0  0  0  0  0  0  0  0  0  0
   14.6051   44.5815  130.3801 C   0  0  0  0  0  0  0  0  0  0  0  0
   13.9109   45.4449  131.2484 C   0  0  0  0  0  0  0  0  0  0  0  0
   12.6802   45.9597  130.9469 C   0  0  0  0  0  0  0  0  0  0  0  0
   12.1634   45.5620  129.7065 C   0  0  0  0  0  0  0  0  0  0  0  0
   12.8436   44.7101  128.8461 C   0  0  0  0  0  0  0  0  0  0  0  0
 29 30  1  0  0  0
 30 31  2  0  0  0
 31 32  1  0  0  0
 32 33  2  0  0  0
 33 28  1  0  0  0
 28  1  1  0  0  0
  1  2  1  0  0  0
  2  3  2  0  0  0
  2  4  1  0  0  0
  4 18  1  0  0  0
 18 19  2  0  0  0
 18 20  1  0  0  0
 20 22  1  0  0  0
 22 23  1  0  0  0
 23 24  2  0  0  0
 24 25  1  0  0  0
 25 26  2  0  0  0
 26 27  1  0  0  0
  4  5  2  0  0  0
  5  6  1  0  0  0
  6  7  1  0  0  0
  7  8  2  0  0  0
  7  9  1  0  0  0
  9 10  1  0  0  0
 10 11  2  0  0  0
 11 12  1  0  0  0
 12 13  2  0  0  0
 13 14  1  0  0  0
 14 15  2  0  0  0
 15 16  1  0  0  0
 33 34  1  0  0  0
 34 35  2  0  0  0
 35 30  1  0  0  0
 16  1  1  0  0  0
 27 23  1  0  0  0
 16  6  2  0  0  0
 14  9  1  0  0  0
  3 17  1  0  0  0
 20 21  1  0  0  0
M  END
> <minimizedAffinity>
20.38478

> <CNNscore>
0.4722076654

> <CNNaffinity>
7.3404645920

> <CNN_VS>
3.4662237167

> <CNNaffinity_variance>
2.1963441372

$$$$
[H]N=c1c(C(=O)N([H])C([H])([H])c2oc([H])c([H])c2[H])c([H])c2c(=O)n3c([H])c([H])c([H])c([H])c3nc2n1C([H])([H])c1c([H])c([H])c(C([H])([H])[H])c([H])c1[H]


 35 39  0  0  0  0  0  0  0  0999 V2000
   11.3482   45.5804  132.6325 N   0  0  0  0  0  0  0  0  0  0  0  0
   10.7665   46.7920  132.4222 C   0  0  0  0  0  0  0  0  0  0  0  0
   11.2241   47.7492  133.0873 N   0  0  0  0  0  0  0  0  0  0  0  0
    9.6964   46.9949  131.5901 C   0  0  0  0  0  0  0  0  0  0  0  0
    9.1891   45.8682  130.9343 C   0  0  0  0  0  0  0  0  0  0  0  0
    9.7412   44.6438  131.1209 C   0  0  0  0  0  0  0  0  0  0  0  0
    9.2175   43.5495  130.4796 C   0  0  0  0  0  0  0  0  0  0  0  0
    8.2381   43.6512  129.7012 O   0  0  0  0  0  0  0  0  0  0  0  0
    9.7518   42.3337  130.6768 N   0  0  0  0  0  0  0  0  0  0  0  0
    9.2481   41.2491  130.0537 C   0  0  0  0  0  0  0  0  0  0  0  0
    9.7539   39.9959  130.2204 C   0  0  0  0  0  0  0  0  0  0  0  0
   10.8404   39.8154  131.0706 C   0  0  0  0  0  0  0  0  0  0  0  0
   11.3289   40.9415  131.6893 C   0  0  0  0  0  0  0  0  0  0  0  0
   10.8039   42.2026  131.5086 C   0  0  0  0  0  0  0  0  0  0  0  0
   11.3019   43.2845  132.1254 N   0  0  0  0  0  0  0  0  0  0  0  0
   10.8218   44.5339  131.9777 C   0  0  0  0  0  0  0  0  0  0  0  0
   11.0116   48.7144  133.1494 H   0  0  0  0  0  0  0  0  0  0  0  0
    9.0873   48.2501  131.2343 C   0  0  0  0  0  0  0  0  0  0  0  0
    8.4536   48.8366  132.2030 O   0  0  0  0  0  0  0  0  0  0  0  0
    9.0978   48.8894  129.9820 N   0  0  0  0  0  0  0  0  0  0  0  0
    9.5552   48.4415  129.1766 H   0  0  0  0  0  0  0  0  0  0  0  0
    8.4413   50.1738  129.7666 C   0  0  0  0  0  0  0  0  0  0  0  0
    6.9772   50.0513  129.7400 C   0  0  0  0  0  0  0  0  0  0  0  0
    6.2380   49.0715  129.1347 C   0  0  0  0  0  0  0  0  0  0  0  0
    4.8847   49.3573  129.3673 C   0  0  0  0  0  0  0  0  0  0  0  0
    4.8987   50.5106  130.1105 C   0  0  0  0  0  0  0  0  0  0  0  0
    6.1294   50.8776  130.3029 O   0  0  0  0  0  0  0  0  0  0  0  0
   12.4438   45.4197  133.5441 C   0  0  0  0  0  0  0  0  0  0  0  0
   13.3422   49.8465  137.1870 C   0  0  0  0  0  0  0  0  0  0  0  0
   13.1815   48.7051  136.2435 C   0  0  0  0  0  0  0  0  0  0  0  0
   14.2125   47.9607  135.7744 C   0  0  0  0  0  0  0  0  0  0  0  0
   13.9913   46.8921  134.8854 C   0  0  0  0  0  0  0  0  0  0  0  0
   12.7432   46.5446  134.4473 C   0  0  0  0  0  0  0  0  0  0  0  0
   11.7010   47.3339  134.9520 C   0  0  0  0  0  0  0  0  0  0  0  0
   11.9134   48.3896  135.8290 C   0  0  0  0  0  0  0  0  0  0  0  0
 29 30  1  0  0  0
 30 31  2  0  0  0
 31 32  1  0  0  0
 32 33  2  0  0  0
 33 28  1  0  0  0
 28  1  1  0  0  0
  1  2  1  0  0  0
  2  3  2  0  0  0
  2  4  1  0  0  0
  4 18  1  0  0  0
 18 19  2  0  0  0
 18 20  1  0  0  0
 20 22  1  0  0  0
 22 23  1  0  0  0
 23 24  2  0  0  0
 24 25  1  0  0  0
 25 26  2  0  0  0
 26 27  1  0  0  0
  4  5  2  0  0  0
  5  6  1  0  0  0
  6  7  1  0  0  0
  7  8  2  0  0  0
  7  9  1  0  0  0
  9 10  1  0  0  0
 10 11  2  0  0  0
 11 12  1  0  0  0
 12 13  2  0  0  0
 13 14  1  0  0  0
 14 15  2  0  0  0
 15 16  1  0  0  0
 33 34  1  0  0  0
 34 35  2  0  0  0
 35 30  1  0  0  0
 16  1  1  0  0  0
 27 23  1  0  0  0
 16  6  2  0  0  0
 14  9  1  0  0  0
  3 17  1  0  0  0
 20 21  1  0  0  0
M  END
> <minimizedAffinity>
18.65690

> <CNNscore>
0.4685229957

> <CNNaffinity>
7.4768781662

> <CNN_VS>
3.5030894279

> <CNNaffinity_variance>
1.5913821459

$$$$
[H]N=c1c(C(=O)N([H])C([H])([H])c2oc([H])c([H])c2[H])c([H])c2c(=O)n3c([H])c([H])c([H])c([H])c3nc2n1C([H])([H])c1c([H])c([H])c(C([H])([H])[H])c([H])c1[H]


 35 39  0  0  0  0  0  0  0  0999 V2000
    9.1980   44.3845  130.6494 N   0  0  0  0  0  0  0  0  0  0  0  0
    8.5317   45.2879  129.8811 C   0  0  0  0  0  0  0  0  0  0  0  0
    7.7191   44.8180  129.0523 N   0  0  0  0  0  0  0  0  0  0  0  0
    8.7474   46.6407  129.9268 C   0  0  0  0  0  0  0  0  0  0  0  0
    9.7219   47.0907  130.8239 C   0  0  0  0  0  0  0  0  0  0  0  0
   10.4083   46.2198  131.6043 C   0  0  0  0  0  0  0  0  0  0  0  0
   11.3712   46.6817  132.4660 C   0  0  0  0  0  0  0  0  0  0  0  0
   11.6289   47.9059  132.5672 O   0  0  0  0  0  0  0  0  0  0  0  0
   12.0640   45.8191  133.2268 N   0  0  0  0  0  0  0  0  0  0  0  0
   13.0132   46.2580  134.0781 C   0  0  0  0  0  0  0  0  0  0  0  0
   13.7424   45.4244  134.8701 C   0  0  0  0  0  0  0  0  0  0  0  0
   13.5051   44.0549  134.8055 C   0  0  0  0  0  0  0  0  0  0  0  0
   12.5313   43.6417  133.9277 C   0  0  0  0  0  0  0  0  0  0  0  0
   11.8028   44.5004  133.1336 C   0  0  0  0  0  0  0  0  0  0  0  0
   10.8573   44.0688  132.2859 N   0  0  0  0  0  0  0  0  0  0  0  0
   10.1216   44.8709  131.4929 C   0  0  0  0  0  0  0  0  0  0  0  0
    7.1107   45.2125  128.3780 H   0  0  0  0  0  0  0  0  0  0  0  0
    8.0219   47.6691  129.2273 C   0  0  0  0  0  0  0  0  0  0  0  0
    8.6925   48.7617  129.0265 O   0  0  0  0  0  0  0  0  0  0  0  0
    6.6978   47.6221  128.7567 N   0  0  0  0  0  0  0  0  0  0  0  0
    6.1172   46.7902  128.9282 H   0  0  0  0  0  0  0  0  0  0  0  0
    6.0903   48.7443  128.0506 C   0  0  0  0  0  0  0  0  0  0  0  0
    6.3423   50.0259  128.7240 C   0  0  0  0  0  0  0  0  0  0  0  0
    6.0562   50.3505  130.0223 C   0  0  0  0  0  0  0  0  0  0  0  0
    6.4685   51.6752  130.2283 C   0  0  0  0  0  0  0  0  0  0  0  0
    6.9849   52.0675  129.0191 C   0  0  0  0  0  0  0  0  0  0  0  0
    6.8918   51.0830  128.1774 O   0  0  0  0  0  0  0  0  0  0  0  0
    8.9576   42.9753  130.5333 C   0  0  0  0  0  0  0  0  0  0  0  0
    6.0321   40.6102  134.9517 C   0  0  0  0  0  0  0  0  0  0  0  0
    6.7393   41.1843  133.7731 C   0  0  0  0  0  0  0  0  0  0  0  0
    6.2950   41.0745  132.4973 C   0  0  0  0  0  0  0  0  0  0  0  0
    7.0111   41.6435  131.4274 C   0  0  0  0  0  0  0  0  0  0  0  0
    8.1799   42.3309  131.6060 C   0  0  0  0  0  0  0  0  0  0  0  0
    8.6097   42.4260  132.9364 C   0  0  0  0  0  0  0  0  0  0  0  0
    7.9075   41.8662  133.9958 C   0  0  0  0  0  0  0  0  0  0  0  0
 29 30  1  0  0  0
 30 31  2  0  0  0
 31 32  1  0  0  0
 32 33  2  0  0  0
 33 28  1  0  0  0
 28  1  1  0  0  0
  1  2  1  0  0  0
  2  3  2  0  0  0
  2  4  1  0  0  0
  4 18  1  0  0  0
 18 19  2  0  0  0
 18 20  1  0  0  0
 20 22  1  0  0  0
 22 23  1  0  0  0
 23 24  2  0  0  0
 24 25  1  0  0  0
 25 26  2  0  0  0
 26 27  1  0  0  0
  4  5  2  0  0  0
  5  6  1  0  0  0
  6  7  1  0  0  0
  7  8  2  0  0  0
  7  9  1  0  0  0
  9 10  1  0  0  0
 10 11  2  0  0  0
 11 12  1  0  0  0
 12 13  2  0  0  0
 13 14  1  0  0  0
 14 15  2  0  0  0
 15 16  1  0  0  0
 33 34  1  0  0  0
 34 35  2  0  0  0
 35 30  1  0  0  0
 16  1  1  0  0  0
 27 23  1  0  0  0
 16  6  2  0  0  0
 14  9  1  0  0  0
  3 17  1  0  0  0
 20 21  1  0  0  0
M  END
> <minimizedAffinity>
15.18657

> <CNNscore>
0.4624360502

> <CNNaffinity>
7.6110715866

> <CNN_VS>
3.5196337700

> <CNNaffinity_variance>
2.3616504669

$$$$
[H]N=c1c(C(=O)N([H])C([H])([H])c2oc([H])c([H])c2[H])c([H])c2c(=O)n3c([H])c([H])c([H])c([H])c3nc2n1C([H])([H])c1c([H])c([H])c(C([H])([H])[H])c([H])c1[H]


 35 39  0  0  0  0  0  0  0  0999 V2000
    9.2735   44.4146  130.3951 N   0  0  0  0  0  0  0  0  0  0  0  0
    9.7671   43.8096  129.2812 C   0  0  0  0  0  0  0  0  0  0  0  0
    9.7422   42.5577  129.2736 N   0  0  0  0  0  0  0  0  0  0  0  0
   10.3297   44.4829  128.2282 C   0  0  0  0  0  0  0  0  0  0  0  0
   10.3913   45.8763  128.3354 C   0  0  0  0  0  0  0  0  0  0  0  0
    9.9117   46.5144  129.4315 C   0  0  0  0  0  0  0  0  0  0  0  0
    9.9967   47.8810  129.5227 C   0  0  0  0  0  0  0  0  0  0  0  0
   10.4980   48.5704  128.6014 O   0  0  0  0  0  0  0  0  0  0  0  0
    9.5382   48.5130  130.6150 N   0  0  0  0  0  0  0  0  0  0  0  0
    9.6149   49.8552  130.7189 C   0  0  0  0  0  0  0  0  0  0  0  0
    9.1646   50.5423  131.8048 C   0  0  0  0  0  0  0  0  0  0  0  0
    8.5976   49.8363  132.8613 C   0  0  0  0  0  0  0  0  0  0  0  0
    8.5350   48.4701  132.7227 C   0  0  0  0  0  0  0  0  0  0  0  0
    8.9960   47.7914  131.6157 C   0  0  0  0  0  0  0  0  0  0  0  0
    8.9213   46.4567  131.5072 N   0  0  0  0  0  0  0  0  0  0  0  0
    9.3576   45.7531  130.4452 C   0  0  0  0  0  0  0  0  0  0  0  0
   10.0231   41.8628  128.6264 H   0  0  0  0  0  0  0  0  0  0  0  0
   10.7819   43.9336  126.9765 C   0  0  0  0  0  0  0  0  0  0  0  0
    9.8341   43.5022  126.2022 O   0  0  0  0  0  0  0  0  0  0  0  0
   12.1049   43.8101  126.5167 N   0  0  0  0  0  0  0  0  0  0  0  0
   12.8895   44.1036  127.1141 H   0  0  0  0  0  0  0  0  0  0  0  0
   12.4176   43.2375  125.2124 C   0  0  0  0  0  0  0  0  0  0  0  0
   12.8738   41.8442  125.3128 C   0  0  0  0  0  0  0  0  0  0  0  0
   12.0966   40.7230  125.4198 C   0  0  0  0  0  0  0  0  0  0  0  0
   12.9562   39.6167  125.4883 C   0  0  0  0  0  0  0  0  0  0  0  0
   14.2165   40.1546  125.4166 C   0  0  0  0  0  0  0  0  0  0  0  0
   14.1227   41.4458  125.3161 O   0  0  0  0  0  0  0  0  0  0  0  0
    8.7287   43.6570  131.4843 C   0  0  0  0  0  0  0  0  0  0  0  0
   11.7010   43.2906  136.4547 C   0  0  0  0  0  0  0  0  0  0  0  0
   10.9596   43.4515  135.1729 C   0  0  0  0  0  0  0  0  0  0  0  0
   11.0690   44.5359  134.3670 C   0  0  0  0  0  0  0  0  0  0  0  0
   10.3411   44.6242  133.1655 C   0  0  0  0  0  0  0  0  0  0  0  0
    9.4925   43.6379  132.7440 C   0  0  0  0  0  0  0  0  0  0  0  0
    9.4039   42.5318  133.6000 C   0  0  0  0  0  0  0  0  0  0  0  0
   10.1194   42.4395  134.7867 C   0  0  0  0  0  0  0  0  0  0  0  0
 29 30  1  0  0  0
 30 31  2  0  0  0
 31 32  1  0  0  0
 32 33  2  0  0  0
 33 28  1  0  0  0
 28  1  1  0  0  0
  1  2  1  0  0  0
  2  3  2  0  0  0
  2  4  1  0  0  0
  4 18  1  0  0  0
 18 19  2  0  0  0
 18 20  1  0  0  0
 20 22  1  0  0  0
 22 23  1  0  0  0
 23 24  2  0  0  0
 24 25  1  0  0  0
 25 26  2  0  0  0
 26 27  1  0  0  0
  4  5  2  0  0  0
  5  6  1  0  0  0
  6  7  1  0  0  0
  7  8  2  0  0  0
  7  9  1  0  0  0
  9 10  1  0  0  0
 10 11  2  0  0  0
 11 12  1  0  0  0
 12 13  2  0  0  0
 13 14  1  0  0  0
 14 15  2  0  0  0
 15 16  1  0  0  0
 33 34  1  0  0  0
 34 35  2  0  0  0
 35 30  1  0  0  0
 16  1  1  0  0  0
 27 23  1  0  0  0
 16  6  2  0  0  0
 14  9  1  0  0  0
  3 17  1  0  0  0
 20 21  1  0  0  0
M  END
> <minimizedAffinity>
28.53246

> <CNNscore>
0.4448453784

> <CNNaffinity>
7.4300017357

> <CNN_VS>
3.3052020073

> <CNNaffinity_variance>
1.3700197935

$$$$
[H]N=c1c(C(=O)N([H])C([H])([H])c2oc([H])c([H])c2[H])c([H])c2c(=O)n3c([H])c([H])c([H])c([H])c3nc2n1C([H])([H])c1c([H])c([H])c(C([H])([H])[H])c([H])c1[H]


 35 39  0  0  0  0  0  0  0  0999 V2000
    9.7374   46.4393  132.7452 N   0  0  0  0  0  0  0  0  0  0  0  0
   10.5834   47.0692  133.6042 C   0  0  0  0  0  0  0  0  0  0  0  0
   11.2395   46.3327  134.3756 N   0  0  0  0  0  0  0  0  0  0  0  0
   10.7004   48.4312  133.7046 C   0  0  0  0  0  0  0  0  0  0  0  0
    9.8839   49.1948  132.8637 C   0  0  0  0  0  0  0  0  0  0  0  0
    9.0267   48.6023  131.9961 C   0  0  0  0  0  0  0  0  0  0  0  0
    8.2236   49.3709  131.1916 C   0  0  0  0  0  0  0  0  0  0  0  0
    8.2703   50.6247  131.2231 O   0  0  0  0  0  0  0  0  0  0  0  0
    7.3616   48.7859  130.3444 N   0  0  0  0  0  0  0  0  0  0  0  0
    6.5660   49.5279  129.5477 C   0  0  0  0  0  0  0  0  0  0  0  0
    5.6764   48.9829  128.6727 C   0  0  0  0  0  0  0  0  0  0  0  0
    5.5758   47.5977  128.5892 C   0  0  0  0  0  0  0  0  0  0  0  0
    6.4009   46.8718  129.4150 C   0  0  0  0  0  0  0  0  0  0  0  0
    7.2957   47.4408  130.2948 C   0  0  0  0  0  0  0  0  0  0  0  0
    8.0897   46.7072  131.0886 N   0  0  0  0  0  0  0  0  0  0  0  0
    8.9779   47.2201  131.9613 C   0  0  0  0  0  0  0  0  0  0  0  0
   11.9090   46.4956  135.0868 H   0  0  0  0  0  0  0  0  0  0  0  0
   11.6354   49.1746  134.5086 C   0  0  0  0  0  0  0  0  0  0  0  0
   12.3640   48.4486  135.2997 O   0  0  0  0  0  0  0  0  0  0  0  0
   11.8345   50.5662  134.5346 N   0  0  0  0  0  0  0  0  0  0  0  0
   11.2521   51.1829  133.9523 H   0  0  0  0  0  0  0  0  0  0  0  0
   12.8318   51.1863  135.3993 C   0  0  0  0  0  0  0  0  0  0  0  0
   13.2694   52.4945  134.8927 C   0  0  0  0  0  0  0  0  0  0  0  0
   12.5767   53.6739  134.9349 C   0  0  0  0  0  0  0  0  0  0  0  0
   13.3781   54.6575  134.3369 C   0  0  0  0  0  0  0  0  0  0  0  0
   14.5208   53.9935  133.9678 C   0  0  0  0  0  0  0  0  0  0  0  0
   14.4156   52.7447  134.3078 O   0  0  0  0  0  0  0  0  0  0  0  0
    9.6291   45.0095  132.7086 C   0  0  0  0  0  0  0  0  0  0  0  0
   10.0222   42.3872  127.5469 C   0  0  0  0  0  0  0  0  0  0  0  0
    9.9896   43.0773  128.8666 C   0  0  0  0  0  0  0  0  0  0  0  0
   11.0099   43.8243  129.3547 C   0  0  0  0  0  0  0  0  0  0  0  0
   10.9135   44.4531  130.6104 C   0  0  0  0  0  0  0  0  0  0  0  0
    9.8030   44.3510  131.4022 C   0  0  0  0  0  0  0  0  0  0  0  0
    8.7678   43.5726  130.8671 C   0  0  0  0  0  0  0  0  0  0  0  0
    8.8576   42.9496  129.6291 C   0  0  0  0  0  0  0  0  0  0  0  0
 29 30  1  0  0  0
 30 31  2  0  0  0
 31 32  1  0  0  0
 32 33  2  0  0  0
 33 28  1  0  0  0
 28  1  1  0  0  0
  1  2  1  0  0  0
  2  3  2  0  0  0
  2  4  1  0  0  0
  4 18  1  0  0  0
 18 19  2  0  0  0
 18 20  1  0  0  0
 20 22  1  0  0  0
 22 23  1  0  0  0
 23 24  2  0  0  0
 24 25  1  0  0  0
 25 26  2  0  0  0
 26 27  1  0  0  0
  4  5  2  0  0  0
  5  6  1  0  0  0
  6  7  1  0  0  0
  7  8  2  0  0  0
  7  9  1  0  0  0
  9 10  1  0  0  0
 10 11  2  0  0  0
 11 12  1  0  0  0
 12 13  2  0  0  0
 13 14  1  0  0  0
 14 15  2  0  0  0
 15 16  1  0  0  0
 33 34  1  0  0  0
 34 35  2  0  0  0
 35 30  1  0  0  0
 16  1  1  0  0  0
 27 23  1  0  0  0
 16  6  2  0  0  0
 14  9  1  0  0  0
  3 17  1  0  0  0
 20 21  1  0  0  0
M  END
> <minimizedAffinity>
15.03119

> <CNNscore>
0.4215753675

> <CNNaffinity>
7.4891405106

> <CNN_VS>
3.1572370529

> <CNNaffinity_variance>
0.5123381019

$$$$
[H]N=c1c(C(=O)N([H])C([H])([H])c2oc([H])c([H])c2[H])c([H])c2c(=O)n3c([H])c([H])c([H])c([H])c3nc2n1C([H])([H])c1c([H])c([H])c(C([H])([H])[H])c([H])c1[H]


 35 39  0  0  0  0  0  0  0  0999 V2000
    9.3912   44.8511  130.7745 N   0  0  0  0  0  0  0  0  0  0  0  0
    8.7154   45.7765  130.0414 C   0  0  0  0  0  0  0  0  0  0  0  0
    8.6989   45.5973  128.8023 N   0  0  0  0  0  0  0  0  0  0  0  0
    8.1249   46.8935  130.5728 C   0  0  0  0  0  0  0  0  0  0  0  0
    8.2449   47.0691  131.9554 C   0  0  0  0  0  0  0  0  0  0  0  0
    8.9130   46.1691  132.7184 C   0  0  0  0  0  0  0  0  0  0  0  0
    9.0320   46.3694  134.0707 C   0  0  0  0  0  0  0  0  0  0  0  0
    8.5199   47.3672  134.6341 O   0  0  0  0  0  0  0  0  0  0  0  0
    9.7082   45.4882  134.8252 N   0  0  0  0  0  0  0  0  0  0  0  0
    9.8337   45.6717  136.1552 C   0  0  0  0  0  0  0  0  0  0  0  0
   10.5087   44.8079  136.9629 C   0  0  0  0  0  0  0  0  0  0  0  0
   11.0999   43.6813  136.3998 C   0  0  0  0  0  0  0  0  0  0  0  0
   10.9528   43.5250  135.0421 C   0  0  0  0  0  0  0  0  0  0  0  0
   10.2657   44.4099  134.2400 C   0  0  0  0  0  0  0  0  0  0  0  0
   10.1374   44.2315  132.9169 N   0  0  0  0  0  0  0  0  0  0  0  0
    9.4751   45.0688  132.0961 C   0  0  0  0  0  0  0  0  0  0  0  0
    8.3040   46.0855  128.0366 H   0  0  0  0  0  0  0  0  0  0  0  0
    7.3104   47.8646  129.8896 C   0  0  0  0  0  0  0  0  0  0  0  0
    7.9764   48.7360  129.1961 O   0  0  0  0  0  0  0  0  0  0  0  0
    5.9085   47.9731  129.8977 N   0  0  0  0  0  0  0  0  0  0  0  0
    5.3431   47.3272  130.4649 H   0  0  0  0  0  0  0  0  0  0  0  0
    5.2111   49.0096  129.1453 C   0  0  0  0  0  0  0  0  0  0  0  0
    5.9134   50.2995  129.1954 C   0  0  0  0  0  0  0  0  0  0  0  0
    6.1981   51.0458  130.3066 C   0  0  0  0  0  0  0  0  0  0  0  0
    6.8774   52.1968  129.8810 C   0  0  0  0  0  0  0  0  0  0  0  0
    6.9583   52.0650  128.5176 C   0  0  0  0  0  0  0  0  0  0  0  0
    6.3880   50.9535  128.1633 O   0  0  0  0  0  0  0  0  0  0  0  0
   10.0221   43.7189  130.1601 C   0  0  0  0  0  0  0  0  0  0  0  0
   15.6243   44.2929  128.7601 C   0  0  0  0  0  0  0  0  0  0  0  0
   14.2063   44.1194  129.1819 C   0  0  0  0  0  0  0  0  0  0  0  0
   13.8274   43.7741  130.4366 C   0  0  0  0  0  0  0  0  0  0  0  0
   12.4677   43.6290  130.7706 C   0  0  0  0  0  0  0  0  0  0  0  0
   11.4617   43.8242  129.8649 C   0  0  0  0  0  0  0  0  0  0  0  0
   11.8884   44.1807  128.5785 C   0  0  0  0  0  0  0  0  0  0  0  0
   13.2284   44.3248  128.2433 C   0  0  0  0  0  0  0  0  0  0  0  0
 29 30  1  0  0  0
 30 31  2  0  0  0
 31 32  1  0  0  0
 32 33  2  0  0  0
 33 28  1  0  0  0
 28  1  1  0  0  0
  1  2  1  0  0  0
  2  3  2  0  0  0
  2  4  1  0  0  0
  4 18  1  0  0  0
 18 19  2  0  0  0
 18 20  1  0  0  0
 20 22  1  0  0  0
 22 23  1  0  0  0
 23 24  2  0  0  0
 24 25  1  0  0  0
 25 26  2  0  0  0
 26 27  1  0  0  0
  4  5  2  0  0  0
  5  6  1  0  0  0
  6  7  1  0  0  0
  7  8  2  0  0  0
  7  9  1  0  0  0
  9 10  1  0  0  0
 10 11  2  0  0  0
 11 12  1  0  0  0
 12 13  2  0  0  0
 13 14  1  0  0  0
 14 15  2  0  0  0
 15 16  1  0  0  0
 33 34  1  0  0  0
 34 35  2  0  0  0
 35 30  1  0  0  0
 16  1  1  0  0  0
 27 23  1  0  0  0
 16  6  2  0  0  0
 14  9  1  0  0  0
  3 17  1  0  0  0
 20 21  1  0  0  0
M  END
> <minimizedAffinity>
9.34373

> <CNNscore>
0.4075367153

> <CNNaffinity>
7.4944510460

> <CNN_VS>
3.0542640686

> <CNNaffinity_variance>
1.4582160711

$$$$
[H]N=c1c(C(=O)N([H])C([H])([H])c2oc([H])c([H])c2[H])c([H])c2c(=O)n3c([H])c([H])c([H])c([H])c3nc2n1C([H])([H])c1c([H])c([H])c(C([H])([H])[H])c([H])c1[H]


 35 39  0  0  0  0  0  0  0  0999 V2000
   10.6076   46.0621  131.2320 N   0  0  0  0  0  0  0  0  0  0  0  0
    9.8750   47.0370  130.6292 C   0  0  0  0  0  0  0  0  0  0  0  0
   10.5202   47.9911  130.1379 N   0  0  0  0  0  0  0  0  0  0  0  0
    8.5050   47.0542  130.5912 C   0  0  0  0  0  0  0  0  0  0  0  0
    7.8464   45.9944  131.2236 C   0  0  0  0  0  0  0  0  0  0  0  0
    8.5429   45.0057  131.8370 C   0  0  0  0  0  0  0  0  0  0  0  0
    7.8761   43.9839  132.4650 C   0  0  0  0  0  0  0  0  0  0  0  0
    6.6224   43.9268  132.4755 O   0  0  0  0  0  0  0  0  0  0  0  0
    8.5640   43.0134  133.0879 N   0  0  0  0  0  0  0  0  0  0  0  0
    7.9227   42.0030  133.7092 C   0  0  0  0  0  0  0  0  0  0  0  0
    8.5741   40.9961  134.3542 C   0  0  0  0  0  0  0  0  0  0  0  0
    9.9653   41.0009  134.3792 C   0  0  0  0  0  0  0  0  0  0  0  0
   10.5868   42.0449  133.7363 C   0  0  0  0  0  0  0  0  0  0  0  0
    9.9109   43.0557  133.0883 C   0  0  0  0  0  0  0  0  0  0  0  0
   10.5440   44.0624  132.4682 N   0  0  0  0  0  0  0  0  0  0  0  0
    9.9248   45.0691  131.8227 C   0  0  0  0  0  0  0  0  0  0  0  0
   10.2728   48.8194  129.6549 H   0  0  0  0  0  0  0  0  0  0  0  0
    7.6582   47.9867  129.8936 C   0  0  0  0  0  0  0  0  0  0  0  0
    8.2029   49.1413  129.6613 O   0  0  0  0  0  0  0  0  0  0  0  0
    6.3370   47.7901  129.4547 N   0  0  0  0  0  0  0  0  0  0  0  0
    5.8531   46.9038  129.6518 H   0  0  0  0  0  0  0  0  0  0  0  0
    5.5973   48.8284  128.7464 C   0  0  0  0  0  0  0  0  0  0  0  0
    6.1049   50.1744  129.0467 C   0  0  0  0  0  0  0  0  0  0  0  0
    6.0570   50.8298  130.2470 C   0  0  0  0  0  0  0  0  0  0  0  0
    6.6582   52.0845  130.0687 C   0  0  0  0  0  0  0  0  0  0  0  0
    7.0351   52.1018  128.7495 C   0  0  0  0  0  0  0  0  0  0  0  0
    6.6958   50.9774  128.1955 O   0  0  0  0  0  0  0  0  0  0  0  0
   12.0403   46.1142  131.2734 C   0  0  0  0  0  0  0  0  0  0  0  0
   15.1345   43.0076  127.4722 C   0  0  0  0  0  0  0  0  0  0  0  0
   14.2880   43.8078  128.4006 C   0  0  0  0  0  0  0  0  0  0  0  0
   12.9854   44.1039  128.1710 C   0  0  0  0  0  0  0  0  0  0  0  0
   12.2401   44.8637  129.0921 C   0  0  0  0  0  0  0  0  0  0  0  0
   12.7751   45.3420  130.2563 C   0  0  0  0  0  0  0  0  0  0  0  0
   14.1227   45.0170  130.4622 C   0  0  0  0  0  0  0  0  0  0  0  0
   14.8630   44.2682  129.5567 C   0  0  0  0  0  0  0  0  0  0  0  0
 29 30  1  0  0  0
 30 31  2  0  0  0
 31 32  1  0  0  0
 32 33  2  0  0  0
 33 28  1  0  0  0
 28  1  1  0  0  0
  1  2  1  0  0  0
  2  3  2  0  0  0
  2  4  1  0  0  0
  4 18  1  0  0  0
 18 19  2  0  0  0
 18 20  1  0  0  0
 20 22  1  0  0  0
 22 23  1  0  0  0
 23 24  2  0  0  0
 24 25  1  0  0  0
 25 26  2  0  0  0
 26 27  1  0  0  0
  4  5  2  0  0  0
  5  6  1  0  0  0
  6  7  1  0  0  0
  7  8  2  0  0  0
  7  9  1  0  0  0
  9 10  1  0  0  0
 10 11  2  0  0  0
 11 12  1  0  0  0
 12 13  2  0  0  0
 13 14  1  0  0  0
 14 15  2  0  0  0
 15 16  1  0  0  0
 33 34  1  0  0  0
 34 35  2  0  0  0
 35 30  1  0  0  0
 16  1  1  0  0  0
 27 23  1  0  0  0
 16  6  2  0  0  0
 14  9  1  0  0  0
  3 17  1  0  0  0
 20 21  1  0  0  0
M  END
> <minimizedAffinity>
23.60873

> <CNNscore>
0.3927012086

> <CNNaffinity>
7.1682906151

> <CNN_VS>
2.8149964809

> <CNNaffinity_variance>
1.9381920099

$$$$
[H]/C(=C(\[H])C([H])([H])C([H])([H])N([H])C(=O)/C([H])=C([H])/C([H])=C([H])/C([H])=C(\[H])c1sc([H])c([H])c1[H])C([H])([H])OC(=O)C([H])([H])C([H])(C([H])([H])[H])C([H])([H])[H]


 27 27  0  0  0  0  0  0  0  0999 V2000
    8.3527   49.7248  130.4284 N   0  0  0  0  0  0  0  0  0  0  0  0
    7.1909   50.3018  129.8833 C   0  0  0  0  0  0  0  0  0  0  0  0
    6.1055   50.1755  130.5030 O   0  0  0  0  0  0  0  0  0  0  0  0
    9.2618   49.8280  129.9176 H   0  0  0  0  0  0  0  0  0  0  0  0
    7.2202   51.0293  128.6383 C   0  0  0  0  0  0  0  0  0  0  0  0
    7.1317   52.3237  128.5303 C   0  0  0  0  0  0  0  0  0  0  0  0
    7.1680   53.0075  127.2328 C   0  0  0  0  0  0  0  0  0  0  0  0
    7.5632   54.2387  127.0818 C   0  0  0  0  0  0  0  0  0  0  0  0
    7.5898   54.9028  125.7637 C   0  0  0  0  0  0  0  0  0  0  0  0
    8.3893   54.4794  124.8119 C   0  0  0  0  0  0  0  0  0  0  0  0
    8.4070   55.1546  123.4917 C   0  0  0  0  0  0  0  0  0  0  0  0
    9.0852   56.2909  123.1419 C   0  0  0  0  0  0  0  0  0  0  0  0
    8.9522   56.7240  121.8779 C   0  0  0  0  0  0  0  0  0  0  0  0
    8.1486   55.9903  121.0467 C   0  0  0  0  0  0  0  0  0  0  0  0
    7.6067   54.7265  122.0493 S   0  0  0  0  0  0  0  0  0  0  0  0
    8.3724   48.9871  131.6678 C   0  0  0  0  0  0  0  0  0  0  0  0
    9.1676   47.6974  131.5888 C   0  0  0  0  0  0  0  0  0  0  0  0
    7.9367   45.6052  131.1198 C   0  0  0  0  0  0  0  0  0  0  0  0
    8.3379   46.5329  131.9484 C   0  0  0  0  0  0  0  0  0  0  0  0
    8.2785   45.6229  129.6958 C   0  0  0  0  0  0  0  0  0  0  0  0
    9.2246   44.6146  129.4182 O   0  0  0  0  0  0  0  0  0  0  0  0
   10.5126   44.9415  129.0701 C   0  0  0  0  0  0  0  0  0  0  0  0
   10.7209   45.7111  128.1098 O   0  0  0  0  0  0  0  0  0  0  0  0
   11.6974   44.4051  129.8053 C   0  0  0  0  0  0  0  0  0  0  0  0
   11.2938   42.8826  131.7495 C   0  0  0  0  0  0  0  0  0  0  0  0
   11.3772   44.3001  131.2806 C   0  0  0  0  0  0  0  0  0  0  0  0
   12.3597   45.0528  132.1283 C   0  0  0  0  0  0  0  0  0  0  0  0
 25 26  1  0  0  0
 26 27  1  0  0  0
 26 24  1  0  0  0
 24 22  1  0  0  0
 22 23  2  0  0  0
 22 21  1  0  0  0
 21 20  1  0  0  0
 20 18  1  0  0  0
 18 19  2  0  0  0
 19 17  1  0  0  0
 17 16  1  0  0  0
 16  1  1  0  0  0
  1  2  1  0  0  0
  2  3  2  0  0  0
  2  5  1  0  0  0
  5  6  2  0  0  0
  6  7  1  0  0  0
  7  8  2  0  0  0
  8  9  1  0  0  0
  9 10  2  0  0  0
 10 11  1  0  0  0
 11 12  2  0  0  0
 12 13  1  0  0  0
 13 14  2  0  0  0
 14 15  1  0  0  0
 15 11  1  0  0  0
  1  4  1  0  0  0
M  END
> <minimizedAffinity>
-5.42701

> <CNNscore>
0.4856750369

> <CNNaffinity>
6.3423390388

> <CNN_VS>
3.0803158283

> <CNNaffinity_variance>
0.1184881553

$$$$
[H]/C(=C(\[H])C([H])([H])C([H])([H])N([H])C(=O)/C([H])=C([H])/C([H])=C([H])/C([H])=C(\[H])c1sc([H])c([H])c1[H])C([H])([H])OC(=O)C([H])([H])C([H])(C([H])([H])[H])C([H])([H])[H]


 27 27  0  0  0  0  0  0  0  0999 V2000
    4.4368   50.5498  128.5444 N   0  0  0  0  0  0  0  0  0  0  0  0
    5.7746   50.6937  128.9561 C   0  0  0  0  0  0  0  0  0  0  0  0
    6.4112   51.7149  128.5956 O   0  0  0  0  0  0  0  0  0  0  0  0
    3.8993   49.7012  128.8432 H   0  0  0  0  0  0  0  0  0  0  0  0
    6.4244   49.7015  129.7767 C   0  0  0  0  0  0  0  0  0  0  0  0
    7.4617   49.0016  129.4173 C   0  0  0  0  0  0  0  0  0  0  0  0
    8.0798   48.0047  130.2985 C   0  0  0  0  0  0  0  0  0  0  0  0
    9.0256   47.1966  129.9149 C   0  0  0  0  0  0  0  0  0  0  0  0
    9.6304   46.2023  130.8231 C   0  0  0  0  0  0  0  0  0  0  0  0
   10.2875   46.5809  131.8951 C   0  0  0  0  0  0  0  0  0  0  0  0
   10.8907   45.5728  132.8001 C   0  0  0  0  0  0  0  0  0  0  0  0
   12.1035   44.9515  132.6710 C   0  0  0  0  0  0  0  0  0  0  0  0
   12.4465   44.0653  133.6198 C   0  0  0  0  0  0  0  0  0  0  0  0
   11.5521   43.8595  134.6360 C   0  0  0  0  0  0  0  0  0  0  0  0
   10.2679   44.9029  134.2381 S   0  0  0  0  0  0  0  0  0  0  0  0
    3.7457   51.5130  127.7227 C   0  0  0  0  0  0  0  0  0  0  0  0
    2.2398   51.3278  127.7145 C   0  0  0  0  0  0  0  0  0  0  0  0
    1.6995   52.6030  125.6664 C   0  0  0  0  0  0  0  0  0  0  0  0
    1.6864   51.4941  126.3581 C   0  0  0  0  0  0  0  0  0  0  0  0
    2.2843   53.8429  126.1817 C   0  0  0  0  0  0  0  0  0  0  0  0
    2.9052   54.5514  125.1322 O   0  0  0  0  0  0  0  0  0  0  0  0
    3.7328   55.6145  125.4004 C   0  0  0  0  0  0  0  0  0  0  0  0
    3.2437   56.7234  125.6989 O   0  0  0  0  0  0  0  0  0  0  0  0
    5.2213   55.4984  125.3491 C   0  0  0  0  0  0  0  0  0  0  0  0
    7.0502   54.7191  123.8296 C   0  0  0  0  0  0  0  0  0  0  0  0
    5.6667   55.2796  123.9194 C   0  0  0  0  0  0  0  0  0  0  0  0
    4.7181   54.4009  123.1589 C   0  0  0  0  0  0  0  0  0  0  0  0
 25 26  1  0  0  0
 26 27  1  0  0  0
 26 24  1  0  0  0
 24 22  1  0  0  0
 22 23  2  0  0  0
 22 21  1  0  0  0
 21 20  1  0  0  0
 20 18  1  0  0  0
 18 19  2  0  0  0
 19 17  1  0  0  0
 17 16  1  0  0  0
 16  1  1  0  0  0
  1  2  1  0  0  0
  2  3  2  0  0  0
  2  5  1  0  0  0
  5  6  2  0  0  0
  6  7  1  0  0  0
  7  8  2  0  0  0
  8  9  1  0  0  0
  9 10  2  0  0  0
 10 11  1  0  0  0
 11 12  2  0  0  0
 12 13  1  0  0  0
 13 14  2  0  0  0
 14 15  1  0  0  0
 15 11  1  0  0  0
  1  4  1  0  0  0
M  END
> <minimizedAffinity>
1.53581

> <CNNscore>
0.4782376885

> <CNNaffinity>
6.3756465912

> <CNN_VS>
3.0490744114

> <CNNaffinity_variance>
0.7586881518

$$$$
[H]/C(=C(\[H])C([H])([H])C([H])([H])N([H])C(=O)/C([H])=C([H])/C([H])=C([H])/C([H])=C(\[H])c1sc([H])c([H])c1[H])C([H])([H])OC(=O)C([H])([H])C([H])(C([H])([H])[H])C([H])([H])[H]


 27 27  0  0  0  0  0  0  0  0999 V2000
    9.5746   49.0007  132.1060 N   0  0  0  0  0  0  0  0  0  0  0  0
    9.1895   48.0074  133.0252 C   0  0  0  0  0  0  0  0  0  0  0  0
    8.5877   48.3536  134.0722 O   0  0  0  0  0  0  0  0  0  0  0  0
   10.0752   48.7187  131.2297 H   0  0  0  0  0  0  0  0  0  0  0  0
    9.4688   46.6119  132.7921 C   0  0  0  0  0  0  0  0  0  0  0  0
    9.8305   46.1060  131.6482 C   0  0  0  0  0  0  0  0  0  0  0  0
   10.1014   44.6748  131.4732 C   0  0  0  0  0  0  0  0  0  0  0  0
   10.2790   44.1154  130.3112 C   0  0  0  0  0  0  0  0  0  0  0  0
   10.5505   42.6719  130.1636 C   0  0  0  0  0  0  0  0  0  0  0  0
   10.4692   41.8623  131.1943 C   0  0  0  0  0  0  0  0  0  0  0  0
   10.7441   40.4139  131.0337 C   0  0  0  0  0  0  0  0  0  0  0  0
   10.4392   39.6179  129.9627 C   0  0  0  0  0  0  0  0  0  0  0  0
   10.7867   38.3230  130.0381 C   0  0  0  0  0  0  0  0  0  0  0  0
   11.4171   37.9102  131.1814 C   0  0  0  0  0  0  0  0  0  0  0  0
   11.5046   39.3335  132.1102 S   0  0  0  0  0  0  0  0  0  0  0  0
    9.3195   50.4076  132.2964 C   0  0  0  0  0  0  0  0  0  0  0  0
    8.9745   51.1367  131.0114 C   0  0  0  0  0  0  0  0  0  0  0  0
    6.5947   50.9457  130.3689 C   0  0  0  0  0  0  0  0  0  0  0  0
    7.5621   51.5599  130.9974 C   0  0  0  0  0  0  0  0  0  0  0  0
    6.8162   49.7300  129.5830 C   0  0  0  0  0  0  0  0  0  0  0  0
    8.1958   49.5582  129.3459 O   0  0  0  0  0  0  0  0  0  0  0  0
    8.7262   48.3011  129.1860 C   0  0  0  0  0  0  0  0  0  0  0  0
    9.9521   48.1199  129.3351 O   0  0  0  0  0  0  0  0  0  0  0  0
    7.8828   47.1191  128.8344 C   0  0  0  0  0  0  0  0  0  0  0  0
    5.3905   46.9779  129.0051 C   0  0  0  0  0  0  0  0  0  0  0  0
    6.6825   47.0576  129.7539 C   0  0  0  0  0  0  0  0  0  0  0  0
    6.7713   45.9182  130.7256 C   0  0  0  0  0  0  0  0  0  0  0  0
 25 26  1  0  0  0
 26 27  1  0  0  0
 26 24  1  0  0  0
 24 22  1  0  0  0
 22 23  2  0  0  0
 22 21  1  0  0  0
 21 20  1  0  0  0
 20 18  1  0  0  0
 18 19  2  0  0  0
 19 17  1  0  0  0
 17 16  1  0  0  0
 16  1  1  0  0  0
  1  2  1  0  0  0
  2  3  2  0  0  0
  2  5  1  0  0  0
  5  6  2  0  0  0
  6  7  1  0  0  0
  7  8  2  0  0  0
  8  9  1  0  0  0
  9 10  2  0  0  0
 10 11  1  0  0  0
 11 12  2  0  0  0
 12 13  1  0  0  0
 13 14  2  0  0  0
 14 15  1  0  0  0
 15 11  1  0  0  0
  1  4  1  0  0  0
M  END
> <minimizedAffinity>
16.03394

> <CNNscore>
0.4248633385

> <CNNaffinity>
6.6456007957

> <CNN_VS>
2.8234720230

> <CNNaffinity_variance>
0.5077946782

$$$$
[H]/C(=C(\[H])C([H])([H])C([H])([H])N([H])C(=O)/C([H])=C([H])/C([H])=C([H])/C([H])=C(\[H])c1sc([H])c([H])c1[H])C([H])([H])OC(=O)C([H])([H])C([H])(C([H])([H])[H])C([H])([H])[H]


 27 27  0  0  0  0  0  0  0  0999 V2000
    8.4561   49.8015  130.5790 N   0  0  0  0  0  0  0  0  0  0  0  0
    7.2773   50.3543  130.0455 C   0  0  0  0  0  0  0  0  0  0  0  0
    6.2139   50.2643  130.7081 O   0  0  0  0  0  0  0  0  0  0  0  0
    9.3471   49.8747  130.0324 H   0  0  0  0  0  0  0  0  0  0  0  0
    7.2649   51.0167  128.7644 C   0  0  0  0  0  0  0  0  0  0  0  0
    7.1346   52.3005  128.5915 C   0  0  0  0  0  0  0  0  0  0  0  0
    7.1296   52.9168  127.2601 C   0  0  0  0  0  0  0  0  0  0  0  0
    7.4863   54.1492  127.0389 C   0  0  0  0  0  0  0  0  0  0  0  0
    7.4718   54.7444  125.6882 C   0  0  0  0  0  0  0  0  0  0  0  0
    8.4957   54.6025  124.8784 C   0  0  0  0  0  0  0  0  0  0  0  0
    8.4696   55.2051  123.5236 C   0  0  0  0  0  0  0  0  0  0  0  0
    9.1727   56.2912  123.0770 C   0  0  0  0  0  0  0  0  0  0  0  0
    8.9896   56.6616  121.7994 C   0  0  0  0  0  0  0  0  0  0  0  0
    8.1141   55.9195  121.0525 C   0  0  0  0  0  0  0  0  0  0  0  0
    7.5769   54.7351  122.1500 S   0  0  0  0  0  0  0  0  0  0  0  0
    8.5173   49.1284  131.8534 C   0  0  0  0  0  0  0  0  0  0  0  0
    8.9605   47.6811  131.7496 C   0  0  0  0  0  0  0  0  0  0  0  0
    8.1673   46.0396  130.0796 C   0  0  0  0  0  0  0  0  0  0  0  0
    8.7702   47.1585  130.3841 C   0  0  0  0  0  0  0  0  0  0  0  0
    7.5968   45.1531  131.0961 C   0  0  0  0  0  0  0  0  0  0  0  0
    8.5635   44.2122  131.5074 O   0  0  0  0  0  0  0  0  0  0  0  0
    9.0205   43.2535  130.6362 C   0  0  0  0  0  0  0  0  0  0  0  0
    8.2088   42.5071  130.0514 O   0  0  0  0  0  0  0  0  0  0  0  0
   10.4749   43.0619  130.3533 C   0  0  0  0  0  0  0  0  0  0  0  0
   12.0361   44.5525  131.6188 C   0  0  0  0  0  0  0  0  0  0  0  0
   11.1837   44.3981  130.3999 C   0  0  0  0  0  0  0  0  0  0  0  0
   12.0117   44.6429  129.1733 C   0  0  0  0  0  0  0  0  0  0  0  0
 25 26  1  0  0  0
 26 27  1  0  0  0
 26 24  1  0  0  0
 24 22  1  0  0  0
 22 23  2  0  0  0
 22 21  1  0  0  0
 21 20  1  0  0  0
 20 18  1  0  0  0
 18 19  2  0  0  0
 19 17  1  0  0  0
 17 16  1  0  0  0
 16  1  1  0  0  0
  1  2  1  0  0  0
  2  3  2  0  0  0
  2  5  1  0  0  0
  5  6  2  0  0  0
  6  7  1  0  0  0
  7  8  2  0  0  0
  8  9  1  0  0  0
  9 10  2  0  0  0
 10 11  1  0  0  0
 11 12  2  0  0  0
 12 13  1  0  0  0
 13 14  2  0  0  0
 14 15  1  0  0  0
 15 11  1  0  0  0
  1  4  1  0  0  0
M  END
> <minimizedAffinity>
-5.48371

> <CNNscore>
0.4236314893

> <CNNaffinity>
6.3586244583

> <CNN_VS>
2.6937136650

> <CNNaffinity_variance>
0.0560088828

$$$$
[H]/C(=C(\[H])C([H])([H])C([H])([H])N([H])C(=O)/C([H])=C([H])/C([H])=C([H])/C([H])=C(\[H])c1sc([H])c([H])c1[H])C([H])([H])OC(=O)C([H])([H])C([H])(C([H])([H])[H])C([H])([H])[H]


 27 27  0  0  0  0  0  0  0  0999 V2000
    8.7075   47.5223  131.9372 N   0  0  0  0  0  0  0  0  0  0  0  0
    9.0418   48.8822  131.8008 C   0  0  0  0  0  0  0  0  0  0  0  0
    9.6115   49.4633  132.7579 O   0  0  0  0  0  0  0  0  0  0  0  0
    8.2338   47.0309  131.1420 H   0  0  0  0  0  0  0  0  0  0  0  0
    8.7466   49.6166  130.5952 C   0  0  0  0  0  0  0  0  0  0  0  0
    7.5517   49.9512  130.2011 C   0  0  0  0  0  0  0  0  0  0  0  0
    7.3147   50.7003  128.9621 C   0  0  0  0  0  0  0  0  0  0  0  0
    7.1634   51.9927  128.9232 C   0  0  0  0  0  0  0  0  0  0  0  0
    6.9260   52.7218  127.6618 C   0  0  0  0  0  0  0  0  0  0  0  0
    7.4881   53.8879  127.4416 C   0  0  0  0  0  0  0  0  0  0  0  0
    7.2422   54.6109  126.1704 C   0  0  0  0  0  0  0  0  0  0  0  0
    6.3519   55.6254  125.9433 C   0  0  0  0  0  0  0  0  0  0  0  0
    6.3005   56.1343  124.7017 C   0  0  0  0  0  0  0  0  0  0  0  0
    7.1446   55.5938  123.7688 C   0  0  0  0  0  0  0  0  0  0  0  0
    7.9786   54.3991  124.6481 S   0  0  0  0  0  0  0  0  0  0  0  0
    8.9801   46.7474  133.1230 C   0  0  0  0  0  0  0  0  0  0  0  0
   10.3774   46.1569  133.1487 C   0  0  0  0  0  0  0  0  0  0  0  0
   11.3593   44.1874  134.2755 C   0  0  0  0  0  0  0  0  0  0  0  0
   10.5358   45.2022  134.2611 C   0  0  0  0  0  0  0  0  0  0  0  0
   12.2434   43.8775  133.1499 C   0  0  0  0  0  0  0  0  0  0  0  0
   11.6852   42.8403  132.3744 O   0  0  0  0  0  0  0  0  0  0  0  0
   11.0594   43.1175  131.1833 C   0  0  0  0  0  0  0  0  0  0  0  0
   10.0283   42.4916  130.8623 O   0  0  0  0  0  0  0  0  0  0  0  0
   11.5696   44.1553  130.2376 C   0  0  0  0  0  0  0  0  0  0  0  0
   10.2267   46.0353  129.2769 C   0  0  0  0  0  0  0  0  0  0  0  0
   10.4684   44.5596  129.2816 C   0  0  0  0  0  0  0  0  0  0  0  0
   10.7325   44.0892  127.8819 C   0  0  0  0  0  0  0  0  0  0  0  0
 25 26  1  0  0  0
 26 27  1  0  0  0
 26 24  1  0  0  0
 24 22  1  0  0  0
 22 23  2  0  0  0
 22 21  1  0  0  0
 21 20  1  0  0  0
 20 18  1  0  0  0
 18 19  2  0  0  0
 19 17  1  0  0  0
 17 16  1  0  0  0
 16  1  1  0  0  0
  1  2  1  0  0  0
  2  3  2  0  0  0
  2  5  1  0  0  0
  5  6  2  0  0  0
  6  7  1  0  0  0
  7  8  2  0  0  0
  8  9  1  0  0  0
  9 10  2  0  0  0
 10 11  1  0  0  0
 11 12  2  0  0  0
 12 13  1  0  0  0
 13 14  2  0  0  0
 14 15  1  0  0  0
 15 11  1  0  0  0
  1  4  1  0  0  0
M  END
> <minimizedAffinity>
-5.28134

> <CNNscore>
0.3674576283

> <CNNaffinity>
6.5300016403

> <CNN_VS>
2.3994989395

> <CNNaffinity_variance>
0.0604648478

$$$$
[H]/C(=C(\[H])C([H])([H])C([H])([H])N([H])C(=O)/C([H])=C([H])/C([H])=C([H])/C([H])=C(\[H])c1sc([H])c([H])c1[H])C([H])([H])OC(=O)C([H])([H])C([H])(C([H])([H])[H])C([H])([H])[H]


 27 27  0  0  0  0  0  0  0  0999 V2000
    8.9792   49.3799  131.6692 N   0  0  0  0  0  0  0  0  0  0  0  0
    8.0674   49.1541  130.6215 C   0  0  0  0  0  0  0  0  0  0  0  0
    7.2602   48.1965  130.7189 O   0  0  0  0  0  0  0  0  0  0  0  0
    9.6540   50.1782  131.5953 H   0  0  0  0  0  0  0  0  0  0  0  0
    8.0405   49.9924  129.4483 C   0  0  0  0  0  0  0  0  0  0  0  0
    7.1710   50.9359  129.2272 C   0  0  0  0  0  0  0  0  0  0  0  0
    7.1954   51.7571  128.0117 C   0  0  0  0  0  0  0  0  0  0  0  0
    7.1670   53.0585  128.0248 C   0  0  0  0  0  0  0  0  0  0  0  0
    7.1928   53.8608  126.7860 C   0  0  0  0  0  0  0  0  0  0  0  0
    8.1524   53.7061  125.9030 C   0  0  0  0  0  0  0  0  0  0  0  0
    8.1676   54.5178  124.6620 C   0  0  0  0  0  0  0  0  0  0  0  0
    8.0598   54.0754  123.3712 C   0  0  0  0  0  0  0  0  0  0  0  0
    8.0992   54.9991  122.3974 C   0  0  0  0  0  0  0  0  0  0  0  0
    8.2436   56.3058  122.7803 C   0  0  0  0  0  0  0  0  0  0  0  0
    8.3199   56.2052  124.4774 S   0  0  0  0  0  0  0  0  0  0  0  0
    9.0453   48.5681  132.8597 C   0  0  0  0  0  0  0  0  0  0  0  0
    9.4405   47.1290  132.5865 C   0  0  0  0  0  0  0  0  0  0  0  0
    8.0832   45.0833  132.8789 C   0  0  0  0  0  0  0  0  0  0  0  0
    8.5998   46.1880  133.3491 C   0  0  0  0  0  0  0  0  0  0  0  0
    8.2895   44.6462  131.4964 C   0  0  0  0  0  0  0  0  0  0  0  0
    8.6678   43.2878  131.4755 O   0  0  0  0  0  0  0  0  0  0  0  0
    9.7563   42.8543  132.1928 C   0  0  0  0  0  0  0  0  0  0  0  0
    9.5893   42.2585  133.2768 O   0  0  0  0  0  0  0  0  0  0  0  0
   11.1578   43.0696  131.7225 C   0  0  0  0  0  0  0  0  0  0  0  0
   12.3819   43.9578  133.7158 C   0  0  0  0  0  0  0  0  0  0  0  0
   11.7431   44.2871  132.4044 C   0  0  0  0  0  0  0  0  0  0  0  0
   12.7290   45.0059  131.5317 C   0  0  0  0  0  0  0  0  0  0  0  0
 25 26  1  0  0  0
 26 27  1  0  0  0
 26 24  1  0  0  0
 24 22  1  0  0  0
 22 23  2  0  0  0
 22 21  1  0  0  0
 21 20  1  0  0  0
 20 18  1  0  0  0
 18 19  2  0  0  0
 19 17  1  0  0  0
 17 16  1  0  0  0
 16  1  1  0  0  0
  1  2  1  0  0  0
  2  3  2  0  0  0
  2  5  1  0  0  0
  5  6  2  0  0  0
  6  7  1  0  0  0
  7  8  2  0  0  0
  8  9  1  0  0  0
  9 10  2  0  0  0
 10 11  1  0  0  0
 11 12  2  0  0  0
 12 13  1  0  0  0
 13 14  2  0  0  0
 14 15  1  0  0  0
 15 11  1  0  0  0
  1  4  1  0  0  0
M  END
> <minimizedAffinity>
-4.31599

> <CNNscore>
0.3421067297

> <CNNaffinity>
6.2899689674

> <CNN_VS>
2.1518406868

> <CNNaffinity_variance>
0.0773953423

$$$$
[H]/C(=C(\[H])C([H])([H])C([H])([H])N([H])C(=O)/C([H])=C([H])/C([H])=C([H])/C([H])=C(\[H])c1sc([H])c([H])c1[H])C([H])([H])OC(=O)C([H])([H])C([H])(C([H])([H])[H])C([H])([H])[H]


 27 27  0  0  0  0  0  0  0  0999 V2000
    8.3669   46.0412  129.7710 N   0  0  0  0  0  0  0  0  0  0  0  0
    7.3141   46.9499  129.5576 C   0  0  0  0  0  0  0  0  0  0  0  0
    6.1543   46.6260  129.9158 O   0  0  0  0  0  0  0  0  0  0  0  0
    9.3371   46.3058  129.4764 H   0  0  0  0  0  0  0  0  0  0  0  0
    7.5370   48.2349  128.9418 C   0  0  0  0  0  0  0  0  0  0  0  0
    7.2957   49.3829  129.5065 C   0  0  0  0  0  0  0  0  0  0  0  0
    7.5439   50.6594  128.8273 C   0  0  0  0  0  0  0  0  0  0  0  0
    6.7468   51.6850  128.9144 C   0  0  0  0  0  0  0  0  0  0  0  0
    7.0208   52.9585  128.2202 C   0  0  0  0  0  0  0  0  0  0  0  0
    7.3367   52.9768  126.9457 C   0  0  0  0  0  0  0  0  0  0  0  0
    7.6098   54.2626  126.2590 C   0  0  0  0  0  0  0  0  0  0  0  0
    7.0164   55.4749  126.4858 C   0  0  0  0  0  0  0  0  0  0  0  0
    7.4263   56.5117  125.7374 C   0  0  0  0  0  0  0  0  0  0  0  0
    8.4041   56.2662  124.8108 C   0  0  0  0  0  0  0  0  0  0  0  0
    8.7190   54.6059  125.0116 S   0  0  0  0  0  0  0  0  0  0  0  0
    8.1928   44.7453  130.3802 C   0  0  0  0  0  0  0  0  0  0  0  0
    8.9095   43.6309  129.6412 C   0  0  0  0  0  0  0  0  0  0  0  0
   11.2228   44.2816  129.0598 C   0  0  0  0  0  0  0  0  0  0  0  0
    9.9579   44.1644  128.7523 C   0  0  0  0  0  0  0  0  0  0  0  0
   11.7537   43.8831  130.3652 C   0  0  0  0  0  0  0  0  0  0  0  0
   12.3407   44.9956  131.0029 O   0  0  0  0  0  0  0  0  0  0  0  0
   11.6787   45.6526  132.0115 C   0  0  0  0  0  0  0  0  0  0  0  0
   10.7987   46.4930  131.7334 O   0  0  0  0  0  0  0  0  0  0  0  0
   11.9724   45.3998  133.4543 C   0  0  0  0  0  0  0  0  0  0  0  0
    9.6219   45.7109  134.2539 C   0  0  0  0  0  0  0  0  0  0  0  0
   10.7696   44.7623  134.1154 C   0  0  0  0  0  0  0  0  0  0  0  0
   10.3163   43.5268  133.3956 C   0  0  0  0  0  0  0  0  0  0  0  0
 25 26  1  0  0  0
 26 27  1  0  0  0
 26 24  1  0  0  0
 24 22  1  0  0  0
 22 23  2  0  0  0
 22 21  1  0  0  0
 21 20  1  0  0  0
 20 18  1  0  0  0
 18 19  2  0  0  0
 19 17  1  0  0  0
 17 16  1  0  0  0
 16  1  1  0  0  0
  1  2  1  0  0  0
  2  3  2  0  0  0
  2  5  1  0  0  0
  5  6  2  0  0  0
  6  7  1  0  0  0
  7  8  2  0  0  0
  8  9  1  0  0  0
  9 10  2  0  0  0
 10 11  1  0  0  0
 11 12  2  0  0  0
 12 13  1  0  0  0
 13 14  2  0  0  0
 14 15  1  0  0  0
 15 11  1  0  0  0
  1  4  1  0  0  0
M  END
> <minimizedAffinity>
-4.99413

> <CNNscore>
0.3363910615

> <CNNaffinity>
6.4742860794

> <CNN_VS>
2.1778919697

> <CNNaffinity_variance>
0.0621430688

$$$$
[H]/C(=C(\[H])C([H])([H])C([H])([H])N([H])C(=O)/C([H])=C([H])/C([H])=C([H])/C([H])=C(\[H])c1sc([H])c([H])c1[H])C([H])([H])OC(=O)C([H])([H])C([H])(C([H])([H])[H])C([H])([H])[H]


 27 27  0  0  0  0  0  0  0  0999 V2000
    8.2828   46.7674  131.1821 N   0  0  0  0  0  0  0  0  0  0  0  0
    7.4353   47.2403  130.1633 C   0  0  0  0  0  0  0  0  0  0  0  0
    6.4104   46.5747  129.8724 O   0  0  0  0  0  0  0  0  0  0  0  0
    9.1384   47.3187  131.4312 H   0  0  0  0  0  0  0  0  0  0  0  0
    7.7164   48.4633  129.4524 C   0  0  0  0  0  0  0  0  0  0  0  0
    7.0380   49.5678  129.5739 C   0  0  0  0  0  0  0  0  0  0  0  0
    7.3735   50.7821  128.8221 C   0  0  0  0  0  0  0  0  0  0  0  0
    6.7779   51.9254  129.0033 C   0  0  0  0  0  0  0  0  0  0  0  0
    7.1357   53.1324  128.2324 C   0  0  0  0  0  0  0  0  0  0  0  0
    7.2001   53.0999  126.9213 C   0  0  0  0  0  0  0  0  0  0  0  0
    7.5605   54.3190  126.1577 C   0  0  0  0  0  0  0  0  0  0  0  0
    7.0391   55.5771  126.2948 C   0  0  0  0  0  0  0  0  0  0  0  0
    7.5217   56.5360  125.4882 C   0  0  0  0  0  0  0  0  0  0  0  0
    8.4955   56.1719  124.5969 C   0  0  0  0  0  0  0  0  0  0  0  0
    8.7057   54.5125  124.9104 S   0  0  0  0  0  0  0  0  0  0  0  0
    8.0446   45.5503  131.9187 C   0  0  0  0  0  0  0  0  0  0  0  0
    8.6715   45.5497  133.3003 C   0  0  0  0  0  0  0  0  0  0  0  0
   11.0978   45.9940  133.4683 C   0  0  0  0  0  0  0  0  0  0  0  0
    9.8658   46.4131  133.3477 C   0  0  0  0  0  0  0  0  0  0  0  0
   11.4372   44.5733  133.5740 C   0  0  0  0  0  0  0  0  0  0  0  0
   12.1252   44.1582  132.4150 O   0  0  0  0  0  0  0  0  0  0  0  0
   11.4363   43.6808  131.3266 C   0  0  0  0  0  0  0  0  0  0  0  0
   10.5209   42.8474  131.4868 O   0  0  0  0  0  0  0  0  0  0  0  0
   11.7413   44.1245  129.9331 C   0  0  0  0  0  0  0  0  0  0  0  0
   10.5045   45.8204  128.5712 C   0  0  0  0  0  0  0  0  0  0  0  0
   10.4551   44.4718  129.2155 C   0  0  0  0  0  0  0  0  0  0  0  0
   10.0804   43.4399  128.1932 C   0  0  0  0  0  0  0  0  0  0  0  0
 25 26  1  0  0  0
 26 27  1  0  0  0
 26 24  1  0  0  0
 24 22  1  0  0  0
 22 23  2  0  0  0
 22 21  1  0  0  0
 21 20  1  0  0  0
 20 18  1  0  0  0
 18 19  2  0  0  0
 19 17  1  0  0  0
 17 16  1  0  0  0
 16  1  1  0  0  0
  1  2  1  0  0  0
  2  3  2  0  0  0
  2  5  1  0  0  0
  5  6  2  0  0  0
  6  7  1  0  0  0
  7  8  2  0  0  0
  8  9  1  0  0  0
  9 10  2  0  0  0
 10 11  1  0  0  0
 11 12  2  0  0  0
 12 13  1  0  0  0
 13 14  2  0  0  0
 14 15  1  0  0  0
 15 11  1  0  0  0
  1  4  1  0  0  0
M  END
> <minimizedAffinity>
-5.00741

> <CNNscore>
0.3294789493

> <CNNaffinity>
6.4629082680

> <CNN_VS>
2.1293921471

> <CNNaffinity_variance>
0.1103882194

$$$$
[H]/C(=C(\[H])C([H])([H])C([H])([H])N([H])C(=O)/C([H])=C([H])/C([H])=C([H])/C([H])=C(\[H])c1sc([H])c([H])c1[H])C([H])([H])OC(=O)C([H])([H])C([H])(C([H])([H])[H])C([H])([H])[H]


 27 27  0  0  0  0  0  0  0  0999 V2000
    8.7204   47.9788  129.7058 N   0  0  0  0  0  0  0  0  0  0  0  0
    8.2631   46.6687  129.9390 C   0  0  0  0  0  0  0  0  0  0  0  0
    7.3181   46.4936  130.7480 O   0  0  0  0  0  0  0  0  0  0  0  0
    9.5071   48.1323  129.0308 H   0  0  0  0  0  0  0  0  0  0  0  0
    8.8518   45.5325  129.2740 C   0  0  0  0  0  0  0  0  0  0  0  0
    8.9558   44.3408  129.7878 C   0  0  0  0  0  0  0  0  0  0  0  0
    9.5660   43.2225  129.0601 C   0  0  0  0  0  0  0  0  0  0  0  0
   10.0093   43.3177  127.8398 C   0  0  0  0  0  0  0  0  0  0  0  0
   10.6194   42.1758  127.1306 C   0  0  0  0  0  0  0  0  0  0  0  0
    9.9717   41.0412  126.9978 C   0  0  0  0  0  0  0  0  0  0  0  0
   10.5949   39.9010  126.2831 C   0  0  0  0  0  0  0  0  0  0  0  0
   11.8586   39.4011  126.4462 C   0  0  0  0  0  0  0  0  0  0  0  0
   12.2104   38.3534  125.6835 C   0  0  0  0  0  0  0  0  0  0  0  0
   11.2732   37.8749  124.8074 C   0  0  0  0  0  0  0  0  0  0  0  0
    9.9381   38.8960  125.0736 S   0  0  0  0  0  0  0  0  0  0  0  0
    8.1653   49.1450  130.3482 C   0  0  0  0  0  0  0  0  0  0  0  0
    9.0507   49.7079  131.4442 C   0  0  0  0  0  0  0  0  0  0  0  0
    9.4003   48.1020  133.2912 C   0  0  0  0  0  0  0  0  0  0  0  0
    8.7443   49.0941  132.7493 C   0  0  0  0  0  0  0  0  0  0  0  0
   10.5490   47.4704  132.6383 C   0  0  0  0  0  0  0  0  0  0  0  0
   11.1683   46.5679  133.5276 O   0  0  0  0  0  0  0  0  0  0  0  0
   11.8346   45.4646  133.0522 C   0  0  0  0  0  0  0  0  0  0  0  0
   12.3957   45.5094  131.9381 O   0  0  0  0  0  0  0  0  0  0  0  0
   11.9180   44.1893  133.8258 C   0  0  0  0  0  0  0  0  0  0  0  0
    9.5124   43.9553  133.1784 C   0  0  0  0  0  0  0  0  0  0  0  0
   10.8159   43.2515  133.3831 C   0  0  0  0  0  0  0  0  0  0  0  0
   11.1802   42.4967  132.1390 C   0  0  0  0  0  0  0  0  0  0  0  0
 25 26  1  0  0  0
 26 27  1  0  0  0
 26 24  1  0  0  0
 24 22  1  0  0  0
 22 23  2  0  0  0
 22 21  1  0  0  0
 21 20  1  0  0  0
 20 18  1  0  0  0
 18 19  2  0  0  0
 19 17  1  0  0  0
 17 16  1  0  0  0
 16  1  1  0  0  0
  1  2  1  0  0  0
  2  3  2  0  0  0
  2  5  1  0  0  0
  5  6  2  0  0  0
  6  7  1  0  0  0
  7  8  2  0  0  0
  8  9  1  0  0  0
  9 10  2  0  0  0
 10 11  1  0  0  0
 11 12  2  0  0  0
 12 13  1  0  0  0
 13 14  2  0  0  0
 14 15  1  0  0  0
 15 11  1  0  0  0
  1  4  1  0  0  0
M  END
> <minimizedAffinity>
7.03010

> <CNNscore>
0.3262794316

> <CNNaffinity>
6.8315138817

> <CNN_VS>
2.2289824486

> <CNNaffinity_variance>
0.5885914564

$$$$
[H]Oc1nc(N([H])c2c([H])c(OC([H])([H])[H])c([H])c([H])c2OC([H])([H])[H])c([H])c2c([H])c([H])c([H])c([H])c12


 24 26  0  0  0  0  0  0  0  0999 V2000
    9.8051   44.9178  132.1202 N   0  0  0  0  0  0  0  0  0  0  0  0
   10.7300   44.7333  132.6627 H   0  0  0  0  0  0  0  0  0  0  0  0
    9.5583   46.2567  131.8292 C   0  0  0  0  0  0  0  0  0  0  0  0
    9.9086   47.2330  132.7616 C   0  0  0  0  0  0  0  0  0  0  0  0
    9.6833   48.5763  132.5180 C   0  0  0  0  0  0  0  0  0  0  0  0
   10.0266   49.5498  133.4347 C   0  0  0  0  0  0  0  0  0  0  0  0
    9.7819   50.8720  133.1455 C   0  0  0  0  0  0  0  0  0  0  0  0
    9.2059   51.2346  131.9674 C   0  0  0  0  0  0  0  0  0  0  0  0
    8.8629   50.2703  131.0532 C   0  0  0  0  0  0  0  0  0  0  0  0
    9.1028   48.9515  131.3326 C   0  0  0  0  0  0  0  0  0  0  0  0
    8.7622   47.9747  130.4211 C   0  0  0  0  0  0  0  0  0  0  0  0
    8.1759   48.3461  129.2227 O   0  0  0  0  0  0  0  0  0  0  0  0
    9.0076   46.6955  130.7200 N   0  0  0  0  0  0  0  0  0  0  0  0
    8.7900   48.4425  128.4280 H   0  0  0  0  0  0  0  0  0  0  0  0
    7.4186   42.0380  132.3940 C   0  0  0  0  0  0  0  0  0  0  0  0
    7.6518   41.4581  131.1745 C   0  0  0  0  0  0  0  0  0  0  0  0
    8.5601   41.9844  130.2814 C   0  0  0  0  0  0  0  0  0  0  0  0
    9.2669   43.1315  130.6077 C   0  0  0  0  0  0  0  0  0  0  0  0
    9.0687   43.7628  131.8360 C   0  0  0  0  0  0  0  0  0  0  0  0
    8.1472   43.1955  132.6957 C   0  0  0  0  0  0  0  0  0  0  0  0
    6.8435   40.7127  134.3837 C   0  0  0  0  0  0  0  0  0  0  0  0
    6.4998   41.4988  133.2879 O   0  0  0  0  0  0  0  0  0  0  0  0
   10.1846   43.6839  129.7341 O   0  0  0  0  0  0  0  0  0  0  0  0
   11.5644   43.6937  130.0846 C   0  0  0  0  0  0  0  0  0  0  0  0
 21 22  1  0  0  0
 22 15  1  0  0  0
 15 16  2  0  0  0
 16 17  1  0  0  0
 17 18  2  0  0  0
 18 23  1  0  0  0
 23 24  1  0  0  0
 18 19  1  0  0  0
 19  1  1  0  0  0
  1  3  1  0  0  0
  3  4  2  0  0  0
  4  5  1  0  0  0
  5  6  2  0  0  0
  6  7  1  0  0  0
  7  8  2  0  0  0
  8  9  1  0  0  0
  9 10  2  0  0  0
 10 11  1  0  0  0
 11 12  1  0  0  0
 11 13  2  0  0  0
 19 20  2  0  0  0
 20 15  1  0  0  0
 13  3  1  0  0  0
 10  5  1  0  0  0
  1  2  1  0  0  0
 12 14  1  0  0  0
M  END
> <minimizedAffinity>
4.29797

> <CNNscore>
0.5056238770

> <CNNaffinity>
6.9495072365

> <CNN_VS>
3.5138368607

> <CNNaffinity_variance>
3.5511596203

$$$$
[H]Oc1nc(N([H])c2c([H])c(OC([H])([H])[H])c([H])c([H])c2OC([H])([H])[H])c([H])c2c([H])c([H])c([H])c([H])c12


 24 26  0  0  0  0  0  0  0  0999 V2000
    9.5706   42.6560  130.6978 N   0  0  0  0  0  0  0  0  0  0  0  0
    9.3135   41.7850  130.0985 H   0  0  0  0  0  0  0  0  0  0  0  0
    8.7609   42.8547  131.8127 C   0  0  0  0  0  0  0  0  0  0  0  0
    7.9692   41.8044  132.2765 C   0  0  0  0  0  0  0  0  0  0  0  0
    7.1483   41.9534  133.3804 C   0  0  0  0  0  0  0  0  0  0  0  0
    6.3611   40.9196  133.8469 C   0  0  0  0  0  0  0  0  0  0  0  0
    5.5618   41.1180  134.9485 C   0  0  0  0  0  0  0  0  0  0  0  0
    5.5360   42.3197  135.5858 C   0  0  0  0  0  0  0  0  0  0  0  0
    6.3167   43.3502  135.1257 C   0  0  0  0  0  0  0  0  0  0  0  0
    7.1156   43.1619  134.0297 C   0  0  0  0  0  0  0  0  0  0  0  0
    7.9040   44.1905  133.5591 C   0  0  0  0  0  0  0  0  0  0  0  0
    7.8760   45.4129  134.2094 O   0  0  0  0  0  0  0  0  0  0  0  0
    8.6738   43.9788  132.4875 N   0  0  0  0  0  0  0  0  0  0  0  0
    8.5996   45.5800  134.8923 H   0  0  0  0  0  0  0  0  0  0  0  0
   12.7092   44.6991  130.5038 C   0  0  0  0  0  0  0  0  0  0  0  0
   12.7992   44.8131  129.1412 C   0  0  0  0  0  0  0  0  0  0  0  0
   11.8670   44.2430  128.3012 C   0  0  0  0  0  0  0  0  0  0  0  0
   10.8020   43.5307  128.8305 C   0  0  0  0  0  0  0  0  0  0  0  0
   10.6618   43.3834  130.2108 C   0  0  0  0  0  0  0  0  0  0  0  0
   11.6228   43.9740  131.0093 C   0  0  0  0  0  0  0  0  0  0  0  0
   13.3459   46.1170  132.4092 C   0  0  0  0  0  0  0  0  0  0  0  0
   13.6554   45.2783  131.3426 O   0  0  0  0  0  0  0  0  0  0  0  0
    9.8506   42.9472  128.0150 O   0  0  0  0  0  0  0  0  0  0  0  0
    8.9810   43.7769  127.2521 C   0  0  0  0  0  0  0  0  0  0  0  0
 21 22  1  0  0  0
 22 15  1  0  0  0
 15 16  2  0  0  0
 16 17  1  0  0  0
 17 18  2  0  0  0
 18 23  1  0  0  0
 23 24  1  0  0  0
 18 19  1  0  0  0
 19  1  1  0  0  0
  1  3  1  0  0  0
  3  4  2  0  0  0
  4  5  1  0  0  0
  5  6  2  0  0  0
  6  7  1  0  0  0
  7  8  2  0  0  0
  8  9  1  0  0  0
  9 10  2  0  0  0
 10 11  1  0  0  0
 11 12  1  0  0  0
 11 13  2  0  0  0
 19 20  2  0  0  0
 20 15  1  0  0  0
 13  3  1  0  0  0
 10  5  1  0  0  0
  1  2  1  0  0  0
 12 14  1  0  0  0
M  END
> <minimizedAffinity>
21.38972

> <CNNscore>
0.4462132752

> <CNNaffinity>
5.9551696777

> <CNN_VS>
2.6572756767

> <CNNaffinity_variance>
1.0922682285

$$$$
[H]Oc1nc(N([H])c2c([H])c(OC([H])([H])[H])c([H])c([H])c2OC([H])([H])[H])c([H])c2c([H])c([H])c([H])c([H])c12


 24 26  0  0  0  0  0  0  0  0999 V2000
    7.8445   46.5123  130.2178 N   0  0  0  0  0  0  0  0  0  0  0  0
    7.1228   45.9709  129.6098 H   0  0  0  0  0  0  0  0  0  0  0  0
    8.7510   45.7062  130.9010 C   0  0  0  0  0  0  0  0  0  0  0  0
    8.9186   44.3799  130.5033 C   0  0  0  0  0  0  0  0  0  0  0  0
    9.8073   43.5400  131.1509 C   0  0  0  0  0  0  0  0  0  0  0  0
    9.9801   42.2259  130.7645 C   0  0  0  0  0  0  0  0  0  0  0  0
   10.8760   41.4311  131.4407 C   0  0  0  0  0  0  0  0  0  0  0  0
   11.5953   41.9220  132.4860 C   0  0  0  0  0  0  0  0  0  0  0  0
   11.4269   43.2276  132.8736 C   0  0  0  0  0  0  0  0  0  0  0  0
   10.5372   44.0262  132.2063 C   0  0  0  0  0  0  0  0  0  0  0  0
   10.3602   45.3394  132.5875 C   0  0  0  0  0  0  0  0  0  0  0  0
   11.0934   45.8369  133.6518 O   0  0  0  0  0  0  0  0  0  0  0  0
    9.4851   46.0961  131.9185 N   0  0  0  0  0  0  0  0  0  0  0  0
   11.9396   46.3374  133.4251 H   0  0  0  0  0  0  0  0  0  0  0  0
    8.3164   50.1799  130.8414 C   0  0  0  0  0  0  0  0  0  0  0  0
    7.3268   50.6589  130.0235 C   0  0  0  0  0  0  0  0  0  0  0  0
    6.5231   49.8169  129.2855 C   0  0  0  0  0  0  0  0  0  0  0  0
    6.7056   48.4446  129.3593 C   0  0  0  0  0  0  0  0  0  0  0  0
    7.6984   47.9030  130.1762 C   0  0  0  0  0  0  0  0  0  0  0  0
    8.4771   48.7897  130.8956 C   0  0  0  0  0  0  0  0  0  0  0  0
    9.7537   50.6866  132.7712 C   0  0  0  0  0  0  0  0  0  0  0  0
    9.1220   51.0383  131.5820 O   0  0  0  0  0  0  0  0  0  0  0  0
    5.9163   47.5738  128.6319 O   0  0  0  0  0  0  0  0  0  0  0  0
    4.7920   46.9629  129.2560 C   0  0  0  0  0  0  0  0  0  0  0  0
 21 22  1  0  0  0
 22 15  1  0  0  0
 15 16  2  0  0  0
 16 17  1  0  0  0
 17 18  2  0  0  0
 18 23  1  0  0  0
 23 24  1  0  0  0
 18 19  1  0  0  0
 19  1  1  0  0  0
  1  3  1  0  0  0
  3  4  2  0  0  0
  4  5  1  0  0  0
  5  6  2  0  0  0
  6  7  1  0  0  0
  7  8  2  0  0  0
  8  9  1  0  0  0
  9 10  2  0  0  0
 10 11  1  0  0  0
 11 12  1  0  0  0
 11 13  2  0  0  0
 19 20  2  0  0  0
 20 15  1  0  0  0
 13  3  1  0  0  0
 10  5  1  0  0  0
  1  2  1  0  0  0
 12 14  1  0  0  0
M  END
> <minimizedAffinity>
-3.33980

> <CNNscore>
0.3905954957

> <CNNaffinity>
6.9380149841

> <CNN_VS>
2.7099573612

> <CNNaffinity_variance>
0.9607843161

$$$$
[H]Oc1nc(N([H])c2c([H])c(OC([H])([H])[H])c([H])c([H])c2OC([H])([H])[H])c([H])c2c([H])c([H])c([H])c([H])c12


 24 26  0  0  0  0  0  0  0  0999 V2000
    9.4011   47.8478  130.1686 N   0  0  0  0  0  0  0  0  0  0  0  0
    9.0654   48.4829  129.3515 H   0  0  0  0  0  0  0  0  0  0  0  0
    9.4734   46.4921  129.8601 C   0  0  0  0  0  0  0  0  0  0  0  0
    8.7282   45.5816  130.6089 C   0  0  0  0  0  0  0  0  0  0  0  0
    8.7673   44.2247  130.3405 C   0  0  0  0  0  0  0  0  0  0  0  0
    8.0332   43.3159  131.0761 C   0  0  0  0  0  0  0  0  0  0  0  0
    8.1061   41.9770  130.7698 C   0  0  0  0  0  0  0  0  0  0  0  0
    8.8920   41.5350  129.7510 C   0  0  0  0  0  0  0  0  0  0  0  0
    9.6235   42.4348  129.0171 C   0  0  0  0  0  0  0  0  0  0  0  0
    9.5571   43.7696  129.3148 C   0  0  0  0  0  0  0  0  0  0  0  0
   10.2878   44.6821  128.5838 C   0  0  0  0  0  0  0  0  0  0  0  0
   11.0872   44.2299  127.5472 O   0  0  0  0  0  0  0  0  0  0  0  0
   10.2042   45.9787  128.8963 N   0  0  0  0  0  0  0  0  0  0  0  0
   10.6910   44.2658  126.6200 H   0  0  0  0  0  0  0  0  0  0  0  0
    9.6755   50.5471  132.7573 C   0  0  0  0  0  0  0  0  0  0  0  0
   10.2955   49.8264  133.7443 C   0  0  0  0  0  0  0  0  0  0  0  0
   10.6188   48.4968  133.5791 C   0  0  0  0  0  0  0  0  0  0  0  0
   10.3165   47.8534  132.3889 C   0  0  0  0  0  0  0  0  0  0  0  0
    9.6857   48.5395  131.3508 C   0  0  0  0  0  0  0  0  0  0  0  0
    9.3829   49.8706  131.5664 C   0  0  0  0  0  0  0  0  0  0  0  0
    9.5505   52.5903  134.1197 C   0  0  0  0  0  0  0  0  0  0  0  0
    9.3536   51.8885  132.9341 O   0  0  0  0  0  0  0  0  0  0  0  0
   10.6277   46.5211  132.1924 O   0  0  0  0  0  0  0  0  0  0  0  0
   11.3680   45.8225  133.1877 C   0  0  0  0  0  0  0  0  0  0  0  0
 21 22  1  0  0  0
 22 15  1  0  0  0
 15 16  2  0  0  0
 16 17  1  0  0  0
 17 18  2  0  0  0
 18 23  1  0  0  0
 23 24  1  0  0  0
 18 19  1  0  0  0
 19  1  1  0  0  0
  1  3  1  0  0  0
  3  4  2  0  0  0
  4  5  1  0  0  0
  5  6  2  0  0  0
  6  7  1  0  0  0
  7  8  2  0  0  0
  8  9  1  0  0  0
  9 10  2  0  0  0
 10 11  1  0  0  0
 11 12  1  0  0  0
 11 13  2  0  0  0
 19 20  2  0  0  0
 20 15  1  0  0  0
 13  3  1  0  0  0
 10  5  1  0  0  0
  1  2  1  0  0  0
 12 14  1  0  0  0
M  END
> <minimizedAffinity>
3.46537

> <CNNscore>
0.3774247766

> <CNNaffinity>
6.5187578201

> <CNN_VS>
2.4603407383

> <CNNaffinity_variance>
1.4555618763

$$$$
[H]Oc1nc(N([H])c2c([H])c(OC([H])([H])[H])c([H])c([H])c2OC([H])([H])[H])c([H])c2c([H])c([H])c([H])c([H])c12


 24 26  0  0  0  0  0  0  0  0999 V2000
   10.0062   43.4648  132.9120 N   0  0  0  0  0  0  0  0  0  0  0  0
   10.5129   43.5683  133.8692 H   0  0  0  0  0  0  0  0  0  0  0  0
   10.6177   44.1330  131.8547 C   0  0  0  0  0  0  0  0  0  0  0  0
    9.9086   45.1197  131.1701 C   0  0  0  0  0  0  0  0  0  0  0  0
   10.4734   45.8110  130.1129 C   0  0  0  0  0  0  0  0  0  0  0  0
    9.7794   46.7893  129.4293 C   0  0  0  0  0  0  0  0  0  0  0  0
   10.3852   47.4482  128.3850 C   0  0  0  0  0  0  0  0  0  0  0  0
   11.6601   47.1494  128.0157 C   0  0  0  0  0  0  0  0  0  0  0  0
   12.3538   46.1777  128.6924 C   0  0  0  0  0  0  0  0  0  0  0  0
   11.7587   45.5165  129.7333 C   0  0  0  0  0  0  0  0  0  0  0  0
   12.4467   44.5386  130.4199 C   0  0  0  0  0  0  0  0  0  0  0  0
   13.7443   44.2361  130.0422 O   0  0  0  0  0  0  0  0  0  0  0  0
   11.8414   43.9094  131.4316 N   0  0  0  0  0  0  0  0  0  0  0  0
   14.4840   44.6882  130.5583 H   0  0  0  0  0  0  0  0  0  0  0  0
    7.1493   41.3733  134.1475 C   0  0  0  0  0  0  0  0  0  0  0  0
    6.5371   41.1273  132.9465 C   0  0  0  0  0  0  0  0  0  0  0  0
    7.0348   41.6254  131.7617 C   0  0  0  0  0  0  0  0  0  0  0  0
    8.1854   42.3988  131.7647 C   0  0  0  0  0  0  0  0  0  0  0  0
    8.8490   42.6802  132.9593 C   0  0  0  0  0  0  0  0  0  0  0  0
    8.3095   42.1573  134.1193 C   0  0  0  0  0  0  0  0  0  0  0  0
    5.6014   39.9409  135.4120 C   0  0  0  0  0  0  0  0  0  0  0  0
    6.6387   40.8658  135.3375 O   0  0  0  0  0  0  0  0  0  0  0  0
    8.7097   42.9128  130.5937 O   0  0  0  0  0  0  0  0  0  0  0  0
    8.0704   42.6220  129.3554 C   0  0  0  0  0  0  0  0  0  0  0  0
 21 22  1  0  0  0
 22 15  1  0  0  0
 15 16  2  0  0  0
 16 17  1  0  0  0
 17 18  2  0  0  0
 18 23  1  0  0  0
 23 24  1  0  0  0
 18 19  1  0  0  0
 19  1  1  0  0  0
  1  3  1  0  0  0
  3  4  2  0  0  0
  4  5  1  0  0  0
  5  6  2  0  0  0
  6  7  1  0  0  0
  7  8  2  0  0  0
  8  9  1  0  0  0
  9 10  2  0  0  0
 10 11  1  0  0  0
 11 12  1  0  0  0
 11 13  2  0  0  0
 19 20  2  0  0  0
 20 15  1  0  0  0
 13  3  1  0  0  0
 10  5  1  0  0  0
  1  2  1  0  0  0
 12 14  1  0  0  0
M  END
> <minimizedAffinity>
18.20286

> <CNNscore>
0.3733666241

> <CNNaffinity>
6.1612114906

> <CNN_VS>
2.3003907204

> <CNNaffinity_variance>
1.8746757507

$$$$
[H]Oc1nc(N([H])c2c([H])c(OC([H])([H])[H])c([H])c([H])c2OC([H])([H])[H])c([H])c2c([H])c([H])c([H])c([H])c12


 24 26  0  0  0  0  0  0  0  0999 V2000
    8.7437   47.9071  130.5447 N   0  0  0  0  0  0  0  0  0  0  0  0
    8.1055   48.5104  129.9025 H   0  0  0  0  0  0  0  0  0  0  0  0
    8.8857   46.5814  130.1441 C   0  0  0  0  0  0  0  0  0  0  0  0
    9.8093   46.2652  129.1480 C   0  0  0  0  0  0  0  0  0  0  0  0
    9.9862   44.9625  128.7164 C   0  0  0  0  0  0  0  0  0  0  0  0
   10.8979   44.6397  127.7311 C   0  0  0  0  0  0  0  0  0  0  0  0
   11.0367   43.3294  127.3367 C   0  0  0  0  0  0  0  0  0  0  0  0
   10.2876   42.3457  127.9043 C   0  0  0  0  0  0  0  0  0  0  0  0
    9.3801   42.6619  128.8840 C   0  0  0  0  0  0  0  0  0  0  0  0
    9.2352   43.9636  129.2831 C   0  0  0  0  0  0  0  0  0  0  0  0
    8.3264   44.2922  130.2665 C   0  0  0  0  0  0  0  0  0  0  0  0
    7.5649   43.2892  130.8429 O   0  0  0  0  0  0  0  0  0  0  0  0
    8.2057   45.5707  130.6364 N   0  0  0  0  0  0  0  0  0  0  0  0
    7.9037   42.9053  131.7123 H   0  0  0  0  0  0  0  0  0  0  0  0
    9.6759   50.6407  132.9368 C   0  0  0  0  0  0  0  0  0  0  0  0
   10.3905   49.8945  133.8369 C   0  0  0  0  0  0  0  0  0  0  0  0
   10.5687   48.5372  133.6765 C   0  0  0  0  0  0  0  0  0  0  0  0
   10.0174   47.8912  132.5808 C   0  0  0  0  0  0  0  0  0  0  0  0
    9.2805   48.6026  131.6334 C   0  0  0  0  0  0  0  0  0  0  0  0
    9.1310   49.9609  131.8402 C   0  0  0  0  0  0  0  0  0  0  0  0
    9.6999   52.6787  134.3124 C   0  0  0  0  0  0  0  0  0  0  0  0
    9.5020   52.0098  133.1080 O   0  0  0  0  0  0  0  0  0  0  0  0
   10.1781   46.5315  132.3914 O   0  0  0  0  0  0  0  0  0  0  0  0
   10.9084   45.7743  133.3506 C   0  0  0  0  0  0  0  0  0  0  0  0
 21 22  1  0  0  0
 22 15  1  0  0  0
 15 16  2  0  0  0
 16 17  1  0  0  0
 17 18  2  0  0  0
 18 23  1  0  0  0
 23 24  1  0  0  0
 18 19  1  0  0  0
 19  1  1  0  0  0
  1  3  1  0  0  0
  3  4  2  0  0  0
  4  5  1  0  0  0
  5  6  2  0  0  0
  6  7  1  0  0  0
  7  8  2  0  0  0
  8  9  1  0  0  0
  9 10  2  0  0  0
 10 11  1  0  0  0
 11 12  1  0  0  0
 11 13  2  0  0  0
 19 20  2  0  0  0
 20 15  1  0  0  0
 13  3  1  0  0  0
 10  5  1  0  0  0
  1  2  1  0  0  0
 12 14  1  0  0  0
M  END
> <minimizedAffinity>
4.43961

> <CNNscore>
0.3515926898

> <CNNaffinity>
6.3277931213

> <CNN_VS>
2.2248058319

> <CNNaffinity_variance>
1.1050596237

$$$$
[H]Oc1nc(N([H])c2c([H])c(OC([H])([H])[H])c([H])c([H])c2OC([H])([H])[H])c([H])c2c([H])c([H])c([H])c([H])c12


 24 26  0  0  0  0  0  0  0  0999 V2000
    9.9712   44.6878  132.5944 N   0  0  0  0  0  0  0  0  0  0  0  0
   10.1965   44.1674  133.5229 H   0  0  0  0  0  0  0  0  0  0  0  0
    9.9709   46.0766  132.6911 C   0  0  0  0  0  0  0  0  0  0  0  0
    9.2000   46.8221  131.7993 C   0  0  0  0  0  0  0  0  0  0  0  0
    9.1673   48.2043  131.8557 C   0  0  0  0  0  0  0  0  0  0  0  0
    8.4073   48.9507  130.9775 C   0  0  0  0  0  0  0  0  0  0  0  0
    8.4084   50.3227  131.0745 C   0  0  0  0  0  0  0  0  0  0  0  0
    9.1485   50.9554  132.0247 C   0  0  0  0  0  0  0  0  0  0  0  0
    9.9055   50.2176  132.8998 C   0  0  0  0  0  0  0  0  0  0  0  0
    9.9105   48.8513  132.8107 C   0  0  0  0  0  0  0  0  0  0  0  0
   10.6675   48.1004  133.6849 C   0  0  0  0  0  0  0  0  0  0  0  0
   11.4200   48.7466  134.6514 O   0  0  0  0  0  0  0  0  0  0  0  0
   10.6537   46.7686  133.5750 N   0  0  0  0  0  0  0  0  0  0  0  0
   11.0048   48.8331  135.5668 H   0  0  0  0  0  0  0  0  0  0  0  0
   10.0803   43.1136  129.1925 C   0  0  0  0  0  0  0  0  0  0  0  0
    9.1852   42.0978  129.4047 C   0  0  0  0  0  0  0  0  0  0  0  0
    8.5587   41.9234  130.6199 C   0  0  0  0  0  0  0  0  0  0  0  0
    8.8286   42.7891  131.6685 C   0  0  0  0  0  0  0  0  0  0  0  0
    9.7315   43.8404  131.5075 C   0  0  0  0  0  0  0  0  0  0  0  0
   10.3326   43.9720  130.2700 C   0  0  0  0  0  0  0  0  0  0  0  0
   10.8105   44.4984  127.2964 C   0  0  0  0  0  0  0  0  0  0  0  0
   10.7070   43.2807  127.9623 O   0  0  0  0  0  0  0  0  0  0  0  0
    8.2169   42.6410  132.8991 O   0  0  0  0  0  0  0  0  0  0  0  0
    8.9854   42.1971  134.0123 C   0  0  0  0  0  0  0  0  0  0  0  0
 21 22  1  0  0  0
 22 15  1  0  0  0
 15 16  2  0  0  0
 16 17  1  0  0  0
 17 18  2  0  0  0
 18 23  1  0  0  0
 23 24  1  0  0  0
 18 19  1  0  0  0
 19  1  1  0  0  0
  1  3  1  0  0  0
  3  4  2  0  0  0
  4  5  1  0  0  0
  5  6  2  0  0  0
  6  7  1  0  0  0
  7  8  2  0  0  0
  8  9  1  0  0  0
  9 10  2  0  0  0
 10 11  1  0  0  0
 11 12  1  0  0  0
 11 13  2  0  0  0
 19 20  2  0  0  0
 20 15  1  0  0  0
 13  3  1  0  0  0
 10  5  1  0  0  0
  1  2  1  0  0  0
 12 14  1  0  0  0
M  END
> <minimizedAffinity>
-0.49897

> <CNNscore>
0.3391329050

> <CNNaffinity>
6.4666061401

> <CNN_VS>
2.1930389404

> <CNNaffinity_variance>
1.0428274870

$$$$
[H]Oc1nc(N([H])c2c([H])c(OC([H])([H])[H])c([H])c([H])c2OC([H])([H])[H])c([H])c2c([H])c([H])c([H])c([H])c12


 24 26  0  0  0  0  0  0  0  0999 V2000
    7.8128   44.4657  130.9767 N   0  0  0  0  0  0  0  0  0  0  0  0
    6.9324   43.8266  130.9895 H   0  0  0  0  0  0  0  0  0  0  0  0
    7.5774   45.7724  130.5580 C   0  0  0  0  0  0  0  0  0  0  0  0
    8.2937   46.8158  131.1440 C   0  0  0  0  0  0  0  0  0  0  0  0
    8.0949   48.1306  130.7614 C   0  0  0  0  0  0  0  0  0  0  0  0
    8.7992   49.1700  131.3356 C   0  0  0  0  0  0  0  0  0  0  0  0
    8.5651   50.4603  130.9206 C   0  0  0  0  0  0  0  0  0  0  0  0
    7.6486   50.7271  129.9512 C   0  0  0  0  0  0  0  0  0  0  0  0
    6.9462   49.6971  129.3777 C   0  0  0  0  0  0  0  0  0  0  0  0
    7.1726   48.4095  129.7845 C   0  0  0  0  0  0  0  0  0  0  0  0
    6.4724   47.3671  129.2148 C   0  0  0  0  0  0  0  0  0  0  0  0
    5.5399   47.6412  128.2283 O   0  0  0  0  0  0  0  0  0  0  0  0
    6.7135   46.1204  129.6312 N   0  0  0  0  0  0  0  0  0  0  0  0
    5.8507   47.5507  127.2727 H   0  0  0  0  0  0  0  0  0  0  0  0
   10.7216   43.3028  133.0382 C   0  0  0  0  0  0  0  0  0  0  0  0
   11.3372   42.5133  132.1024 C   0  0  0  0  0  0  0  0  0  0  0  0
   10.8253   42.3586  130.8322 C   0  0  0  0  0  0  0  0  0  0  0  0
    9.6564   43.0114  130.4724 C   0  0  0  0  0  0  0  0  0  0  0  0
    8.9886   43.8276  131.3859 C   0  0  0  0  0  0  0  0  0  0  0  0
    9.5429   43.9496  132.6460 C   0  0  0  0  0  0  0  0  0  0  0  0
   12.3816   44.2007  134.6144 C   0  0  0  0  0  0  0  0  0  0  0  0
   11.2466   43.4522  134.3174 O   0  0  0  0  0  0  0  0  0  0  0  0
    9.1177   42.8768  129.2067 O   0  0  0  0  0  0  0  0  0  0  0  0
    9.8454   43.3605  128.0828 C   0  0  0  0  0  0  0  0  0  0  0  0
 21 22  1  0  0  0
 22 15  1  0  0  0
 15 16  2  0  0  0
 16 17  1  0  0  0
 17 18  2  0  0  0
 18 23  1  0  0  0
 23 24  1  0  0  0
 18 19  1  0  0  0
 19  1  1  0  0  0
  1  3  1  0  0  0
  3  4  2  0  0  0
  4  5  1  0  0  0
  5  6  2  0  0  0
  6  7  1  0  0  0
  7  8  2  0  0  0
  8  9  1  0  0  0
  9 10  2  0  0  0
 10 11  1  0  0  0
 11 12  1  0  0  0
 11 13  2  0  0  0
 19 20  2  0  0  0
 20 15  1  0  0  0
 13  3  1  0  0  0
 10  5  1  0  0  0
  1  2  1  0  0  0
 12 14  1  0  0  0
M  END
> <minimizedAffinity>
-7.58957

> <CNNscore>
0.3386467695

> <CNNaffinity>
6.8424806595

> <CNN_VS>
2.3171839714

> <CNNaffinity_variance>
0.2644582987

$$$$
[H]Oc1nc(N([H])c2c([H])c(OC([H])([H])[H])c([H])c([H])c2OC([H])([H])[H])c([H])c2c([H])c([H])c([H])c([H])c12


 24 26  0  0  0  0  0  0  0  0999 V2000
    8.7442   44.8257  130.9065 N   0  0  0  0  0  0  0  0  0  0  0  0
    8.0647   43.9905  131.0628 H   0  0  0  0  0  0  0  0  0  0  0  0
    8.1299   46.0076  130.5016 C   0  0  0  0  0  0  0  0  0  0  0  0
    8.6436   47.2280  130.9397 C   0  0  0  0  0  0  0  0  0  0  0  0
    8.0679   48.4290  130.5643 C   0  0  0  0  0  0  0  0  0  0  0  0
    8.5693   49.6418  130.9928 C   0  0  0  0  0  0  0  0  0  0  0  0
    7.9610   50.8084  130.5918 C   0  0  0  0  0  0  0  0  0  0  0  0
    6.8711   50.7841  129.7777 C   0  0  0  0  0  0  0  0  0  0  0  0
    6.3692   49.5808  129.3494 C   0  0  0  0  0  0  0  0  0  0  0  0
    6.9683   48.4144  129.7436 C   0  0  0  0  0  0  0  0  0  0  0  0
    6.4722   47.2000  129.3189 C   0  0  0  0  0  0  0  0  0  0  0  0
    5.3627   47.1778  128.4904 O   0  0  0  0  0  0  0  0  0  0  0  0
    7.0766   46.0774  129.7192 N   0  0  0  0  0  0  0  0  0  0  0  0
    5.5380   47.1059  127.4995 H   0  0  0  0  0  0  0  0  0  0  0  0
   11.9806   44.0406  132.6305 C   0  0  0  0  0  0  0  0  0  0  0  0
   12.7814   43.9208  131.5249 C   0  0  0  0  0  0  0  0  0  0  0  0
   12.2884   44.0898  130.2489 C   0  0  0  0  0  0  0  0  0  0  0  0
   10.9483   44.3893  130.0584 C   0  0  0  0  0  0  0  0  0  0  0  0
   10.0882   44.5227  131.1488 C   0  0  0  0  0  0  0  0  0  0  0  0
   10.6317   44.3438  132.4068 C   0  0  0  0  0  0  0  0  0  0  0  0
   11.7059   43.8171  135.0638 C   0  0  0  0  0  0  0  0  0  0  0  0
   12.4881   43.8682  133.9138 O   0  0  0  0  0  0  0  0  0  0  0  0
   10.4235   44.5647  128.7918 O   0  0  0  0  0  0  0  0  0  0  0  0
   10.0372   43.4246  128.0318 C   0  0  0  0  0  0  0  0  0  0  0  0
 21 22  1  0  0  0
 22 15  1  0  0  0
 15 16  2  0  0  0
 16 17  1  0  0  0
 17 18  2  0  0  0
 18 23  1  0  0  0
 23 24  1  0  0  0
 18 19  1  0  0  0
 19  1  1  0  0  0
  1  3  1  0  0  0
  3  4  2  0  0  0
  4  5  1  0  0  0
  5  6  2  0  0  0
  6  7  1  0  0  0
  7  8  2  0  0  0
  8  9  1  0  0  0
  9 10  2  0  0  0
 10 11  1  0  0  0
 11 12  1  0  0  0
 11 13  2  0  0  0
 19 20  2  0  0  0
 20 15  1  0  0  0
 13  3  1  0  0  0
 10  5  1  0  0  0
  1  2  1  0  0  0
 12 14  1  0  0  0
M  END
> <minimizedAffinity>
-7.50537

> <CNNscore>
0.2822656631

> <CNNaffinity>
6.8034248352

> <CNN_VS>
1.9203732014

> <CNNaffinity_variance>
0.3893447220

$$$$
[H]Oc1c([H])c2c(c([H])c1O[H])[C@]1([H])c3c(sc(Cl)c3[H])C([H])([H])N([H])[C@@]1([H])C([H])([H])C2([H])[H]


 23 26  0  0  0  0  0  0  0  0999 V2000
    5.4345   50.0727  129.2305 O   0  0  0  0  0  0  0  0  0  0  0  0
    6.4858   49.2922  129.6733 C   0  0  0  0  0  0  0  0  0  0  0  0
    7.4754   49.9056  130.4230 C   0  0  0  0  0  0  0  0  0  0  0  0
    8.5144   49.1515  130.8645 C   0  0  0  0  0  0  0  0  0  0  0  0
    8.5809   47.7801  130.5643 C   0  0  0  0  0  0  0  0  0  0  0  0
    7.5991   47.1880  129.8260 C   0  0  0  0  0  0  0  0  0  0  0  0
    6.5211   47.9543  129.3643 C   0  0  0  0  0  0  0  0  0  0  0  0
    5.4969   47.4068  128.6103 O   0  0  0  0  0  0  0  0  0  0  0  0
    9.7852   47.1394  131.1295 C   0  0  0  0  0  0  0  0  0  0  0  0
   10.0228   45.7326  130.7323 C   0  0  0  0  0  0  0  0  0  0  0  0
    9.9706   45.2364  129.4595 C   0  0  0  0  0  0  0  0  0  0  0  0
   10.2264   43.9124  129.3015 C   0  0  0  0  0  0  0  0  0  0  0  0
   10.2354   42.9845  127.8067 Cl  0  0  0  0  0  0  0  0  0  0  0  0
   10.5324   43.3746  130.8879 S   0  0  0  0  0  0  0  0  0  0  0  0
   10.3297   44.8403  131.7158 C   0  0  0  0  0  0  0  0  0  0  0  0
   10.4591   45.1983  133.1627 C   0  0  0  0  0  0  0  0  0  0  0  0
   10.7967   46.6160  133.2341 N   0  0  0  0  0  0  0  0  0  0  0  0
    9.7212   47.3365  132.5969 C   0  0  0  0  0  0  0  0  0  0  0  0
    9.7617   48.8156  132.9358 C   0  0  0  0  0  0  0  0  0  0  0  0
    9.6243   49.6962  131.7028 C   0  0  0  0  0  0  0  0  0  0  0  0
    5.3771   51.0593  129.4395 H   0  0  0  0  0  0  0  0  0  0  0  0
    5.4458   46.4478  128.3426 H   0  0  0  0  0  0  0  0  0  0  0  0
   10.9390   46.8593  134.2276 H   0  0  0  0  0  0  0  0  0  0  0  0
  1  2  1  0  0  0
  2  3  2  0  0  0
  3  4  1  0  0  0
  4  5  2  0  0  0
  5  6  1  0  0  0
  6  7  2  0  0  0
  7  8  1  0  0  0
  5  9  1  0  0  0
  9 10  1  0  0  0
 10 11  1  0  0  0
 11 12  2  0  0  0
 12 13  1  0  0  0
 12 14  1  0  0  0
 14 15  1  0  0  0
 15 16  1  0  0  0
 16 17  1  0  0  0
 17 18  1  0  0  0
 18 19  1  0  0  0
 19 20  1  0  0  0
  7  2  1  0  0  0
 18  9  1  0  0  0
 20  4  1  0  0  0
 15 10  2  0  0  0
  1 21  1  0  0  0
  8 22  1  0  0  0
 17 23  1  0  0  0
M  END
> <minimizedAffinity>
-10.43550

> <CNNscore>
0.6449173093

> <CNNaffinity>
7.4090347290

> <CNN_VS>
4.7782149315

> <CNNaffinity_variance>
0.7206995487

$$$$
[H]Oc1c([H])c2c(c([H])c1O[H])[C@]1([H])c3c(sc(Cl)c3[H])C([H])([H])N([H])[C@@]1([H])C([H])([H])C2([H])[H]


 23 26  0  0  0  0  0  0  0  0999 V2000
    7.4764   50.3644  128.8579 O   0  0  0  0  0  0  0  0  0  0  0  0
    8.0581   49.2335  129.3997 C   0  0  0  0  0  0  0  0  0  0  0  0
    7.9859   48.0576  128.6718 C   0  0  0  0  0  0  0  0  0  0  0  0
    8.5525   46.9387  129.1917 C   0  0  0  0  0  0  0  0  0  0  0  0
    9.1958   46.9771  130.4405 C   0  0  0  0  0  0  0  0  0  0  0  0
    9.2609   48.1419  131.1466 C   0  0  0  0  0  0  0  0  0  0  0  0
    8.6806   49.3040  130.6220 C   0  0  0  0  0  0  0  0  0  0  0  0
    8.7155   50.5138  131.2948 O   0  0  0  0  0  0  0  0  0  0  0  0
    9.7422   45.6621  130.8313 C   0  0  0  0  0  0  0  0  0  0  0  0
   10.2976   45.5675  132.2008 C   0  0  0  0  0  0  0  0  0  0  0  0
    9.6953   46.0104  133.3454 C   0  0  0  0  0  0  0  0  0  0  0  0
   10.3688   45.8247  134.5097 C   0  0  0  0  0  0  0  0  0  0  0  0
    9.8662   46.2803  136.1331 Cl  0  0  0  0  0  0  0  0  0  0  0  0
   11.8045   45.0515  134.0195 S   0  0  0  0  0  0  0  0  0  0  0  0
   11.5187   44.9806  132.3497 C   0  0  0  0  0  0  0  0  0  0  0  0
   12.3193   44.4119  131.2209 C   0  0  0  0  0  0  0  0  0  0  0  0
   11.3855   44.0585  130.1568 N   0  0  0  0  0  0  0  0  0  0  0  0
   10.7054   45.2724  129.7746 C   0  0  0  0  0  0  0  0  0  0  0  0
    9.9968   45.1196  128.4409 C   0  0  0  0  0  0  0  0  0  0  0  0
    8.5614   45.6216  128.4870 C   0  0  0  0  0  0  0  0  0  0  0  0
    7.0108   50.3481  127.9617 H   0  0  0  0  0  0  0  0  0  0  0  0
    9.1455   50.6512  132.1836 H   0  0  0  0  0  0  0  0  0  0  0  0
   11.9244   43.6173  129.3944 H   0  0  0  0  0  0  0  0  0  0  0  0
  1  2  1  0  0  0
  2  3  2  0  0  0
  3  4  1  0  0  0
  4  5  2  0  0  0
  5  6  1  0  0  0
  6  7  2  0  0  0
  7  8  1  0  0  0
  5  9  1  0  0  0
  9 10  1  0  0  0
 10 11  1  0  0  0
 11 12  2  0  0  0
 12 13  1  0  0  0
 12 14  1  0  0  0
 14 15  1  0  0  0
 15 16  1  0  0  0
 16 17  1  0  0  0
 17 18  1  0  0  0
 18 19  1  0  0  0
 19 20  1  0  0  0
  7  2  1  0  0  0
 18  9  1  0  0  0
 20  4  1  0  0  0
 15 10  2  0  0  0
  1 21  1  0  0  0
  8 22  1  0  0  0
 17 23  1  0  0  0
M  END
> <minimizedAffinity>
-6.98727

> <CNNscore>
0.3536925018

> <CNNaffinity>
7.1188683510

> <CNN_VS>
2.5178904533

> <CNNaffinity_variance>
1.1776123047

$$$$
[H]Oc1c([H])c2c(c([H])c1O[H])[C@]1([H])c3c(sc(Cl)c3[H])C([H])([H])N([H])[C@@]1([H])C([H])([H])C2([H])[H]


 23 26  0  0  0  0  0  0  0  0999 V2000
    8.5057   50.8702  131.3111 O   0  0  0  0  0  0  0  0  0  0  0  0
    8.6624   49.4981  131.2514 C   0  0  0  0  0  0  0  0  0  0  0  0
    7.7928   48.7826  130.4455 C   0  0  0  0  0  0  0  0  0  0  0  0
    7.9345   47.4341  130.3774 C   0  0  0  0  0  0  0  0  0  0  0  0
    8.9415   46.7831  131.1103 C   0  0  0  0  0  0  0  0  0  0  0  0
    9.7922   47.4996  131.8993 C   0  0  0  0  0  0  0  0  0  0  0  0
    9.6573   48.8917  131.9787 C   0  0  0  0  0  0  0  0  0  0  0  0
   10.4916   49.6695  132.7638 O   0  0  0  0  0  0  0  0  0  0  0  0
    8.9288   45.3208  130.9053 C   0  0  0  0  0  0  0  0  0  0  0  0
    9.8498   44.5347  131.7579 C   0  0  0  0  0  0  0  0  0  0  0  0
    9.9985   44.6613  133.1111 C   0  0  0  0  0  0  0  0  0  0  0  0
   10.8956   43.8393  133.7137 C   0  0  0  0  0  0  0  0  0  0  0  0
   11.3111   43.7601  135.4215 Cl  0  0  0  0  0  0  0  0  0  0  0  0
   11.5144   42.9137  132.4254 S   0  0  0  0  0  0  0  0  0  0  0  0
   10.6218   43.5891  131.1519 C   0  0  0  0  0  0  0  0  0  0  0  0
   10.5814   43.2857  129.6873 C   0  0  0  0  0  0  0  0  0  0  0  0
    9.2662   43.6817  129.1947 N   0  0  0  0  0  0  0  0  0  0  0  0
    9.1283   45.0943  129.4544 C   0  0  0  0  0  0  0  0  0  0  0  0
    7.9844   45.6993  128.6608 C   0  0  0  0  0  0  0  0  0  0  0  0
    7.0744   46.5620  129.5224 C   0  0  0  0  0  0  0  0  0  0  0  0
    7.7850   51.3484  130.7894 H   0  0  0  0  0  0  0  0  0  0  0  0
   11.2361   49.3103  133.3210 H   0  0  0  0  0  0  0  0  0  0  0  0
    9.2113   43.4277  128.1953 H   0  0  0  0  0  0  0  0  0  0  0  0
  1  2  1  0  0  0
  2  3  2  0  0  0
  3  4  1  0  0  0
  4  5  2  0  0  0
  5  6  1  0  0  0
  6  7  2  0  0  0
  7  8  1  0  0  0
  5  9  1  0  0  0
  9 10  1  0  0  0
 10 11  1  0  0  0
 11 12  2  0  0  0
 12 13  1  0  0  0
 12 14  1  0  0  0
 14 15  1  0  0  0
 15 16  1  0  0  0
 16 17  1  0  0  0
 17 18  1  0  0  0
 18 19  1  0  0  0
 19 20  1  0  0  0
  7  2  1  0  0  0
 18  9  1  0  0  0
 20  4  1  0  0  0
 15 10  2  0  0  0
  1 21  1  0  0  0
  8 22  1  0  0  0
 17 23  1  0  0  0
M  END
> <minimizedAffinity>
-6.36851

> <CNNscore>
0.3000193834

> <CNNaffinity>
7.1808471680

> <CNN_VS>
2.1543934345

> <CNNaffinity_variance>
1.3034746647

$$$$
[H]Oc1c([H])c2c(c([H])c1O[H])[C@]1([H])c3c(sc(Cl)c3[H])C([H])([H])N([H])[C@@]1([H])C([H])([H])C2([H])[H]


 23 26  0  0  0  0  0  0  0  0999 V2000
    9.0492   50.9763  131.1996 O   0  0  0  0  0  0  0  0  0  0  0  0
    9.2249   49.6204  131.4033 C   0  0  0  0  0  0  0  0  0  0  0  0
    9.8160   49.2160  132.5885 C   0  0  0  0  0  0  0  0  0  0  0  0
    9.9953   47.8873  132.8021 C   0  0  0  0  0  0  0  0  0  0  0  0
    9.5897   46.9472  131.8394 C   0  0  0  0  0  0  0  0  0  0  0  0
    9.0076   47.3587  130.6768 C   0  0  0  0  0  0  0  0  0  0  0  0
    8.8165   48.7267  130.4435 C   0  0  0  0  0  0  0  0  0  0  0  0
    8.2320   49.2017  129.2816 O   0  0  0  0  0  0  0  0  0  0  0  0
    9.8733   45.5592  132.2557 C   0  0  0  0  0  0  0  0  0  0  0  0
    9.6268   44.5103  131.2398 C   0  0  0  0  0  0  0  0  0  0  0  0
   10.0411   44.5388  129.9373 C   0  0  0  0  0  0  0  0  0  0  0  0
    9.7180   43.4716  129.1626 C   0  0  0  0  0  0  0  0  0  0  0  0
   10.1013   43.2133  127.4650 Cl  0  0  0  0  0  0  0  0  0  0  0  0
    8.8591   42.4549  130.2247 S   0  0  0  0  0  0  0  0  0  0  0  0
    8.9293   43.4052  131.6271 C   0  0  0  0  0  0  0  0  0  0  0  0
    8.4167   43.1805  133.0146 C   0  0  0  0  0  0  0  0  0  0  0  0
    9.2557   43.9565  133.9220 N   0  0  0  0  0  0  0  0  0  0  0  0
    9.1387   45.3384  133.5237 C   0  0  0  0  0  0  0  0  0  0  0  0
    9.6490   46.2760  134.6028 C   0  0  0  0  0  0  0  0  0  0  0  0
   10.5957   47.3321  134.0521 C   0  0  0  0  0  0  0  0  0  0  0  0
    9.3377   51.6607  131.8842 H   0  0  0  0  0  0  0  0  0  0  0  0
    7.9086   48.6230  128.5371 H   0  0  0  0  0  0  0  0  0  0  0  0
    8.9412   43.7660  134.8870 H   0  0  0  0  0  0  0  0  0  0  0  0
  1  2  1  0  0  0
  2  3  2  0  0  0
  3  4  1  0  0  0
  4  5  2  0  0  0
  5  6  1  0  0  0
  6  7  2  0  0  0
  7  8  1  0  0  0
  5  9  1  0  0  0
  9 10  1  0  0  0
 10 11  1  0  0  0
 11 12  2  0  0  0
 12 13  1  0  0  0
 12 14  1  0  0  0
 14 15  1  0  0  0
 15 16  1  0  0  0
 16 17  1  0  0  0
 17 18  1  0  0  0
 18 19  1  0  0  0
 19 20  1  0  0  0
  7  2  1  0  0  0
 18  9  1  0  0  0
 20  4  1  0  0  0
 15 10  2  0  0  0
  1 21  1  0  0  0
  8 22  1  0  0  0
 17 23  1  0  0  0
M  END
> <minimizedAffinity>
-7.87722

> <CNNscore>
0.2880975306

> <CNNaffinity>
6.9481000900

> <CNN_VS>
2.0017304420

> <CNNaffinity_variance>
0.3558531404

$$$$
[H]Oc1c([H])c2c(c([H])c1O[H])[C@]1([H])c3c(sc(Cl)c3[H])C([H])([H])N([H])[C@@]1([H])C([H])([H])C2([H])[H]


 23 26  0  0  0  0  0  0  0  0999 V2000
    8.0418   49.1474  129.0290 O   0  0  0  0  0  0  0  0  0  0  0  0
    8.5988   47.9524  129.4441 C   0  0  0  0  0  0  0  0  0  0  0  0
    9.5135   47.3394  128.6043 C   0  0  0  0  0  0  0  0  0  0  0  0
   10.0686   46.1649  128.9987 C   0  0  0  0  0  0  0  0  0  0  0  0
    9.7194   45.5872  130.2313 C   0  0  0  0  0  0  0  0  0  0  0  0
    8.8180   46.2018  131.0496 C   0  0  0  0  0  0  0  0  0  0  0  0
    8.2377   47.4142  130.6551 C   0  0  0  0  0  0  0  0  0  0  0  0
    7.3167   48.0819  131.4446 O   0  0  0  0  0  0  0  0  0  0  0  0
   10.4263   44.3139  130.4751 C   0  0  0  0  0  0  0  0  0  0  0  0
   10.0048   43.5530  131.6736 C   0  0  0  0  0  0  0  0  0  0  0  0
    8.7170   43.2721  132.0362 C   0  0  0  0  0  0  0  0  0  0  0  0
    8.5383   42.5525  133.1737 C   0  0  0  0  0  0  0  0  0  0  0  0
    7.0204   42.0366  133.8986 Cl  0  0  0  0  0  0  0  0  0  0  0  0
   10.1263   42.2749  133.7220 S   0  0  0  0  0  0  0  0  0  0  0  0
   10.9811   43.0768  132.4968 C   0  0  0  0  0  0  0  0  0  0  0  0
   12.4461   43.2591  132.2538 C   0  0  0  0  0  0  0  0  0  0  0  0
   12.6311   43.4495  130.8189 N   0  0  0  0  0  0  0  0  0  0  0  0
   11.8756   44.6222  130.4501 C   0  0  0  0  0  0  0  0  0  0  0  0
   12.2838   45.1429  129.0839 C   0  0  0  0  0  0  0  0  0  0  0  0
   11.0855   45.4270  128.1907 C   0  0  0  0  0  0  0  0  0  0  0  0
    8.2847   49.5711  128.1449 H   0  0  0  0  0  0  0  0  0  0  0  0
    7.0010   47.7615  132.3343 H   0  0  0  0  0  0  0  0  0  0  0  0
   13.6447   43.5242  130.6362 H   0  0  0  0  0  0  0  0  0  0  0  0
  1  2  1  0  0  0
  2  3  2  0  0  0
  3  4  1  0  0  0
  4  5  2  0  0  0
  5  6  1  0  0  0
  6  7  2  0  0  0
  7  8  1  0  0  0
  5  9  1  0  0  0
  9 10  1  0  0  0
 10 11  1  0  0  0
 11 12  2  0  0  0
 12 13  1  0  0  0
 12 14  1  0  0  0
 14 15  1  0  0  0
 15 16  1  0  0  0
 16 17  1  0  0  0
 17 18  1  0  0  0
 18 19  1  0  0  0
 19 20  1  0  0  0
  7  2  1  0  0  0
 18  9  1  0  0  0
 20  4  1  0  0  0
 15 10  2  0  0  0
  1 21  1  0  0  0
  8 22  1  0  0  0
 17 23  1  0  0  0
M  END
> <minimizedAffinity>
-1.97825

> <CNNscore>
0.2609114051

> <CNNaffinity>
6.5784263611

> <CNN_VS>
1.7163864374

> <CNNaffinity_variance>
0.8723352551

$$$$
[H]Oc1c([H])c2c(c([H])c1O[H])[C@]1([H])c3c(sc(Cl)c3[H])C([H])([H])N([H])[C@@]1([H])C([H])([H])C2([H])[H]


 23 26  0  0  0  0  0  0  0  0999 V2000
   11.5063   43.3664  136.3063 O   0  0  0  0  0  0  0  0  0  0  0  0
   11.1941   43.5516  134.9726 C   0  0  0  0  0  0  0  0  0  0  0  0
    9.9700   43.0845  134.5243 C   0  0  0  0  0  0  0  0  0  0  0  0
    9.6499   43.2591  133.2165 C   0  0  0  0  0  0  0  0  0  0  0  0
   10.5437   43.8989  132.3409 C   0  0  0  0  0  0  0  0  0  0  0  0
   11.7457   44.3554  132.7954 C   0  0  0  0  0  0  0  0  0  0  0  0
   12.0887   44.1820  134.1425 C   0  0  0  0  0  0  0  0  0  0  0  0
   13.2950   44.6242  134.6588 O   0  0  0  0  0  0  0  0  0  0  0  0
   10.0150   43.9879  130.9650 C   0  0  0  0  0  0  0  0  0  0  0  0
   10.9503   44.5029  129.9389 C   0  0  0  0  0  0  0  0  0  0  0  0
   12.2430   44.0985  129.7534 C   0  0  0  0  0  0  0  0  0  0  0  0
   12.9380   44.6916  128.7491 C   0  0  0  0  0  0  0  0  0  0  0  0
   14.6027   44.3932  128.2641 Cl  0  0  0  0  0  0  0  0  0  0  0  0
   11.8162   45.7845  128.0809 S   0  0  0  0  0  0  0  0  0  0  0  0
   10.4912   45.4647  129.0893 C   0  0  0  0  0  0  0  0  0  0  0  0
    9.1003   46.0151  129.1185 C   0  0  0  0  0  0  0  0  0  0  0  0
    8.2406   45.0001  129.7186 N   0  0  0  0  0  0  0  0  0  0  0  0
    8.7478   44.7519  131.0464 C   0  0  0  0  0  0  0  0  0  0  0  0
    7.7357   44.0114  131.9017 C   0  0  0  0  0  0  0  0  0  0  0  0
    8.3492   42.8223  132.6259 C   0  0  0  0  0  0  0  0  0  0  0  0
   10.8720   42.9071  136.9443 H   0  0  0  0  0  0  0  0  0  0  0  0
   13.9980   45.0896  134.1268 H   0  0  0  0  0  0  0  0  0  0  0  0
    7.2698   45.3514  129.6951 H   0  0  0  0  0  0  0  0  0  0  0  0
  1  2  1  0  0  0
  2  3  2  0  0  0
  3  4  1  0  0  0
  4  5  2  0  0  0
  5  6  1  0  0  0
  6  7  2  0  0  0
  7  8  1  0  0  0
  5  9  1  0  0  0
  9 10  1  0  0  0
 10 11  1  0  0  0
 11 12  2  0  0  0
 12 13  1  0  0  0
 12 14  1  0  0  0
 14 15  1  0  0  0
 15 16  1  0  0  0
 16 17  1  0  0  0
 17 18  1  0  0  0
 18 19  1  0  0  0
 19 20  1  0  0  0
  7  2  1  0  0  0
 18  9  1  0  0  0
 20  4  1  0  0  0
 15 10  2  0  0  0
  1 21  1  0  0  0
  8 22  1  0  0  0
 17 23  1  0  0  0
M  END
> <minimizedAffinity>
2.14734

> <CNNscore>
0.2415219545

> <CNNaffinity>
6.4841918945

> <CNN_VS>
1.5660747290

> <CNNaffinity_variance>
1.4150680304

$$$$
[H]Oc1c([H])c2c(c([H])c1O[H])[C@]1([H])c3c(sc(Cl)c3[H])C([H])([H])N([H])[C@@]1([H])C([H])([H])C2([H])[H]


 23 26  0  0  0  0  0  0  0  0999 V2000
   11.5319   43.2785  135.0594 O   0  0  0  0  0  0  0  0  0  0  0  0
   11.0181   43.9894  133.9910 C   0  0  0  0  0  0  0  0  0  0  0  0
   11.1677   43.4505  132.7242 C   0  0  0  0  0  0  0  0  0  0  0  0
   10.6684   44.1377  131.6651 C   0  0  0  0  0  0  0  0  0  0  0  0
   10.0161   45.3680  131.8545 C   0  0  0  0  0  0  0  0  0  0  0  0
    9.8744   45.8872  133.1075 C   0  0  0  0  0  0  0  0  0  0  0  0
   10.3847   45.1885  134.2092 C   0  0  0  0  0  0  0  0  0  0  0  0
   10.2706   45.6677  135.5033 O   0  0  0  0  0  0  0  0  0  0  0  0
    9.5499   45.9578  130.5836 C   0  0  0  0  0  0  0  0  0  0  0  0
    8.9928   47.3275  130.6658 C   0  0  0  0  0  0  0  0  0  0  0  0
    9.5592   48.3885  131.3157 C   0  0  0  0  0  0  0  0  0  0  0  0
    8.8913   49.5697  131.2692 C   0  0  0  0  0  0  0  0  0  0  0  0
    9.3544   51.1023  131.9988 Cl  0  0  0  0  0  0  0  0  0  0  0  0
    7.5095   49.2087  130.3420 S   0  0  0  0  0  0  0  0  0  0  0  0
    7.8096   47.5687  130.0337 C   0  0  0  0  0  0  0  0  0  0  0  0
    7.0530   46.5433  129.2499 C   0  0  0  0  0  0  0  0  0  0  0  0
    8.0136   45.5429  128.7963 N   0  0  0  0  0  0  0  0  0  0  0  0
    8.6194   44.9767  129.9771 C   0  0  0  0  0  0  0  0  0  0  0  0
    9.3445   43.6799  129.6660 C   0  0  0  0  0  0  0  0  0  0  0  0
   10.7457   43.6436  130.2576 C   0  0  0  0  0  0  0  0  0  0  0  0
   12.0033   42.3939  134.9348 H   0  0  0  0  0  0  0  0  0  0  0  0
    9.8273   46.5263  135.7484 H   0  0  0  0  0  0  0  0  0  0  0  0
    7.5079   44.8591  128.2106 H   0  0  0  0  0  0  0  0  0  0  0  0
  1  2  1  0  0  0
  2  3  2  0  0  0
  3  4  1  0  0  0
  4  5  2  0  0  0
  5  6  1  0  0  0
  6  7  2  0  0  0
  7  8  1  0  0  0
  5  9  1  0  0  0
  9 10  1  0  0  0
 10 11  1  0  0  0
 11 12  2  0  0  0
 12 13  1  0  0  0
 12 14  1  0  0  0
 14 15  1  0  0  0
 15 16  1  0  0  0
 16 17  1  0  0  0
 17 18  1  0  0  0
 18 19  1  0  0  0
 19 20  1  0  0  0
  7  2  1  0  0  0
 18  9  1  0  0  0
 20  4  1  0  0  0
 15 10  2  0  0  0
  1 21  1  0  0  0
  8 22  1  0  0  0
 17 23  1  0  0  0
M  END
> <minimizedAffinity>
-6.32285

> <CNNscore>
0.1383638829

> <CNNaffinity>
7.0240845680

> <CNN_VS>
0.9718796015

> <CNNaffinity_variance>
0.5940893888

$$$$
[H]Oc1c([H])c2c(c([H])c1O[H])[C@]1([H])c3c(sc(Cl)c3[H])C([H])([H])N([H])[C@@]1([H])C([H])([H])C2([H])[H]


 23 26  0  0  0  0  0  0  0  0999 V2000
   12.9309   42.7206  132.8759 O   0  0  0  0  0  0  0  0  0  0  0  0
   12.0985   43.6018  132.2116 C   0  0  0  0  0  0  0  0  0  0  0  0
   11.8360   43.3593  130.8737 C   0  0  0  0  0  0  0  0  0  0  0  0
   11.0204   44.2167  130.2082 C   0  0  0  0  0  0  0  0  0  0  0  0
   10.4582   45.3243  130.8655 C   0  0  0  0  0  0  0  0  0  0  0  0
   10.7238   45.5511  132.1837 C   0  0  0  0  0  0  0  0  0  0  0  0
   11.5636   44.6743  132.8826 C   0  0  0  0  0  0  0  0  0  0  0  0
   11.8687   44.8556  134.2210 O   0  0  0  0  0  0  0  0  0  0  0  0
    9.6064   46.1345  129.9720 C   0  0  0  0  0  0  0  0  0  0  0  0
    9.0994   47.4081  130.5325 C   0  0  0  0  0  0  0  0  0  0  0  0
    9.8399   48.3460  131.1966 C   0  0  0  0  0  0  0  0  0  0  0  0
    9.1874   49.4550  131.6300 C   0  0  0  0  0  0  0  0  0  0  0  0
    9.8537   50.8270  132.5070 Cl  0  0  0  0  0  0  0  0  0  0  0  0
    7.5827   49.1956  131.1231 S   0  0  0  0  0  0  0  0  0  0  0  0
    7.7750   47.6873  130.3727 C   0  0  0  0  0  0  0  0  0  0  0  0
    6.8112   46.7982  129.6523 C   0  0  0  0  0  0  0  0  0  0  0  0
    7.5797   45.9947  128.7074 N   0  0  0  0  0  0  0  0  0  0  0  0
    8.5347   45.2373  129.4796 C   0  0  0  0  0  0  0  0  0  0  0  0
    9.1271   44.0965  128.6721 C   0  0  0  0  0  0  0  0  0  0  0  0
   10.6441   44.0423  128.7731 C   0  0  0  0  0  0  0  0  0  0  0  0
   13.3411   41.9219  132.4132 H   0  0  0  0  0  0  0  0  0  0  0  0
   11.5238   45.6054  134.7802 H   0  0  0  0  0  0  0  0  0  0  0  0
    6.9157   45.4151  128.1692 H   0  0  0  0  0  0  0  0  0  0  0  0
  1  2  1  0  0  0
  2  3  2  0  0  0
  3  4  1  0  0  0
  4  5  2  0  0  0
  5  6  1  0  0  0
  6  7  2  0  0  0
  7  8  1  0  0  0
  5  9  1  0  0  0
  9 10  1  0  0  0
 10 11  1  0  0  0
 11 12  2  0  0  0
 12 13  1  0  0  0
 12 14  1  0  0  0
 14 15  1  0  0  0
 15 16  1  0  0  0
 16 17  1  0  0  0
 17 18  1  0  0  0
 18 19  1  0  0  0
 19 20  1  0  0  0
  7  2  1  0  0  0
 18  9  1  0  0  0
 20  4  1  0  0  0
 15 10  2  0  0  0
  1 21  1  0  0  0
  8 22  1  0  0  0
 17 23  1  0  0  0
M  END
> <minimizedAffinity>
-7.50530

> <CNNscore>
0.1174638569

> <CNNaffinity>
6.7489614487

> <CNN_VS>
0.7927590609

> <CNNaffinity_variance>
0.4099368155

$$$$
[H]Oc1c([H])c2c(c([H])c1O[H])[C@]1([H])c3c(sc(Cl)c3[H])C([H])([H])N([H])[C@@]1([H])C([H])([H])C2([H])[H]


 23 26  0  0  0  0  0  0  0  0999 V2000
   11.0878   41.7934  131.9177 O   0  0  0  0  0  0  0  0  0  0  0  0
   10.5759   43.0767  131.9598 C   0  0  0  0  0  0  0  0  0  0  0  0
   10.5939   43.7403  133.1751 C   0  0  0  0  0  0  0  0  0  0  0  0
   10.0940   45.0013  133.2317 C   0  0  0  0  0  0  0  0  0  0  0  0
    9.5703   45.6151  132.0811 C   0  0  0  0  0  0  0  0  0  0  0  0
    9.5595   44.9510  130.8901 C   0  0  0  0  0  0  0  0  0  0  0  0
   10.0723   43.6494  130.8174 C   0  0  0  0  0  0  0  0  0  0  0  0
   10.0864   42.9275  129.6359 O   0  0  0  0  0  0  0  0  0  0  0  0
    9.0744   46.9799  132.3491 C   0  0  0  0  0  0  0  0  0  0  0  0
    8.3609   47.6451  131.2349 C   0  0  0  0  0  0  0  0  0  0  0  0
    7.3690   47.0943  130.4722 C   0  0  0  0  0  0  0  0  0  0  0  0
    6.8344   47.8735  129.4971 C   0  0  0  0  0  0  0  0  0  0  0  0
    5.5578   47.4575  128.3601 Cl  0  0  0  0  0  0  0  0  0  0  0  0
    7.6934   49.3365  129.6419 S   0  0  0  0  0  0  0  0  0  0  0  0
    8.7105   48.9280  130.9354 C   0  0  0  0  0  0  0  0  0  0  0  0
    9.7532   49.7072  131.6731 C   0  0  0  0  0  0  0  0  0  0  0  0
    9.8539   49.1423  133.0147 N   0  0  0  0  0  0  0  0  0  0  0  0
   10.2280   47.7573  132.8602 C   0  0  0  0  0  0  0  0  0  0  0  0
   10.7307   47.1654  134.1645 C   0  0  0  0  0  0  0  0  0  0  0  0
   10.0852   45.8240  134.4785 C   0  0  0  0  0  0  0  0  0  0  0  0
   11.4659   41.3423  132.7386 H   0  0  0  0  0  0  0  0  0  0  0  0
    9.7416   43.2677  128.7645 H   0  0  0  0  0  0  0  0  0  0  0  0
   10.5344   49.7076  133.5474 H   0  0  0  0  0  0  0  0  0  0  0  0
  1  2  1  0  0  0
  2  3  2  0  0  0
  3  4  1  0  0  0
  4  5  2  0  0  0
  5  6  1  0  0  0
  6  7  2  0  0  0
  7  8  1  0  0  0
  5  9  1  0  0  0
  9 10  1  0  0  0
 10 11  1  0  0  0
 11 12  2  0  0  0
 12 13  1  0  0  0
 12 14  1  0  0  0
 14 15  1  0  0  0
 15 16  1  0  0  0
 16 17  1  0  0  0
 17 18  1  0  0  0
 18 19  1  0  0  0
 19 20  1  0  0  0
  7  2  1  0  0  0
 18  9  1  0  0  0
 20  4  1  0  0  0
 15 10  2  0  0  0
  1 21  1  0  0  0
  8 22  1  0  0  0
 17 23  1  0  0  0
M  END
> <minimizedAffinity>
-8.42316

> <CNNscore>
0.1153582409

> <CNNaffinity>
6.7711286545

> <CNN_VS>
0.7811055183

> <CNNaffinity_variance>
0.1520535350

$$$$
[H]c1c(-c2c([H])c([H])c([H])c(C([H])([H])n3nc(-c4c([H])c(F)c([H])c(F)c4[H])c([H])c([H])c3=O)c2[H])nnc(C([H])([H])[H])c1[H]


 29 32  0  0  0  0  0  0  0  0999 V2000
    7.2795   48.8678  130.1434 N   0  0  0  0  0  0  0  0  0  0  0  0
    7.8308   47.6579  130.1762 N   0  0  0  0  0  0  0  0  0  0  0  0
    7.3255   46.5757  129.5523 C   0  0  0  0  0  0  0  0  0  0  0  0
    6.1588   46.7264  128.8301 C   0  0  0  0  0  0  0  0  0  0  0  0
    5.5544   47.9690  128.7716 C   0  0  0  0  0  0  0  0  0  0  0  0
    6.1446   49.0347  129.4466 C   0  0  0  0  0  0  0  0  0  0  0  0
    5.6506   50.1756  129.4337 O   0  0  0  0  0  0  0  0  0  0  0  0
    8.0183   45.2845  129.6555 C   0  0  0  0  0  0  0  0  0  0  0  0
    8.7051   44.6907  128.6347 C   0  0  0  0  0  0  0  0  0  0  0  0
    9.3422   43.4613  128.7985 C   0  0  0  0  0  0  0  0  0  0  0  0
   10.0131   42.8953  127.7784 F   0  0  0  0  0  0  0  0  0  0  0  0
    9.3013   42.7984  130.0026 C   0  0  0  0  0  0  0  0  0  0  0  0
    8.6111   43.3893  131.0378 C   0  0  0  0  0  0  0  0  0  0  0  0
    8.5687   42.7400  132.2239 F   0  0  0  0  0  0  0  0  0  0  0  0
    7.9858   44.6055  130.8613 C   0  0  0  0  0  0  0  0  0  0  0  0
    7.9464   49.9130  130.8550 C   0  0  0  0  0  0  0  0  0  0  0  0
   10.3301   47.7828  132.8181 C   0  0  0  0  0  0  0  0  0  0  0  0
   10.8047   48.7566  133.6814 C   0  0  0  0  0  0  0  0  0  0  0  0
   10.3812   50.0594  133.6477 C   0  0  0  0  0  0  0  0  0  0  0  0
    9.4425   50.4389  132.7222 C   0  0  0  0  0  0  0  0  0  0  0  0
    8.9388   49.5203  131.8446 C   0  0  0  0  0  0  0  0  0  0  0  0
    9.3880   48.2230  131.9092 C   0  0  0  0  0  0  0  0  0  0  0  0
   12.3907   42.4691  132.7889 C   0  0  0  0  0  0  0  0  0  0  0  0
   11.8279   43.8651  132.8510 C   0  0  0  0  0  0  0  0  0  0  0  0
   11.2016   44.3293  133.9860 C   0  0  0  0  0  0  0  0  0  0  0  0
   10.6869   45.6279  134.0213 C   0  0  0  0  0  0  0  0  0  0  0  0
   10.8208   46.4195  132.9069 C   0  0  0  0  0  0  0  0  0  0  0  0
   11.4412   45.9006  131.8404 N   0  0  0  0  0  0  0  0  0  0  0  0
   11.9284   44.6771  131.8015 N   0  0  0  0  0  0  0  0  0  0  0  0
 23 24  1  0  0  0
 24 25  2  0  0  0
 25 26  1  0  0  0
 26 27  2  0  0  0
 27 17  1  0  0  0
 17 18  2  0  0  0
 18 19  1  0  0  0
 19 20  2  0  0  0
 20 21  1  0  0  0
 21 16  1  0  0  0
 16  1  1  0  0  0
  1  2  1  0  0  0
  2  3  2  0  0  0
  3  8  1  0  0  0
  8  9  2  0  0  0
  9 10  1  0  0  0
 10 11  1  0  0  0
 10 12  2  0  0  0
 12 13  1  0  0  0
 13 14  1  0  0  0
 13 15  2  0  0  0
  3  4  1  0  0  0
  4  5  2  0  0  0
  5  6  1  0  0  0
  6  7  2  0  0  0
 21 22  2  0  0  0
 27 28  1  0  0  0
 28 29  2  0  0  0
 29 24  1  0  0  0
 22 17  1  0  0  0
  6  1  1  0  0  0
 15  8  1  0  0  0
M  END
> <minimizedAffinity>
-6.43424

> <CNNscore>
0.5871174932

> <CNNaffinity>
8.0499668121

> <CNN_VS>
4.7262763977

> <CNNaffinity_variance>
0.5793293715

$$$$
[H]c1c(-c2c([H])c([H])c([H])c(C([H])([H])n3nc(-c4c([H])c(F)c([H])c(F)c4[H])c([H])c([H])c3=O)c2[H])nnc(C([H])([H])[H])c1[H]


 29 32  0  0  0  0  0  0  0  0999 V2000
   10.4435   48.1776  131.8463 N   0  0  0  0  0  0  0  0  0  0  0  0
   10.3943   49.4095  132.3450 N   0  0  0  0  0  0  0  0  0  0  0  0
   10.6194   49.7151  133.6380 C   0  0  0  0  0  0  0  0  0  0  0  0
   10.9211   48.6860  134.5070 C   0  0  0  0  0  0  0  0  0  0  0  0
   10.9817   47.3904  134.0271 C   0  0  0  0  0  0  0  0  0  0  0  0
   10.7351   47.1632  132.6753 C   0  0  0  0  0  0  0  0  0  0  0  0
   10.7736   46.0224  132.1828 O   0  0  0  0  0  0  0  0  0  0  0  0
   10.5388   51.1132  134.0816 C   0  0  0  0  0  0  0  0  0  0  0  0
   11.5968   51.9769  134.1153 C   0  0  0  0  0  0  0  0  0  0  0  0
   11.4530   53.2945  134.5482 C   0  0  0  0  0  0  0  0  0  0  0  0
   12.5097   54.1274  134.5726 F   0  0  0  0  0  0  0  0  0  0  0  0
   10.2318   53.7745  134.9596 C   0  0  0  0  0  0  0  0  0  0  0  0
    9.1591   52.9109  134.9293 C   0  0  0  0  0  0  0  0  0  0  0  0
    7.9562   53.3797  135.3334 F   0  0  0  0  0  0  0  0  0  0  0  0
    9.3163   51.6105  134.4987 C   0  0  0  0  0  0  0  0  0  0  0  0
   10.1853   48.0240  130.4486 C   0  0  0  0  0  0  0  0  0  0  0  0
    9.0198   44.4587  130.3876 C   0  0  0  0  0  0  0  0  0  0  0  0
    9.3661   44.1571  129.0809 C   0  0  0  0  0  0  0  0  0  0  0  0
    9.9572   45.0583  128.2346 C   0  0  0  0  0  0  0  0  0  0  0  0
   10.2278   46.3262  128.6832 C   0  0  0  0  0  0  0  0  0  0  0  0
    9.9076   46.6801  129.9638 C   0  0  0  0  0  0  0  0  0  0  0  0
    9.3158   45.7485  130.7829 C   0  0  0  0  0  0  0  0  0  0  0  0
    6.6871   40.7410  134.0236 C   0  0  0  0  0  0  0  0  0  0  0  0
    7.2853   41.6905  133.0186 C   0  0  0  0  0  0  0  0  0  0  0  0
    7.1854   41.4504  131.6665 C   0  0  0  0  0  0  0  0  0  0  0  0
    7.7480   42.3449  130.7522 C   0  0  0  0  0  0  0  0  0  0  0  0
    8.3955   43.4568  131.2326 C   0  0  0  0  0  0  0  0  0  0  0  0
    8.4529   43.6244  132.5593 N   0  0  0  0  0  0  0  0  0  0  0  0
    7.9245   42.7845  133.4259 N   0  0  0  0  0  0  0  0  0  0  0  0
 23 24  1  0  0  0
 24 25  2  0  0  0
 25 26  1  0  0  0
 26 27  2  0  0  0
 27 17  1  0  0  0
 17 18  2  0  0  0
 18 19  1  0  0  0
 19 20  2  0  0  0
 20 21  1  0  0  0
 21 16  1  0  0  0
 16  1  1  0  0  0
  1  2  1  0  0  0
  2  3  2  0  0  0
  3  8  1  0  0  0
  8  9  2  0  0  0
  9 10  1  0  0  0
 10 11  1  0  0  0
 10 12  2  0  0  0
 12 13  1  0  0  0
 13 14  1  0  0  0
 13 15  2  0  0  0
  3  4  1  0  0  0
  4  5  2  0  0  0
  5  6  1  0  0  0
  6  7  2  0  0  0
 21 22  2  0  0  0
 27 28  1  0  0  0
 28 29  2  0  0  0
 29 24  1  0  0  0
 22 17  1  0  0  0
  6  1  1  0  0  0
 15  8  1  0  0  0
M  END
> <minimizedAffinity>
30.00027

> <CNNscore>
0.5173125267

> <CNNaffinity>
6.8649568558

> <CNN_VS>
3.5513281822

> <CNNaffinity_variance>
1.1442703009

$$$$
[H]c1c(-c2c([H])c([H])c([H])c(C([H])([H])n3nc(-c4c([H])c(F)c([H])c(F)c4[H])c([H])c([H])c3=O)c2[H])nnc(C([H])([H])[H])c1[H]


 29 32  0  0  0  0  0  0  0  0999 V2000
   11.0434   43.4352  132.1852 N   0  0  0  0  0  0  0  0  0  0  0  0
   10.4383   44.5872  132.4599 N   0  0  0  0  0  0  0  0  0  0  0  0
   10.8258   45.4358  133.4323 C   0  0  0  0  0  0  0  0  0  0  0  0
   11.9222   45.0921  134.1973 C   0  0  0  0  0  0  0  0  0  0  0  0
   12.5790   43.9019  133.9429 C   0  0  0  0  0  0  0  0  0  0  0  0
   12.1113   43.0831  132.9179 C   0  0  0  0  0  0  0  0  0  0  0  0
   12.6569   42.0011  132.6401 O   0  0  0  0  0  0  0  0  0  0  0  0
   10.0829   46.6843  133.6494 C   0  0  0  0  0  0  0  0  0  0  0  0
    9.1546   46.8716  134.6340 C   0  0  0  0  0  0  0  0  0  0  0  0
    8.4832   48.0841  134.7865 C   0  0  0  0  0  0  0  0  0  0  0  0
    7.5726   48.2456  135.7641 F   0  0  0  0  0  0  0  0  0  0  0  0
    8.7339   49.1421  133.9445 C   0  0  0  0  0  0  0  0  0  0  0  0
    9.6683   48.9627  132.9485 C   0  0  0  0  0  0  0  0  0  0  0  0
    9.9174   50.0013  132.1183 F   0  0  0  0  0  0  0  0  0  0  0  0
   10.3245   47.7579  132.8098 C   0  0  0  0  0  0  0  0  0  0  0  0
   10.5099   42.6519  131.1149 C   0  0  0  0  0  0  0  0  0  0  0  0
    8.7947   45.3383  129.1363 C   0  0  0  0  0  0  0  0  0  0  0  0
    8.8499   44.7357  127.8903 C   0  0  0  0  0  0  0  0  0  0  0  0
    9.4150   43.5057  127.6767 C   0  0  0  0  0  0  0  0  0  0  0  0
    9.9580   42.8209  128.7341 C   0  0  0  0  0  0  0  0  0  0  0  0
    9.9321   43.3671  129.9867 C   0  0  0  0  0  0  0  0  0  0  0  0
    9.3565   44.6029  130.1615 C   0  0  0  0  0  0  0  0  0  0  0  0
    6.7569   50.6215  129.7825 C   0  0  0  0  0  0  0  0  0  0  0  0
    7.2410   49.2056  129.6084 C   0  0  0  0  0  0  0  0  0  0  0  0
    6.3530   48.1636  129.4620 C   0  0  0  0  0  0  0  0  0  0  0  0
    6.8245   46.8580  129.3019 C   0  0  0  0  0  0  0  0  0  0  0  0
    8.1813   46.6445  129.2945 C   0  0  0  0  0  0  0  0  0  0  0  0
    8.9836   47.7056  129.4420 N   0  0  0  0  0  0  0  0  0  0  0  0
    8.5447   48.9386  129.5934 N   0  0  0  0  0  0  0  0  0  0  0  0
 23 24  1  0  0  0
 24 25  2  0  0  0
 25 26  1  0  0  0
 26 27  2  0  0  0
 27 17  1  0  0  0
 17 18  2  0  0  0
 18 19  1  0  0  0
 19 20  2  0  0  0
 20 21  1  0  0  0
 21 16  1  0  0  0
 16  1  1  0  0  0
  1  2  1  0  0  0
  2  3  2  0  0  0
  3  8  1  0  0  0
  8  9  2  0  0  0
  9 10  1  0  0  0
 10 11  1  0  0  0
 10 12  2  0  0  0
 12 13  1  0  0  0
 13 14  1  0  0  0
 13 15  2  0  0  0
  3  4  1  0  0  0
  4  5  2  0  0  0
  5  6  1  0  0  0
  6  7  2  0  0  0
 21 22  2  0  0  0
 27 28  1  0  0  0
 28 29  2  0  0  0
 29 24  1  0  0  0
 22 17  1  0  0  0
  6  1  1  0  0  0
 15  8  1  0  0  0
M  END
> <minimizedAffinity>
-4.70948

> <CNNscore>
0.5124164224

> <CNNaffinity>
7.9859619141

> <CNN_VS>
4.0921378136

> <CNNaffinity_variance>
0.2779155374

$$$$
[H]c1c(-c2c([H])c([H])c([H])c(C([H])([H])n3nc(-c4c([H])c(F)c([H])c(F)c4[H])c([H])c([H])c3=O)c2[H])nnc(C([H])([H])[H])c1[H]


 29 32  0  0  0  0  0  0  0  0999 V2000
    8.1901   49.0906  130.4913 N   0  0  0  0  0  0  0  0  0  0  0  0
    8.6191   47.8571  130.2401 N   0  0  0  0  0  0  0  0  0  0  0  0
    8.1820   47.0940  129.2191 C   0  0  0  0  0  0  0  0  0  0  0  0
    7.2259   47.6219  128.3750 C   0  0  0  0  0  0  0  0  0  0  0  0
    6.7539   48.9017  128.6027 C   0  0  0  0  0  0  0  0  0  0  0  0
    7.2605   49.6216  129.6821 C   0  0  0  0  0  0  0  0  0  0  0  0
    6.8770   50.7757  129.9405 O   0  0  0  0  0  0  0  0  0  0  0  0
    8.7257   45.7419  129.0343 C   0  0  0  0  0  0  0  0  0  0  0  0
    9.7462   45.4277  128.1821 C   0  0  0  0  0  0  0  0  0  0  0  0
   10.2167   44.1215  128.0531 C   0  0  0  0  0  0  0  0  0  0  0  0
   11.2234   43.8356  127.2072 F   0  0  0  0  0  0  0  0  0  0  0  0
    9.6656   43.0958  128.7847 C   0  0  0  0  0  0  0  0  0  0  0  0
    8.6359   43.4029  129.6466 C   0  0  0  0  0  0  0  0  0  0  0  0
    8.0914   42.3964  130.3680 F   0  0  0  0  0  0  0  0  0  0  0  0
    8.1811   44.6993  129.7638 C   0  0  0  0  0  0  0  0  0  0  0  0
    8.7612   49.7690  131.6127 C   0  0  0  0  0  0  0  0  0  0  0  0
   10.6258   46.8587  133.0711 C   0  0  0  0  0  0  0  0  0  0  0  0
   11.1679   47.4998  134.1727 C   0  0  0  0  0  0  0  0  0  0  0  0
   10.9495   48.8233  134.4528 C   0  0  0  0  0  0  0  0  0  0  0  0
   10.1588   49.5676  133.6146 C   0  0  0  0  0  0  0  0  0  0  0  0
    9.5974   48.9875  132.5118 C   0  0  0  0  0  0  0  0  0  0  0  0
    9.8395   47.6574  132.2642 C   0  0  0  0  0  0  0  0  0  0  0  0
   11.3148   41.2602  132.2554 C   0  0  0  0  0  0  0  0  0  0  0  0
   11.1871   42.7482  132.4527 C   0  0  0  0  0  0  0  0  0  0  0  0
   12.2351   43.5954  132.1703 C   0  0  0  0  0  0  0  0  0  0  0  0
   12.0943   44.9725  132.3609 C   0  0  0  0  0  0  0  0  0  0  0  0
   10.8967   45.4527  132.8318 C   0  0  0  0  0  0  0  0  0  0  0  0
    9.9231   44.5696  133.0843 N   0  0  0  0  0  0  0  0  0  0  0  0
   10.0503   43.2704  132.9066 N   0  0  0  0  0  0  0  0  0  0  0  0
 23 24  1  0  0  0
 24 25  2  0  0  0
 25 26  1  0  0  0
 26 27  2  0  0  0
 27 17  1  0  0  0
 17 18  2  0  0  0
 18 19  1  0  0  0
 19 20  2  0  0  0
 20 21  1  0  0  0
 21 16  1  0  0  0
 16  1  1  0  0  0
  1  2  1  0  0  0
  2  3  2  0  0  0
  3  8  1  0  0  0
  8  9  2  0  0  0
  9 10  1  0  0  0
 10 11  1  0  0  0
 10 12  2  0  0  0
 12 13  1  0  0  0
 13 14  1  0  0  0
 13 15  2  0  0  0
  3  4  1  0  0  0
  4  5  2  0  0  0
  5  6  1  0  0  0
  6  7  2  0  0  0
 21 22  2  0  0  0
 27 28  1  0  0  0
 28 29  2  0  0  0
 29 24  1  0  0  0
 22 17  1  0  0  0
  6  1  1  0  0  0
 15  8  1  0  0  0
M  END
> <minimizedAffinity>
-5.55297

> <CNNscore>
0.5092951655

> <CNNaffinity>
7.9856271744

> <CNN_VS>
4.0670413971

> <CNNaffinity_variance>
0.5274468660

$$$$
[H]c1c(-c2c([H])c([H])c([H])c(C([H])([H])n3nc(-c4c([H])c(F)c([H])c(F)c4[H])c([H])c([H])c3=O)c2[H])nnc(C([H])([H])[H])c1[H]


 29 32  0  0  0  0  0  0  0  0999 V2000
    9.5876   45.4381  131.2434 N   0  0  0  0  0  0  0  0  0  0  0  0
    9.5957   44.1140  131.1185 N   0  0  0  0  0  0  0  0  0  0  0  0
   10.7039   43.3780  130.9041 C   0  0  0  0  0  0  0  0  0  0  0  0
   11.9135   44.0360  130.8065 C   0  0  0  0  0  0  0  0  0  0  0  0
   11.9471   45.4130  130.9307 C   0  0  0  0  0  0  0  0  0  0  0  0
   10.7536   46.0962  131.1514 C   0  0  0  0  0  0  0  0  0  0  0  0
   10.7167   47.3331  131.2711 O   0  0  0  0  0  0  0  0  0  0  0  0
   10.5975   41.9180  130.7816 C   0  0  0  0  0  0  0  0  0  0  0  0
    9.8170   41.2729  129.8645 C   0  0  0  0  0  0  0  0  0  0  0  0
    9.7605   39.8812  129.8006 C   0  0  0  0  0  0  0  0  0  0  0  0
    8.9844   39.2675  128.8884 F   0  0  0  0  0  0  0  0  0  0  0  0
   10.4939   39.1032  130.6654 C   0  0  0  0  0  0  0  0  0  0  0  0
   11.2838   39.7447  131.5938 C   0  0  0  0  0  0  0  0  0  0  0  0
   12.0067   38.9825  132.4461 F   0  0  0  0  0  0  0  0  0  0  0  0
   11.3298   41.1218  131.6452 C   0  0  0  0  0  0  0  0  0  0  0  0
    8.3255   46.0682  131.4748 C   0  0  0  0  0  0  0  0  0  0  0  0
    7.9795   49.7404  130.7902 C   0  0  0  0  0  0  0  0  0  0  0  0
    8.3085   50.2111  132.0507 C   0  0  0  0  0  0  0  0  0  0  0  0
    8.6349   49.3883  133.0967 C   0  0  0  0  0  0  0  0  0  0  0  0
    8.6425   48.0295  132.9080 C   0  0  0  0  0  0  0  0  0  0  0  0
    8.3259   47.5084  131.6849 C   0  0  0  0  0  0  0  0  0  0  0  0
    8.0039   48.3657  130.6600 C   0  0  0  0  0  0  0  0  0  0  0  0
    6.5901   53.6557  126.8885 C   0  0  0  0  0  0  0  0  0  0  0  0
    6.9665   52.5829  127.8768 C   0  0  0  0  0  0  0  0  0  0  0  0
    7.3237   51.3217  127.4555 C   0  0  0  0  0  0  0  0  0  0  0  0
    7.6691   50.3419  128.3901 C   0  0  0  0  0  0  0  0  0  0  0  0
    7.6430   50.6668  129.7243 C   0  0  0  0  0  0  0  0  0  0  0  0
    7.2858   51.9125  130.0593 N   0  0  0  0  0  0  0  0  0  0  0  0
    6.9592   52.8401  129.1825 N   0  0  0  0  0  0  0  0  0  0  0  0
 23 24  1  0  0  0
 24 25  2  0  0  0
 25 26  1  0  0  0
 26 27  2  0  0  0
 27 17  1  0  0  0
 17 18  2  0  0  0
 18 19  1  0  0  0
 19 20  2  0  0  0
 20 21  1  0  0  0
 21 16  1  0  0  0
 16  1  1  0  0  0
  1  2  1  0  0  0
  2  3  2  0  0  0
  3  8  1  0  0  0
  8  9  2  0  0  0
  9 10  1  0  0  0
 10 11  1  0  0  0
 10 12  2  0  0  0
 12 13  1  0  0  0
 13 14  1  0  0  0
 13 15  2  0  0  0
  3  4  1  0  0  0
  4  5  2  0  0  0
  5  6  1  0  0  0
  6  7  2  0  0  0
 21 22  2  0  0  0
 27 28  1  0  0  0
 28 29  2  0  0  0
 29 24  1  0  0  0
 22 17  1  0  0  0
  6  1  1  0  0  0
 15  8  1  0  0  0
M  END
> <minimizedAffinity>
22.07479

> <CNNscore>
0.4753680229

> <CNNaffinity>
7.2807288170

> <CNN_VS>
3.4610257149

> <CNNaffinity_variance>
2.9702830315

$$$$
[H]c1c(-c2c([H])c([H])c([H])c(C([H])([H])n3nc(-c4c([H])c(F)c([H])c(F)c4[H])c([H])c([H])c3=O)c2[H])nnc(C([H])([H])[H])c1[H]


 29 32  0  0  0  0  0  0  0  0999 V2000
    8.7332   44.2942  129.4617 N   0  0  0  0  0  0  0  0  0  0  0  0
    8.9469   44.5121  130.7561 N   0  0  0  0  0  0  0  0  0  0  0  0
   10.0304   44.0798  131.4305 C   0  0  0  0  0  0  0  0  0  0  0  0
   10.9850   43.3627  130.7377 C   0  0  0  0  0  0  0  0  0  0  0  0
   10.7995   43.1149  129.3898 C   0  0  0  0  0  0  0  0  0  0  0  0
    9.6497   43.5988  128.7705 C   0  0  0  0  0  0  0  0  0  0  0  0
    9.4242   43.4091  127.5627 O   0  0  0  0  0  0  0  0  0  0  0  0
   10.1651   44.3781  132.8626 C   0  0  0  0  0  0  0  0  0  0  0  0
   10.9385   43.6633  133.7328 C   0  0  0  0  0  0  0  0  0  0  0  0
   11.0232   43.9995  135.0834 C   0  0  0  0  0  0  0  0  0  0  0  0
   11.7918   43.2808  135.9221 F   0  0  0  0  0  0  0  0  0  0  0  0
   10.3257   45.0706  135.5906 C   0  0  0  0  0  0  0  0  0  0  0  0
    9.5430   45.7973  134.7207 C   0  0  0  0  0  0  0  0  0  0  0  0
    8.8554   46.8517  135.2163 F   0  0  0  0  0  0  0  0  0  0  0  0
    9.4690   45.4531  133.3876 C   0  0  0  0  0  0  0  0  0  0  0  0
    7.5339   44.8273  128.8951 C   0  0  0  0  0  0  0  0  0  0  0  0
    7.7389   48.2622  130.3895 C   0  0  0  0  0  0  0  0  0  0  0  0
    6.6741   48.8376  129.7158 C   0  0  0  0  0  0  0  0  0  0  0  0
    5.9045   48.1570  128.8091 C   0  0  0  0  0  0  0  0  0  0  0  0
    6.1848   46.8412  128.5408 C   0  0  0  0  0  0  0  0  0  0  0  0
    7.2242   46.2214  129.1759 C   0  0  0  0  0  0  0  0  0  0  0  0
    7.9734   46.9371  130.0790 C   0  0  0  0  0  0  0  0  0  0  0  0
   10.6734   51.6451  133.9146 C   0  0  0  0  0  0  0  0  0  0  0  0
    9.9155   50.7052  133.0138 C   0  0  0  0  0  0  0  0  0  0  0  0
    9.9296   49.3457  133.2315 C   0  0  0  0  0  0  0  0  0  0  0  0
    9.2192   48.4925  132.3830 C   0  0  0  0  0  0  0  0  0  0  0  0
    8.5148   49.0398  131.3386 C   0  0  0  0  0  0  0  0  0  0  0  0
    8.5473   50.3695  131.1891 N   0  0  0  0  0  0  0  0  0  0  0  0
    9.2154   51.1786  131.9858 N   0  0  0  0  0  0  0  0  0  0  0  0
 23 24  1  0  0  0
 24 25  2  0  0  0
 25 26  1  0  0  0
 26 27  2  0  0  0
 27 17  1  0  0  0
 17 18  2  0  0  0
 18 19  1  0  0  0
 19 20  2  0  0  0
 20 21  1  0  0  0
 21 16  1  0  0  0
 16  1  1  0  0  0
  1  2  1  0  0  0
  2  3  2  0  0  0
  3  8  1  0  0  0
  8  9  2  0  0  0
  9 10  1  0  0  0
 10 11  1  0  0  0
 10 12  2  0  0  0
 12 13  1  0  0  0
 13 14  1  0  0  0
 13 15  2  0  0  0
  3  4  1  0  0  0
  4  5  2  0  0  0
  5  6  1  0  0  0
  6  7  2  0  0  0
 21 22  2  0  0  0
 27 28  1  0  0  0
 28 29  2  0  0  0
 29 24  1  0  0  0
 22 17  1  0  0  0
  6  1  1  0  0  0
 15  8  1  0  0  0
M  END
> <minimizedAffinity>
1.17501

> <CNNscore>
0.4661941230

> <CNNaffinity>
7.8582763672

> <CNN_VS>
3.6634821892

> <CNNaffinity_variance>
1.0910793543

$$$$
[H]c1c(-c2c([H])c([H])c([H])c(C([H])([H])n3nc(-c4c([H])c(F)c([H])c(F)c4[H])c([H])c([H])c3=O)c2[H])nnc(C([H])([H])[H])c1[H]


 29 32  0  0  0  0  0  0  0  0999 V2000
   10.9986   44.7234  129.7776 N   0  0  0  0  0  0  0  0  0  0  0  0
   10.7344   44.7499  131.0807 N   0  0  0  0  0  0  0  0  0  0  0  0
   11.6505   44.5380  132.0460 C   0  0  0  0  0  0  0  0  0  0  0  0
   12.9505   44.2755  131.6632 C   0  0  0  0  0  0  0  0  0  0  0  0
   13.2657   44.2391  130.3172 C   0  0  0  0  0  0  0  0  0  0  0  0
   12.2567   44.4696  129.3852 C   0  0  0  0  0  0  0  0  0  0  0  0
   12.4752   44.4500  128.1614 O   0  0  0  0  0  0  0  0  0  0  0  0
   11.2480   44.5910  133.4578 C   0  0  0  0  0  0  0  0  0  0  0  0
   11.6779   43.7202  134.4186 C   0  0  0  0  0  0  0  0  0  0  0  0
   11.2570   43.8256  135.7437 C   0  0  0  0  0  0  0  0  0  0  0  0
   11.6940   42.9562  136.6732 F   0  0  0  0  0  0  0  0  0  0  0  0
   10.3876   44.8174  136.1328 C   0  0  0  0  0  0  0  0  0  0  0  0
    9.9485   45.7002  135.1710 C   0  0  0  0  0  0  0  0  0  0  0  0
    9.0930   46.6772  135.5502 F   0  0  0  0  0  0  0  0  0  0  0  0
   10.3733   45.5838  133.8644 C   0  0  0  0  0  0  0  0  0  0  0  0
    9.9132   44.9757  128.8821 C   0  0  0  0  0  0  0  0  0  0  0  0
    7.5420   47.7823  129.6400 C   0  0  0  0  0  0  0  0  0  0  0  0
    6.6153   47.0671  130.3805 C   0  0  0  0  0  0  0  0  0  0  0  0
    6.7350   45.7266  130.6382 C   0  0  0  0  0  0  0  0  0  0  0  0
    7.8172   45.0404  130.1487 C   0  0  0  0  0  0  0  0  0  0  0  0
    8.7636   45.6947  129.4110 C   0  0  0  0  0  0  0  0  0  0  0  0
    8.6090   47.0397  129.1736 C   0  0  0  0  0  0  0  0  0  0  0  0
    6.8696   53.2855  128.3191 C   0  0  0  0  0  0  0  0  0  0  0  0
    7.0384   51.8443  128.7239 C   0  0  0  0  0  0  0  0  0  0  0  0
    6.9336   51.4591  130.0416 C   0  0  0  0  0  0  0  0  0  0  0  0
    7.0939   50.1165  130.3944 C   0  0  0  0  0  0  0  0  0  0  0  0
    7.3557   49.2024  129.4033 C   0  0  0  0  0  0  0  0  0  0  0  0
    7.4436   49.6500  128.1450 N   0  0  0  0  0  0  0  0  0  0  0  0
    7.2935   50.9145  127.8066 N   0  0  0  0  0  0  0  0  0  0  0  0
 23 24  1  0  0  0
 24 25  2  0  0  0
 25 26  1  0  0  0
 26 27  2  0  0  0
 27 17  1  0  0  0
 17 18  2  0  0  0
 18 19  1  0  0  0
 19 20  2  0  0  0
 20 21  1  0  0  0
 21 16  1  0  0  0
 16  1  1  0  0  0
  1  2  1  0  0  0
  2  3  2  0  0  0
  3  8  1  0  0  0
  8  9  2  0  0  0
  9 10  1  0  0  0
 10 11  1  0  0  0
 10 12  2  0  0  0
 12 13  1  0  0  0
 13 14  1  0  0  0
 13 15  2  0  0  0
  3  4  1  0  0  0
  4  5  2  0  0  0
  5  6  1  0  0  0
  6  7  2  0  0  0
 21 22  2  0  0  0
 27 28  1  0  0  0
 28 29  2  0  0  0
 29 24  1  0  0  0
 22 17  1  0  0  0
  6  1  1  0  0  0
 15  8  1  0  0  0
M  END
> <minimizedAffinity>
0.72548

> <CNNscore>
0.4201386273

> <CNNaffinity>
7.3995056152

> <CNN_VS>
3.1088180542

> <CNNaffinity_variance>
1.0212551355

$$$$
[H]c1c(-c2c([H])c([H])c([H])c(C([H])([H])n3nc(-c4c([H])c(F)c([H])c(F)c4[H])c([H])c([H])c3=O)c2[H])nnc(C([H])([H])[H])c1[H]


 29 32  0  0  0  0  0  0  0  0999 V2000
    9.4301   49.4136  131.9625 N   0  0  0  0  0  0  0  0  0  0  0  0
    9.8401   48.1499  132.0228 N   0  0  0  0  0  0  0  0  0  0  0  0
   10.6229   47.6511  132.9996 C   0  0  0  0  0  0  0  0  0  0  0  0
   11.0294   48.5030  134.0068 C   0  0  0  0  0  0  0  0  0  0  0  0
   10.6242   49.8250  133.9800 C   0  0  0  0  0  0  0  0  0  0  0  0
    9.8147   50.2577  132.9324 C   0  0  0  0  0  0  0  0  0  0  0  0
    9.4177   51.4330  132.8507 O   0  0  0  0  0  0  0  0  0  0  0  0
   11.0170   46.2363  132.9674 C   0  0  0  0  0  0  0  0  0  0  0  0
   11.0473   45.4160  134.0595 C   0  0  0  0  0  0  0  0  0  0  0  0
   11.4317   44.0794  133.9610 C   0  0  0  0  0  0  0  0  0  0  0  0
   11.4538   43.2901  135.0507 F   0  0  0  0  0  0  0  0  0  0  0  0
   11.7969   43.5358  132.7518 C   0  0  0  0  0  0  0  0  0  0  0  0
   11.7696   44.3551  131.6449 C   0  0  0  0  0  0  0  0  0  0  0  0
   12.1281   43.8237  130.4537 F   0  0  0  0  0  0  0  0  0  0  0  0
   11.3871   45.6751  131.7574 C   0  0  0  0  0  0  0  0  0  0  0  0
    8.5964   49.7818  130.8610 C   0  0  0  0  0  0  0  0  0  0  0  0
    7.8436   46.3595  129.5212 C   0  0  0  0  0  0  0  0  0  0  0  0
    6.7034   46.6731  128.7999 C   0  0  0  0  0  0  0  0  0  0  0  0
    6.1818   47.9386  128.7346 C   0  0  0  0  0  0  0  0  0  0  0  0
    6.8032   48.9590  129.4089 C   0  0  0  0  0  0  0  0  0  0  0  0
    7.9320   48.7079  130.1374 C   0  0  0  0  0  0  0  0  0  0  0  0
    8.4252   47.4257  130.1787 C   0  0  0  0  0  0  0  0  0  0  0  0
    9.6498   40.9750  129.9979 C   0  0  0  0  0  0  0  0  0  0  0  0
    9.1964   42.4005  129.8192 C   0  0  0  0  0  0  0  0  0  0  0  0
    9.4769   43.0963  128.6647 C   0  0  0  0  0  0  0  0  0  0  0  0
    9.0464   44.4178  128.5204 C   0  0  0  0  0  0  0  0  0  0  0  0
    8.3443   44.9972  129.5490 C   0  0  0  0  0  0  0  0  0  0  0  0
    8.1089   44.2597  130.6408 N   0  0  0  0  0  0  0  0  0  0  0  0
    8.5124   43.0134  130.7822 N   0  0  0  0  0  0  0  0  0  0  0  0
 23 24  1  0  0  0
 24 25  2  0  0  0
 25 26  1  0  0  0
 26 27  2  0  0  0
 27 17  1  0  0  0
 17 18  2  0  0  0
 18 19  1  0  0  0
 19 20  2  0  0  0
 20 21  1  0  0  0
 21 16  1  0  0  0
 16  1  1  0  0  0
  1  2  1  0  0  0
  2  3  2  0  0  0
  3  8  1  0  0  0
  8  9  2  0  0  0
  9 10  1  0  0  0
 10 11  1  0  0  0
 10 12  2  0  0  0
 12 13  1  0  0  0
 13 14  1  0  0  0
 13 15  2  0  0  0
  3  4  1  0  0  0
  4  5  2  0  0  0
  5  6  1  0  0  0
  6  7  2  0  0  0
 21 22  2  0  0  0
 27 28  1  0  0  0
 28 29  2  0  0  0
 29 24  1  0  0  0
 22 17  1  0  0  0
  6  1  1  0  0  0
 15  8  1  0  0  0
M  END
> <minimizedAffinity>
-2.50930

> <CNNscore>
0.3814577460

> <CNNaffinity>
7.6927056313

> <CNN_VS>
2.9344420433

> <CNNaffinity_variance>
0.5249493122

$$$$
[H]c1c(-c2c([H])c([H])c([H])c(C([H])([H])n3nc(-c4c([H])c(F)c([H])c(F)c4[H])c([H])c([H])c3=O)c2[H])nnc(C([H])([H])[H])c1[H]


 29 32  0  0  0  0  0  0  0  0999 V2000
    9.8461   46.0286  128.3519 N   0  0  0  0  0  0  0  0  0  0  0  0
   10.0199   45.5996  129.5987 N   0  0  0  0  0  0  0  0  0  0  0  0
   10.6285   44.4428  129.9261 C   0  0  0  0  0  0  0  0  0  0  0  0
   11.1050   43.6462  128.9044 C   0  0  0  0  0  0  0  0  0  0  0  0
   10.9437   44.0573  127.5938 C   0  0  0  0  0  0  0  0  0  0  0  0
   10.3023   45.2682  127.3445 C   0  0  0  0  0  0  0  0  0  0  0  0
   10.1258   45.6929  126.1894 O   0  0  0  0  0  0  0  0  0  0  0  0
   10.7665   44.0658  131.3391 C   0  0  0  0  0  0  0  0  0  0  0  0
   10.0480   43.0777  131.9505 C   0  0  0  0  0  0  0  0  0  0  0  0
   10.2274   42.7687  133.2983 C   0  0  0  0  0  0  0  0  0  0  0  0
    9.5081   41.7910  133.8793 F   0  0  0  0  0  0  0  0  0  0  0  0
   11.1409   43.4530  134.0653 C   0  0  0  0  0  0  0  0  0  0  0  0
   11.8701   44.4511  133.4575 C   0  0  0  0  0  0  0  0  0  0  0  0
   12.7697   45.1264  134.2090 F   0  0  0  0  0  0  0  0  0  0  0  0
   11.6820   44.7457  132.1237 C   0  0  0  0  0  0  0  0  0  0  0  0
    9.1850   47.2838  128.1753 C   0  0  0  0  0  0  0  0  0  0  0  0
    8.8507   48.1955  131.7989 C   0  0  0  0  0  0  0  0  0  0  0  0
    8.2036   49.4100  131.6411 C   0  0  0  0  0  0  0  0  0  0  0  0
    7.8767   49.9319  130.4170 C   0  0  0  0  0  0  0  0  0  0  0  0
    8.1966   49.2342  129.2799 C   0  0  0  0  0  0  0  0  0  0  0  0
    8.8359   48.0300  129.3751 C   0  0  0  0  0  0  0  0  0  0  0  0
    9.1473   47.5391  130.6206 C   0  0  0  0  0  0  0  0  0  0  0  0
    9.8146   45.9655  136.9546 C   0  0  0  0  0  0  0  0  0  0  0  0
    9.6013   46.5941  135.6023 C   0  0  0  0  0  0  0  0  0  0  0  0
   10.3473   47.6779  135.1964 C   0  0  0  0  0  0  0  0  0  0  0  0
   10.1324   48.2450  133.9375 C   0  0  0  0  0  0  0  0  0  0  0  0
    9.1685   47.6989  133.1255 C   0  0  0  0  0  0  0  0  0  0  0  0
    8.4829   46.6462  133.5871 N   0  0  0  0  0  0  0  0  0  0  0  0
    8.6812   46.1075  134.7730 N   0  0  0  0  0  0  0  0  0  0  0  0
 23 24  1  0  0  0
 24 25  2  0  0  0
 25 26  1  0  0  0
 26 27  2  0  0  0
 27 17  1  0  0  0
 17 18  2  0  0  0
 18 19  1  0  0  0
 19 20  2  0  0  0
 20 21  1  0  0  0
 21 16  1  0  0  0
 16  1  1  0  0  0
  1  2  1  0  0  0
  2  3  2  0  0  0
  3  8  1  0  0  0
  8  9  2  0  0  0
  9 10  1  0  0  0
 10 11  1  0  0  0
 10 12  2  0  0  0
 12 13  1  0  0  0
 13 14  1  0  0  0
 13 15  2  0  0  0
  3  4  1  0  0  0
  4  5  2  0  0  0
  5  6  1  0  0  0
  6  7  2  0  0  0
 21 22  2  0  0  0
 27 28  1  0  0  0
 28 29  2  0  0  0
 29 24  1  0  0  0
 22 17  1  0  0  0
  6  1  1  0  0  0
 15  8  1  0  0  0
M  END
> <minimizedAffinity>
-0.01446

> <CNNscore>
0.3565707803

> <CNNaffinity>
7.6082611084

> <CNN_VS>
2.7128837109

> <CNNaffinity_variance>
0.3739309609

$$$$
[H]c1c([H])c([H])c(-c2c([H])c([H])c(C([H])([H])Sc3nnc(-c4c([H])c([H])c5c(c4[H])O[C@@]([H])(C([H])([H])OC([H])([H])[H])C([H])([H])O5)o3)c([H])c2[H])c(C#N)c1[H]


 34 38  0  0  0  0  0  0  0  0999 V2000
    9.9036   48.3253  130.6007 C   0  0  0  0  0  0  0  0  0  0  0  0
   10.1221   49.5732  130.1886 N   0  0  0  0  0  0  0  0  0  0  0  0
    9.0666   49.9737  129.5138 N   0  0  0  0  0  0  0  0  0  0  0  0
    8.1747   48.9798  129.4960 C   0  0  0  0  0  0  0  0  0  0  0  0
    8.7384   47.9818  130.1817 O   0  0  0  0  0  0  0  0  0  0  0  0
   13.9991   47.1068  134.9820 C   0  0  0  0  0  0  0  0  0  0  0  0
   13.6416   45.6278  134.9996 C   0  0  0  0  0  0  0  0  0  0  0  0
   13.5024   45.2311  133.6214 O   0  0  0  0  0  0  0  0  0  0  0  0
   12.6168   45.9722  132.8594 C   0  0  0  0  0  0  0  0  0  0  0  0
   12.1126   45.4760  131.6533 C   0  0  0  0  0  0  0  0  0  0  0  0
   11.2336   46.2719  130.9480 C   0  0  0  0  0  0  0  0  0  0  0  0
   10.8478   47.5157  131.3909 C   0  0  0  0  0  0  0  0  0  0  0  0
   11.3514   47.9767  132.5660 C   0  0  0  0  0  0  0  0  0  0  0  0
   12.2420   47.2164  133.3198 C   0  0  0  0  0  0  0  0  0  0  0  0
   12.7415   47.7095  134.5161 O   0  0  0  0  0  0  0  0  0  0  0  0
   14.3014   47.6678  136.3277 C   0  0  0  0  0  0  0  0  0  0  0  0
   13.2447   49.7343  136.8007 C   0  0  0  0  0  0  0  0  0  0  0  0
   14.3182   48.9765  136.5461 O   0  0  0  0  0  0  0  0  0  0  0  0
    6.5755   48.9621  128.7321 S   0  0  0  0  0  0  0  0  0  0  0  0
    5.5731   47.5346  129.1594 C   0  0  0  0  0  0  0  0  0  0  0  0
    6.2557   46.6044  130.0811 C   0  0  0  0  0  0  0  0  0  0  0  0
    7.5095   46.1167  129.7130 C   0  0  0  0  0  0  0  0  0  0  0  0
    8.1805   45.2299  130.5249 C   0  0  0  0  0  0  0  0  0  0  0  0
    7.6655   44.7858  131.7159 C   0  0  0  0  0  0  0  0  0  0  0  0
    6.4238   45.2718  132.0747 C   0  0  0  0  0  0  0  0  0  0  0  0
    5.7447   46.1632  131.2617 C   0  0  0  0  0  0  0  0  0  0  0  0
    8.3375   43.8593  132.6135 C   0  0  0  0  0  0  0  0  0  0  0  0
    8.7457   44.2768  133.8873 C   0  0  0  0  0  0  0  0  0  0  0  0
    9.3695   43.4115  134.7529 C   0  0  0  0  0  0  0  0  0  0  0  0
    9.6237   42.1001  134.4161 C   0  0  0  0  0  0  0  0  0  0  0  0
    9.2292   41.6753  133.1689 C   0  0  0  0  0  0  0  0  0  0  0  0
    8.5938   42.5530  132.2843 C   0  0  0  0  0  0  0  0  0  0  0  0
    8.2131   42.0658  130.9851 C   0  0  0  0  0  0  0  0  0  0  0  0
    7.9291   41.6709  129.9272 N   0  0  0  0  0  0  0  0  0  0  0  0
 17 18  1  0  0  0
 18 16  1  0  0  0
 16  6  1  0  0  0
  6  7  1  0  0  0
  7  8  1  0  0  0
  8  9  1  0  0  0
  9 10  2  0  0  0
 10 11  1  0  0  0
 11 12  2  0  0  0
 12  1  1  0  0  0
  1  2  2  0  0  0
  2  3  1  0  0  0
  3  4  2  0  0  0
  4 19  1  0  0  0
 19 20  1  0  0  0
 20 21  1  0  0  0
 21 22  2  0  0  0
 22 23  1  0  0  0
 23 24  2  0  0  0
 24 27  1  0  0  0
 27 28  2  0  0  0
 28 29  1  0  0  0
 29 30  2  0  0  0
 30 31  1  0  0  0
 31 32  2  0  0  0
 32 33  1  0  0  0
 33 34  3  0  0  0
 24 25  1  0  0  0
 25 26  2  0  0  0
  4  5  1  0  0  0
 12 13  1  0  0  0
 13 14  2  0  0  0
 14 15  1  0  0  0
 15  6  1  0  0  0
 14  9  1  0  0  0
  5  1  1  0  0  0
 26 21  1  0  0  0
 32 27  1  0  0  0
M  END
> <minimizedAffinity>
21.15237

> <CNNscore>
0.4366195202

> <CNNaffinity>
7.3017044067

> <CNN_VS>
3.1880667210

> <CNNaffinity_variance>
1.0417019129

$$$$
[H]c1c([H])c([H])c(-c2c([H])c([H])c(C([H])([H])Sc3nnc(-c4c([H])c([H])c5c(c4[H])O[C@@]([H])(C([H])([H])OC([H])([H])[H])C([H])([H])O5)o3)c([H])c2[H])c(C#N)c1[H]


 34 38  0  0  0  0  0  0  0  0999 V2000
    9.1785   47.4165  129.4836 C   0  0  0  0  0  0  0  0  0  0  0  0
    9.3493   48.7230  129.6804 N   0  0  0  0  0  0  0  0  0  0  0  0
    8.3618   49.3599  129.0895 N   0  0  0  0  0  0  0  0  0  0  0  0
    7.5611   48.4581  128.5157 C   0  0  0  0  0  0  0  0  0  0  0  0
    8.1083   47.2704  128.7875 O   0  0  0  0  0  0  0  0  0  0  0  0
   12.0845   43.9854  133.6352 C   0  0  0  0  0  0  0  0  0  0  0  0
   12.2149   42.8124  132.6745 C   0  0  0  0  0  0  0  0  0  0  0  0
   12.5892   43.3746  131.4017 O   0  0  0  0  0  0  0  0  0  0  0  0
   11.7614   44.3655  130.9048 C   0  0  0  0  0  0  0  0  0  0  0  0
   11.7875   44.7156  129.5514 C   0  0  0  0  0  0  0  0  0  0  0  0
   10.9329   45.7130  129.1289 C   0  0  0  0  0  0  0  0  0  0  0  0
   10.0733   46.3592  129.9864 C   0  0  0  0  0  0  0  0  0  0  0  0
   10.0661   46.0017  131.2975 C   0  0  0  0  0  0  0  0  0  0  0  0
   10.9068   45.0017  131.7798 C   0  0  0  0  0  0  0  0  0  0  0  0
   10.8801   44.6550  133.1226 O   0  0  0  0  0  0  0  0  0  0  0  0
   11.8164   43.5817  135.0431 C   0  0  0  0  0  0  0  0  0  0  0  0
   10.6013   44.6059  136.7997 C   0  0  0  0  0  0  0  0  0  0  0  0
   10.6880   43.9139  135.6572 O   0  0  0  0  0  0  0  0  0  0  0  0
    6.0808   48.7483  127.5852 S   0  0  0  0  0  0  0  0  0  0  0  0
    4.7384   49.4591  128.5430 C   0  0  0  0  0  0  0  0  0  0  0  0
    3.9626   48.4481  129.2891 C   0  0  0  0  0  0  0  0  0  0  0  0
    4.5601   47.2122  129.5359 C   0  0  0  0  0  0  0  0  0  0  0  0
    3.8739   46.2258  130.2082 C   0  0  0  0  0  0  0  0  0  0  0  0
    2.5918   46.3989  130.6637 C   0  0  0  0  0  0  0  0  0  0  0  0
    2.0055   47.6243  130.4160 C   0  0  0  0  0  0  0  0  0  0  0  0
    2.6910   48.6192  129.7400 C   0  0  0  0  0  0  0  0  0  0  0  0
    1.8283   45.3942  131.3871 C   0  0  0  0  0  0  0  0  0  0  0  0
    2.1089   45.1243  132.7332 C   0  0  0  0  0  0  0  0  0  0  0  0
    1.3890   44.1885  133.4354 C   0  0  0  0  0  0  0  0  0  0  0  0
    0.3631   43.4734  132.8575 C   0  0  0  0  0  0  0  0  0  0  0  0
    0.0759   43.7269  131.5365 C   0  0  0  0  0  0  0  0  0  0  0  0
    0.8065   44.6788  130.8176 C   0  0  0  0  0  0  0  0  0  0  0  0
    0.4782   44.8981  129.4340 C   0  0  0  0  0  0  0  0  0  0  0  0
    0.2225   45.0984  128.3159 N   0  0  0  0  0  0  0  0  0  0  0  0
 17 18  1  0  0  0
 18 16  1  0  0  0
 16  6  1  0  0  0
  6  7  1  0  0  0
  7  8  1  0  0  0
  8  9  1  0  0  0
  9 10  2  0  0  0
 10 11  1  0  0  0
 11 12  2  0  0  0
 12  1  1  0  0  0
  1  2  2  0  0  0
  2  3  1  0  0  0
  3  4  2  0  0  0
  4 19  1  0  0  0
 19 20  1  0  0  0
 20 21  1  0  0  0
 21 22  2  0  0  0
 22 23  1  0  0  0
 23 24  2  0  0  0
 24 27  1  0  0  0
 27 28  2  0  0  0
 28 29  1  0  0  0
 29 30  2  0  0  0
 30 31  1  0  0  0
 31 32  2  0  0  0
 32 33  1  0  0  0
 33 34  3  0  0  0
 24 25  1  0  0  0
 25 26  2  0  0  0
  4  5  1  0  0  0
 12 13  1  0  0  0
 13 14  2  0  0  0
 14 15  1  0  0  0
 15  6  1  0  0  0
 14  9  1  0  0  0
  5  1  1  0  0  0
 26 21  1  0  0  0
 32 27  1  0  0  0
M  END
> <minimizedAffinity>
29.07157

> <CNNscore>
0.4220572710

> <CNNaffinity>
6.9675436020

> <CNN_VS>
2.9407024384

> <CNNaffinity_variance>
1.6394916773

$$$$
[H]c1c([H])c([H])c(-c2c([H])c([H])c(C([H])([H])Sc3nnc(-c4c([H])c([H])c5c(c4[H])O[C@@]([H])(C([H])([H])OC([H])([H])[H])C([H])([H])O5)o3)c([H])c2[H])c(C#N)c1[H]


 34 38  0  0  0  0  0  0  0  0999 V2000
    8.8320   44.3140  128.9187 C   0  0  0  0  0  0  0  0  0  0  0  0
    9.3642   43.9527  127.7521 N   0  0  0  0  0  0  0  0  0  0  0  0
    9.8488   42.7368  127.8806 N   0  0  0  0  0  0  0  0  0  0  0  0
    9.6250   42.3229  129.1305 C   0  0  0  0  0  0  0  0  0  0  0  0
    8.9934   43.3336  129.7337 O   0  0  0  0  0  0  0  0  0  0  0  0
    8.2613   49.9739  131.1753 C   0  0  0  0  0  0  0  0  0  0  0  0
    7.2640   50.3761  130.0984 C   0  0  0  0  0  0  0  0  0  0  0  0
    6.3621   49.2624  129.9493 O   0  0  0  0  0  0  0  0  0  0  0  0
    6.9452   48.0354  129.6875 C   0  0  0  0  0  0  0  0  0  0  0  0
    6.1972   46.9799  129.1568 C   0  0  0  0  0  0  0  0  0  0  0  0
    6.8472   45.7858  128.9219 C   0  0  0  0  0  0  0  0  0  0  0  0
    8.1846   45.6094  129.1906 C   0  0  0  0  0  0  0  0  0  0  0  0
    8.8907   46.6498  129.7063 C   0  0  0  0  0  0  0  0  0  0  0  0
    8.2867   47.8780  129.9635 C   0  0  0  0  0  0  0  0  0  0  0  0
    9.0296   48.9244  130.4898 O   0  0  0  0  0  0  0  0  0  0  0  0
    9.2088   51.0590  131.5519 C   0  0  0  0  0  0  0  0  0  0  0  0
    9.4712   52.0372  133.6933 C   0  0  0  0  0  0  0  0  0  0  0  0
    9.7509   51.1178  132.7616 O   0  0  0  0  0  0  0  0  0  0  0  0
   10.0629   40.7683  129.8603 S   0  0  0  0  0  0  0  0  0  0  0  0
   10.7151   40.8976  131.5285 C   0  0  0  0  0  0  0  0  0  0  0  0
   10.6566   42.2715  132.0667 C   0  0  0  0  0  0  0  0  0  0  0  0
   11.7463   43.1123  131.8412 C   0  0  0  0  0  0  0  0  0  0  0  0
   11.7536   44.3960  132.3393 C   0  0  0  0  0  0  0  0  0  0  0  0
   10.7121   44.9096  133.0691 C   0  0  0  0  0  0  0  0  0  0  0  0
    9.6364   44.0722  133.2894 C   0  0  0  0  0  0  0  0  0  0  0  0
    9.6244   42.7806  132.7913 C   0  0  0  0  0  0  0  0  0  0  0  0
   10.6662   46.2601  133.6076 C   0  0  0  0  0  0  0  0  0  0  0  0
   10.8288   47.3658  132.7625 C   0  0  0  0  0  0  0  0  0  0  0  0
   10.7748   48.6483  133.2517 C   0  0  0  0  0  0  0  0  0  0  0  0
   10.5599   48.9111  134.5868 C   0  0  0  0  0  0  0  0  0  0  0  0
   10.3986   47.8359  135.4292 C   0  0  0  0  0  0  0  0  0  0  0  0
   10.4530   46.5283  134.9353 C   0  0  0  0  0  0  0  0  0  0  0  0
   10.2932   45.4361  135.8583 C   0  0  0  0  0  0  0  0  0  0  0  0
   10.1778   44.5647  136.6219 N   0  0  0  0  0  0  0  0  0  0  0  0
 17 18  1  0  0  0
 18 16  1  0  0  0
 16  6  1  0  0  0
  6  7  1  0  0  0
  7  8  1  0  0  0
  8  9  1  0  0  0
  9 10  2  0  0  0
 10 11  1  0  0  0
 11 12  2  0  0  0
 12  1  1  0  0  0
  1  2  2  0  0  0
  2  3  1  0  0  0
  3  4  2  0  0  0
  4 19  1  0  0  0
 19 20  1  0  0  0
 20 21  1  0  0  0
 21 22  2  0  0  0
 22 23  1  0  0  0
 23 24  2  0  0  0
 24 27  1  0  0  0
 27 28  2  0  0  0
 28 29  1  0  0  0
 29 30  2  0  0  0
 30 31  1  0  0  0
 31 32  2  0  0  0
 32 33  1  0  0  0
 33 34  3  0  0  0
 24 25  1  0  0  0
 25 26  2  0  0  0
  4  5  1  0  0  0
 12 13  1  0  0  0
 13 14  2  0  0  0
 14 15  1  0  0  0
 15  6  1  0  0  0
 14  9  1  0  0  0
  5  1  1  0  0  0
 26 21  1  0  0  0
 32 27  1  0  0  0
M  END
> <minimizedAffinity>
9.52650

> <CNNscore>
0.4096131325

> <CNNaffinity>
7.6387343407

> <CNN_VS>
3.1289258003

> <CNNaffinity_variance>
0.8622765541

$$$$
[H]c1c([H])c([H])c(-c2c([H])c([H])c(C([H])([H])Sc3nnc(-c4c([H])c([H])c5c(c4[H])O[C@@]([H])(C([H])([H])OC([H])([H])[H])C([H])([H])O5)o3)c([H])c2[H])c(C#N)c1[H]


 34 38  0  0  0  0  0  0  0  0999 V2000
   10.7687   46.3790  134.0716 C   0  0  0  0  0  0  0  0  0  0  0  0
   12.0092   46.3478  134.5564 N   0  0  0  0  0  0  0  0  0  0  0  0
   12.1809   45.1982  135.1719 N   0  0  0  0  0  0  0  0  0  0  0  0
   11.0486   44.4962  135.0790 C   0  0  0  0  0  0  0  0  0  0  0  0
   10.2049   45.2689  134.3895 O   0  0  0  0  0  0  0  0  0  0  0  0
    8.2626   49.2555  129.2864 C   0  0  0  0  0  0  0  0  0  0  0  0
    7.5638   50.2726  130.1770 C   0  0  0  0  0  0  0  0  0  0  0  0
    8.5228   50.6524  131.1831 O   0  0  0  0  0  0  0  0  0  0  0  0
    9.0838   49.6193  131.9126 C   0  0  0  0  0  0  0  0  0  0  0  0
    9.7165   49.8609  133.1359 C   0  0  0  0  0  0  0  0  0  0  0  0
   10.2524   48.7809  133.8067 C   0  0  0  0  0  0  0  0  0  0  0  0
   10.1822   47.4986  133.3141 C   0  0  0  0  0  0  0  0  0  0  0  0
    9.5624   47.2887  132.1230 C   0  0  0  0  0  0  0  0  0  0  0  0
    9.0034   48.3412  131.4024 C   0  0  0  0  0  0  0  0  0  0  0  0
    8.3758   48.1005  130.1891 O   0  0  0  0  0  0  0  0  0  0  0  0
    7.4559   48.8346  128.1078 C   0  0  0  0  0  0  0  0  0  0  0  0
    6.3933   46.8656  128.8854 C   0  0  0  0  0  0  0  0  0  0  0  0
    6.4040   48.0361  128.2364 O   0  0  0  0  0  0  0  0  0  0  0  0
   10.7099   42.8808  135.7246 S   0  0  0  0  0  0  0  0  0  0  0  0
    9.7276   41.8452  134.6348 C   0  0  0  0  0  0  0  0  0  0  0  0
    9.7466   42.3028  133.2309 C   0  0  0  0  0  0  0  0  0  0  0  0
   10.8435   41.9567  132.4419 C   0  0  0  0  0  0  0  0  0  0  0  0
   10.9227   42.3753  131.1326 C   0  0  0  0  0  0  0  0  0  0  0  0
    9.9484   43.1395  130.5426 C   0  0  0  0  0  0  0  0  0  0  0  0
    8.8653   43.4793  131.3289 C   0  0  0  0  0  0  0  0  0  0  0  0
    8.7812   43.0614  132.6460 C   0  0  0  0  0  0  0  0  0  0  0  0
    9.9793   43.5978  129.1625 C   0  0  0  0  0  0  0  0  0  0  0  0
    9.2964   42.8892  128.1651 C   0  0  0  0  0  0  0  0  0  0  0  0
    9.3036   43.3151  126.8590 C   0  0  0  0  0  0  0  0  0  0  0  0
    9.9768   44.4510  126.4661 C   0  0  0  0  0  0  0  0  0  0  0  0
   10.6522   45.1574  127.4339 C   0  0  0  0  0  0  0  0  0  0  0  0
   10.6477   44.7272  128.7649 C   0  0  0  0  0  0  0  0  0  0  0  0
   11.3812   45.4916  129.7385 C   0  0  0  0  0  0  0  0  0  0  0  0
   11.9592   46.1022  130.5441 N   0  0  0  0  0  0  0  0  0  0  0  0
 17 18  1  0  0  0
 18 16  1  0  0  0
 16  6  1  0  0  0
  6  7  1  0  0  0
  7  8  1  0  0  0
  8  9  1  0  0  0
  9 10  2  0  0  0
 10 11  1  0  0  0
 11 12  2  0  0  0
 12  1  1  0  0  0
  1  2  2  0  0  0
  2  3  1  0  0  0
  3  4  2  0  0  0
  4 19  1  0  0  0
 19 20  1  0  0  0
 20 21  1  0  0  0
 21 22  2  0  0  0
 22 23  1  0  0  0
 23 24  2  0  0  0
 24 27  1  0  0  0
 27 28  2  0  0  0
 28 29  1  0  0  0
 29 30  2  0  0  0
 30 31  1  0  0  0
 31 32  2  0  0  0
 32 33  1  0  0  0
 33 34  3  0  0  0
 24 25  1  0  0  0
 25 26  2  0  0  0
  4  5  1  0  0  0
 12 13  1  0  0  0
 13 14  2  0  0  0
 14 15  1  0  0  0
 15  6  1  0  0  0
 14  9  1  0  0  0
  5  1  1  0  0  0
 26 21  1  0  0  0
 32 27  1  0  0  0
M  END
> <minimizedAffinity>
5.50931

> <CNNscore>
0.4072247446

> <CNNaffinity>
7.5510902405

> <CNN_VS>
3.0749907494

> <CNNaffinity_variance>
0.4789074063

$$$$
[H]c1c([H])c([H])c(-c2c([H])c([H])c(C([H])([H])Sc3nnc(-c4c([H])c([H])c5c(c4[H])O[C@@]([H])(C([H])([H])OC([H])([H])[H])C([H])([H])O5)o3)c([H])c2[H])c(C#N)c1[H]


 34 38  0  0  0  0  0  0  0  0999 V2000
    9.5877   43.7633  129.4395 C   0  0  0  0  0  0  0  0  0  0  0  0
    9.4384   42.7260  128.6171 N   0  0  0  0  0  0  0  0  0  0  0  0
    9.8949   41.6519  129.2236 N   0  0  0  0  0  0  0  0  0  0  0  0
   10.3354   42.0054  130.4338 C   0  0  0  0  0  0  0  0  0  0  0  0
   10.1238   43.3214  130.5205 O   0  0  0  0  0  0  0  0  0  0  0  0
    5.8519   48.5714  128.8237 C   0  0  0  0  0  0  0  0  0  0  0  0
    6.9852   49.5652  129.0334 C   0  0  0  0  0  0  0  0  0  0  0  0
    8.1046   49.0642  128.2771 O   0  0  0  0  0  0  0  0  0  0  0  0
    8.4936   47.7649  128.5506 C   0  0  0  0  0  0  0  0  0  0  0  0
    9.7591   47.2982  128.1819 C   0  0  0  0  0  0  0  0  0  0  0  0
   10.0763   45.9908  128.4880 C   0  0  0  0  0  0  0  0  0  0  0  0
    9.1985   45.1511  129.1333 C   0  0  0  0  0  0  0  0  0  0  0  0
    7.9742   45.6274  129.4815 C   0  0  0  0  0  0  0  0  0  0  0  0
    7.6000   46.9385  129.1979 C   0  0  0  0  0  0  0  0  0  0  0  0
    6.3445   47.4006  129.5641 O   0  0  0  0  0  0  0  0  0  0  0  0
    4.5633   48.9909  129.4407 C   0  0  0  0  0  0  0  0  0  0  0  0
    5.3883   50.8086  130.7160 C   0  0  0  0  0  0  0  0  0  0  0  0
    4.4296   50.1702  130.0341 O   0  0  0  0  0  0  0  0  0  0  0  0
   11.0532   40.9691  131.6796 S   0  0  0  0  0  0  0  0  0  0  0  0
   11.5642   41.8470  133.1605 C   0  0  0  0  0  0  0  0  0  0  0  0
   11.2584   43.2909  133.1106 C   0  0  0  0  0  0  0  0  0  0  0  0
    9.9363   43.6895  133.3070 C   0  0  0  0  0  0  0  0  0  0  0  0
    9.5919   45.0214  133.2494 C   0  0  0  0  0  0  0  0  0  0  0  0
   10.5095   46.0102  133.0014 C   0  0  0  0  0  0  0  0  0  0  0  0
   11.8166   45.6093  132.8074 C   0  0  0  0  0  0  0  0  0  0  0  0
   12.1679   44.2714  132.8638 C   0  0  0  0  0  0  0  0  0  0  0  0
   10.1995   47.4301  132.9410 C   0  0  0  0  0  0  0  0  0  0  0  0
   10.4203   48.1540  131.7618 C   0  0  0  0  0  0  0  0  0  0  0  0
   10.1206   49.4923  131.6828 C   0  0  0  0  0  0  0  0  0  0  0  0
    9.5922   50.1856  132.7496 C   0  0  0  0  0  0  0  0  0  0  0  0
    9.3700   49.4886  133.9144 C   0  0  0  0  0  0  0  0  0  0  0  0
    9.6738   48.1259  133.9992 C   0  0  0  0  0  0  0  0  0  0  0  0
    9.4373   47.4436  135.2437 C   0  0  0  0  0  0  0  0  0  0  0  0
    9.2673   46.9008  136.2597 N   0  0  0  0  0  0  0  0  0  0  0  0
 17 18  1  0  0  0
 18 16  1  0  0  0
 16  6  1  0  0  0
  6  7  1  0  0  0
  7  8  1  0  0  0
  8  9  1  0  0  0
  9 10  2  0  0  0
 10 11  1  0  0  0
 11 12  2  0  0  0
 12  1  1  0  0  0
  1  2  2  0  0  0
  2  3  1  0  0  0
  3  4  2  0  0  0
  4 19  1  0  0  0
 19 20  1  0  0  0
 20 21  1  0  0  0
 21 22  2  0  0  0
 22 23  1  0  0  0
 23 24  2  0  0  0
 24 27  1  0  0  0
 27 28  2  0  0  0
 28 29  1  0  0  0
 29 30  2  0  0  0
 30 31  1  0  0  0
 31 32  2  0  0  0
 32 33  1  0  0  0
 33 34  3  0  0  0
 24 25  1  0  0  0
 25 26  2  0  0  0
  4  5  1  0  0  0
 12 13  1  0  0  0
 13 14  2  0  0  0
 14 15  1  0  0  0
 15  6  1  0  0  0
 14  9  1  0  0  0
  5  1  1  0  0  0
 26 21  1  0  0  0
 32 27  1  0  0  0
M  END
> <minimizedAffinity>
4.29674

> <CNNscore>
0.3984193802

> <CNNaffinity>
7.4685831070

> <CNN_VS>
2.9756281376

> <CNNaffinity_variance>
0.2824304998

$$$$
[H]c1c([H])c([H])c(-c2c([H])c([H])c(C([H])([H])Sc3nnc(-c4c([H])c([H])c5c(c4[H])O[C@@]([H])(C([H])([H])OC([H])([H])[H])C([H])([H])O5)o3)c([H])c2[H])c(C#N)c1[H]


 34 38  0  0  0  0  0  0  0  0999 V2000
   10.7193   45.5332  129.3335 C   0  0  0  0  0  0  0  0  0  0  0  0
   10.7538   44.7472  128.2584 N   0  0  0  0  0  0  0  0  0  0  0  0
   11.5524   43.7343  128.5155 N   0  0  0  0  0  0  0  0  0  0  0  0
   12.0272   43.8752  129.7558 C   0  0  0  0  0  0  0  0  0  0  0  0
   11.4828   45.0029  130.2207 O   0  0  0  0  0  0  0  0  0  0  0  0
    5.7748   49.1326  129.1103 C   0  0  0  0  0  0  0  0  0  0  0  0
    6.3488   50.1000  130.1352 C   0  0  0  0  0  0  0  0  0  0  0  0
    7.7349   50.2807  129.7856 O   0  0  0  0  0  0  0  0  0  0  0  0
    8.4921   49.1279  129.6760 C   0  0  0  0  0  0  0  0  0  0  0  0
    9.8889   49.1756  129.7200 C   0  0  0  0  0  0  0  0  0  0  0  0
   10.5766   47.9852  129.6043 C   0  0  0  0  0  0  0  0  0  0  0  0
    9.9377   46.7769  129.4499 C   0  0  0  0  0  0  0  0  0  0  0  0
    8.5794   46.7559  129.4098 C   0  0  0  0  0  0  0  0  0  0  0  0
    7.8336   47.9266  129.5218 C   0  0  0  0  0  0  0  0  0  0  0  0
    6.4481   47.8783  129.4781 O   0  0  0  0  0  0  0  0  0  0  0  0
    4.3075   48.9173  129.2434 C   0  0  0  0  0  0  0  0  0  0  0  0
    3.6321   46.6764  129.6077 C   0  0  0  0  0  0  0  0  0  0  0  0
    3.8147   47.9435  129.9981 O   0  0  0  0  0  0  0  0  0  0  0  0
   13.1438   42.8079  130.6248 S   0  0  0  0  0  0  0  0  0  0  0  0
   12.8887   42.7679  132.4019 C   0  0  0  0  0  0  0  0  0  0  0  0
   11.9783   43.8283  132.8788 C   0  0  0  0  0  0  0  0  0  0  0  0
   12.4526   45.1397  132.9026 C   0  0  0  0  0  0  0  0  0  0  0  0
   11.6532   46.1640  133.3583 C   0  0  0  0  0  0  0  0  0  0  0  0
   10.3728   45.9574  133.8046 C   0  0  0  0  0  0  0  0  0  0  0  0
    9.9091   44.6570  133.7791 C   0  0  0  0  0  0  0  0  0  0  0  0
   10.7090   43.6235  133.3224 C   0  0  0  0  0  0  0  0  0  0  0  0
    9.4853   47.0048  134.2852 C   0  0  0  0  0  0  0  0  0  0  0  0
    8.9672   47.9572  133.3976 C   0  0  0  0  0  0  0  0  0  0  0  0
    8.1171   48.9450  133.8317 C   0  0  0  0  0  0  0  0  0  0  0  0
    7.7334   49.0493  135.1507 C   0  0  0  0  0  0  0  0  0  0  0  0
    8.2339   48.1217  136.0344 C   0  0  0  0  0  0  0  0  0  0  0  0
    9.1000   47.1143  135.5967 C   0  0  0  0  0  0  0  0  0  0  0  0
    9.6089   46.1761  136.5616 C   0  0  0  0  0  0  0  0  0  0  0  0
   10.0246   45.4004  137.3240 N   0  0  0  0  0  0  0  0  0  0  0  0
 17 18  1  0  0  0
 18 16  1  0  0  0
 16  6  1  0  0  0
  6  7  1  0  0  0
  7  8  1  0  0  0
  8  9  1  0  0  0
  9 10  2  0  0  0
 10 11  1  0  0  0
 11 12  2  0  0  0
 12  1  1  0  0  0
  1  2  2  0  0  0
  2  3  1  0  0  0
  3  4  2  0  0  0
  4 19  1  0  0  0
 19 20  1  0  0  0
 20 21  1  0  0  0
 21 22  2  0  0  0
 22 23  1  0  0  0
 23 24  2  0  0  0
 24 27  1  0  0  0
 27 28  2  0  0  0
 28 29  1  0  0  0
 29 30  2  0  0  0
 30 31  1  0  0  0
 31 32  2  0  0  0
 32 33  1  0  0  0
 33 34  3  0  0  0
 24 25  1  0  0  0
 25 26  2  0  0  0
  4  5  1  0  0  0
 12 13  1  0  0  0
 13 14  2  0  0  0
 14 15  1  0  0  0
 15  6  1  0  0  0
 14  9  1  0  0  0
  5  1  1  0  0  0
 26 21  1  0  0  0
 32 27  1  0  0  0
M  END
> <minimizedAffinity>
12.16197

> <CNNscore>
0.3923278153

> <CNNaffinity>
7.2361764908

> <CNN_VS>
2.8389532566

> <CNNaffinity_variance>
0.6263895631

$$$$
[H]c1c([H])c([H])c(-c2c([H])c([H])c(C([H])([H])Sc3nnc(-c4c([H])c([H])c5c(c4[H])O[C@@]([H])(C([H])([H])OC([H])([H])[H])C([H])([H])O5)o3)c([H])c2[H])c(C#N)c1[H]


 34 38  0  0  0  0  0  0  0  0999 V2000
    9.6975   46.2604  128.8002 C   0  0  0  0  0  0  0  0  0  0  0  0
    9.2356   45.3050  127.9948 N   0  0  0  0  0  0  0  0  0  0  0  0
   10.2050   44.4414  127.7838 N   0  0  0  0  0  0  0  0  0  0  0  0
   11.2856   44.8472  128.4555 C   0  0  0  0  0  0  0  0  0  0  0  0
   10.9218   45.9768  129.0686 O   0  0  0  0  0  0  0  0  0  0  0  0
    5.0356   50.2188  129.0250 C   0  0  0  0  0  0  0  0  0  0  0  0
    5.2954   50.5466  130.4882 C   0  0  0  0  0  0  0  0  0  0  0  0
    6.7242   50.6741  130.6243 O   0  0  0  0  0  0  0  0  0  0  0  0
    7.4773   49.5980  130.1897 C   0  0  0  0  0  0  0  0  0  0  0  0
    8.8032   49.4323  130.6017 C   0  0  0  0  0  0  0  0  0  0  0  0
    9.4913   48.3347  130.1270 C   0  0  0  0  0  0  0  0  0  0  0  0
    8.9194   47.4176  129.2764 C   0  0  0  0  0  0  0  0  0  0  0  0
    7.6294   47.6000  128.8897 C   0  0  0  0  0  0  0  0  0  0  0  0
    6.8866   48.6896  129.3374 C   0  0  0  0  0  0  0  0  0  0  0  0
    5.5714   48.8530  128.9283 O   0  0  0  0  0  0  0  0  0  0  0  0
    3.5908   50.1672  128.6684 C   0  0  0  0  0  0  0  0  0  0  0  0
    2.1731   51.5587  127.3782 C   0  0  0  0  0  0  0  0  0  0  0  0
    3.1433   50.6469  127.5150 O   0  0  0  0  0  0  0  0  0  0  0  0
   12.8771   44.0712  128.5338 S   0  0  0  0  0  0  0  0  0  0  0  0
   13.4874   43.8135  130.2030 C   0  0  0  0  0  0  0  0  0  0  0  0
   12.6172   44.4120  131.2351 C   0  0  0  0  0  0  0  0  0  0  0  0
   11.6375   43.6069  131.8158 C   0  0  0  0  0  0  0  0  0  0  0  0
   10.7848   44.1200  132.7675 C   0  0  0  0  0  0  0  0  0  0  0  0
   10.8493   45.4234  133.1894 C   0  0  0  0  0  0  0  0  0  0  0  0
   11.8210   46.2156  132.6105 C   0  0  0  0  0  0  0  0  0  0  0  0
   12.6804   45.7047  131.6529 C   0  0  0  0  0  0  0  0  0  0  0  0
    9.9806   46.0104  134.1976 C   0  0  0  0  0  0  0  0  0  0  0  0
   10.4918   46.3682  135.4522 C   0  0  0  0  0  0  0  0  0  0  0  0
    9.6888   46.9361  136.4113 C   0  0  0  0  0  0  0  0  0  0  0  0
    8.3511   47.1808  136.1909 C   0  0  0  0  0  0  0  0  0  0  0  0
    7.8344   46.8348  134.9641 C   0  0  0  0  0  0  0  0  0  0  0  0
    8.6484   46.2562  133.9847 C   0  0  0  0  0  0  0  0  0  0  0  0
    8.0585   45.8980  132.7222 C   0  0  0  0  0  0  0  0  0  0  0  0
    7.5844   45.5839  131.7062 N   0  0  0  0  0  0  0  0  0  0  0  0
 17 18  1  0  0  0
 18 16  1  0  0  0
 16  6  1  0  0  0
  6  7  1  0  0  0
  7  8  1  0  0  0
  8  9  1  0  0  0
  9 10  2  0  0  0
 10 11  1  0  0  0
 11 12  2  0  0  0
 12  1  1  0  0  0
  1  2  2  0  0  0
  2  3  1  0  0  0
  3  4  2  0  0  0
  4 19  1  0  0  0
 19 20  1  0  0  0
 20 21  1  0  0  0
 21 22  2  0  0  0
 22 23  1  0  0  0
 23 24  2  0  0  0
 24 27  1  0  0  0
 27 28  2  0  0  0
 28 29  1  0  0  0
 29 30  2  0  0  0
 30 31  1  0  0  0
 31 32  2  0  0  0
 32 33  1  0  0  0
 33 34  3  0  0  0
 24 25  1  0  0  0
 25 26  2  0  0  0
  4  5  1  0  0  0
 12 13  1  0  0  0
 13 14  2  0  0  0
 14 15  1  0  0  0
 15  6  1  0  0  0
 14  9  1  0  0  0
  5  1  1  0  0  0
 26 21  1  0  0  0
 32 27  1  0  0  0
M  END
> <minimizedAffinity>
6.93174

> <CNNscore>
0.3761290312

> <CNNaffinity>
7.5535078049

> <CNN_VS>
2.8410935402

> <CNNaffinity_variance>
1.1662905216

$$$$
[H]c1c([H])c([H])c(-c2c([H])c([H])c(C([H])([H])Sc3nnc(-c4c([H])c([H])c5c(c4[H])O[C@@]([H])(C([H])([H])OC([H])([H])[H])C([H])([H])O5)o3)c([H])c2[H])c(C#N)c1[H]


 34 38  0  0  0  0  0  0  0  0999 V2000
    9.5784   44.5069  129.0853 C   0  0  0  0  0  0  0  0  0  0  0  0
    9.4029   44.0140  127.8601 N   0  0  0  0  0  0  0  0  0  0  0  0
    9.5431   42.7075  127.9189 N   0  0  0  0  0  0  0  0  0  0  0  0
    9.8082   42.3678  129.1831 C   0  0  0  0  0  0  0  0  0  0  0  0
    9.8195   43.5155  129.8664 O   0  0  0  0  0  0  0  0  0  0  0  0
    7.0473   50.0447  129.7015 C   0  0  0  0  0  0  0  0  0  0  0  0
    7.9810   50.4193  130.8434 C   0  0  0  0  0  0  0  0  0  0  0  0
    9.2902   49.9541  130.4617 O   0  0  0  0  0  0  0  0  0  0  0  0
    9.3885   48.6155  130.1260 C   0  0  0  0  0  0  0  0  0  0  0  0
   10.6262   47.9651  130.1094 C   0  0  0  0  0  0  0  0  0  0  0  0
   10.6458   46.6293  129.7650 C   0  0  0  0  0  0  0  0  0  0  0  0
    9.5031   45.9341  129.4438 C   0  0  0  0  0  0  0  0  0  0  0  0
    8.3119   46.5878  129.4668 C   0  0  0  0  0  0  0  0  0  0  0  0
    8.2322   47.9359  129.8071 C   0  0  0  0  0  0  0  0  0  0  0  0
    7.0040   48.5801  129.8234 O   0  0  0  0  0  0  0  0  0  0  0  0
    5.6590   50.5565  129.8682 C   0  0  0  0  0  0  0  0  0  0  0  0
    4.6221   48.5143  129.2639 C   0  0  0  0  0  0  0  0  0  0  0  0
    4.6048   49.8266  129.5269 O   0  0  0  0  0  0  0  0  0  0  0  0
   10.0898   40.7466  129.8414 S   0  0  0  0  0  0  0  0  0  0  0  0
   10.7825   40.7366  131.4982 C   0  0  0  0  0  0  0  0  0  0  0  0
   10.8452   42.0808  132.1063 C   0  0  0  0  0  0  0  0  0  0  0  0
   11.9128   42.9091  131.7608 C   0  0  0  0  0  0  0  0  0  0  0  0
   12.0318   44.1640  132.3148 C   0  0  0  0  0  0  0  0  0  0  0  0
   11.1266   44.6601  133.2178 C   0  0  0  0  0  0  0  0  0  0  0  0
   10.0720   43.8354  133.5563 C   0  0  0  0  0  0  0  0  0  0  0  0
    9.9482   42.5726  133.0025 C   0  0  0  0  0  0  0  0  0  0  0  0
   11.2009   45.9807  133.8231 C   0  0  0  0  0  0  0  0  0  0  0  0
   12.3828   46.4121  134.4397 C   0  0  0  0  0  0  0  0  0  0  0  0
   12.4750   47.6610  135.0043 C   0  0  0  0  0  0  0  0  0  0  0  0
   11.4193   48.5460  134.9935 C   0  0  0  0  0  0  0  0  0  0  0  0
   10.2520   48.1369  134.3920 C   0  0  0  0  0  0  0  0  0  0  0  0
   10.1537   46.8660  133.8160 C   0  0  0  0  0  0  0  0  0  0  0  0
    8.9069   46.4782  133.2115 C   0  0  0  0  0  0  0  0  0  0  0  0
    7.8955   46.1465  132.7396 N   0  0  0  0  0  0  0  0  0  0  0  0
 17 18  1  0  0  0
 18 16  1  0  0  0
 16  6  1  0  0  0
  6  7  1  0  0  0
  7  8  1  0  0  0
  8  9  1  0  0  0
  9 10  2  0  0  0
 10 11  1  0  0  0
 11 12  2  0  0  0
 12  1  1  0  0  0
  1  2  2  0  0  0
  2  3  1  0  0  0
  3  4  2  0  0  0
  4 19  1  0  0  0
 19 20  1  0  0  0
 20 21  1  0  0  0
 21 22  2  0  0  0
 22 23  1  0  0  0
 23 24  2  0  0  0
 24 27  1  0  0  0
 27 28  2  0  0  0
 28 29  1  0  0  0
 29 30  2  0  0  0
 30 31  1  0  0  0
 31 32  2  0  0  0
 32 33  1  0  0  0
 33 34  3  0  0  0
 24 25  1  0  0  0
 25 26  2  0  0  0
  4  5  1  0  0  0
 12 13  1  0  0  0
 13 14  2  0  0  0
 14 15  1  0  0  0
 15  6  1  0  0  0
 14  9  1  0  0  0
  5  1  1  0  0  0
 26 21  1  0  0  0
 32 27  1  0  0  0
M  END
> <minimizedAffinity>
5.39503

> <CNNscore>
0.3531815112

> <CNNaffinity>
7.6266732216

> <CNN_VS>
2.6935999393

> <CNNaffinity_variance>
0.5244014263

$$$$
[H]c1c([H])c([H])c(-c2c([H])c([H])c(C([H])([H])Sc3nnc(-c4c([H])c([H])c5c(c4[H])O[C@@]([H])(C([H])([H])OC([H])([H])[H])C([H])([H])O5)o3)c([H])c2[H])c(C#N)c1[H]


 34 38  0  0  0  0  0  0  0  0999 V2000
   11.2004   43.6817  133.0778 C   0  0  0  0  0  0  0  0  0  0  0  0
   12.3282   43.2443  133.6358 N   0  0  0  0  0  0  0  0  0  0  0  0
   12.3135   43.5780  134.9079 N   0  0  0  0  0  0  0  0  0  0  0  0
   11.1749   44.2288  135.1606 C   0  0  0  0  0  0  0  0  0  0  0  0
   10.5200   44.2675  133.9971 O   0  0  0  0  0  0  0  0  0  0  0  0
    9.9678   45.3570  127.3222 C   0  0  0  0  0  0  0  0  0  0  0  0
   10.3619   43.9952  126.7692 C   0  0  0  0  0  0  0  0  0  0  0  0
    9.8027   43.0185  127.6689 O   0  0  0  0  0  0  0  0  0  0  0  0
   10.1382   43.1557  129.0041 C   0  0  0  0  0  0  0  0  0  0  0  0
    9.9853   42.0924  129.8992 C   0  0  0  0  0  0  0  0  0  0  0  0
   10.3412   42.3038  131.2153 C   0  0  0  0  0  0  0  0  0  0  0  0
   10.8324   43.5086  131.6615 C   0  0  0  0  0  0  0  0  0  0  0  0
   10.9719   44.5274  130.7729 C   0  0  0  0  0  0  0  0  0  0  0  0
   10.6288   44.3708  129.4323 C   0  0  0  0  0  0  0  0  0  0  0  0
   10.7809   45.4262  128.5453 O   0  0  0  0  0  0  0  0  0  0  0  0
   10.3617   46.4969  126.4488 C   0  0  0  0  0  0  0  0  0  0  0  0
   10.0375   47.5111  124.3329 C   0  0  0  0  0  0  0  0  0  0  0  0
   10.2008   46.4502  125.1325 O   0  0  0  0  0  0  0  0  0  0  0  0
   10.6250   44.9077  136.7026 S   0  0  0  0  0  0  0  0  0  0  0  0
    9.5900   46.3658  136.5358 C   0  0  0  0  0  0  0  0  0  0  0  0
    9.1932   46.6359  135.1393 C   0  0  0  0  0  0  0  0  0  0  0  0
    9.9121   47.5948  134.4258 C   0  0  0  0  0  0  0  0  0  0  0  0
    9.5709   47.9013  133.1276 C   0  0  0  0  0  0  0  0  0  0  0  0
    8.5276   47.2941  132.4764 C   0  0  0  0  0  0  0  0  0  0  0  0
    7.8195   46.3461  133.1881 C   0  0  0  0  0  0  0  0  0  0  0  0
    8.1581   46.0346  134.4937 C   0  0  0  0  0  0  0  0  0  0  0  0
    8.1337   47.5740  131.1044 C   0  0  0  0  0  0  0  0  0  0  0  0
    7.5096   46.5863  130.3308 C   0  0  0  0  0  0  0  0  0  0  0  0
    7.1188   46.8374  129.0380 C   0  0  0  0  0  0  0  0  0  0  0  0
    7.3187   48.0626  128.4407 C   0  0  0  0  0  0  0  0  0  0  0  0
    7.9305   49.0425  129.1873 C   0  0  0  0  0  0  0  0  0  0  0  0
    8.3302   48.7910  130.5040 C   0  0  0  0  0  0  0  0  0  0  0  0
    8.9795   49.8433  131.2396 C   0  0  0  0  0  0  0  0  0  0  0  0
    9.4863   50.6945  131.8515 N   0  0  0  0  0  0  0  0  0  0  0  0
 17 18  1  0  0  0
 18 16  1  0  0  0
 16  6  1  0  0  0
  6  7  1  0  0  0
  7  8  1  0  0  0
  8  9  1  0  0  0
  9 10  2  0  0  0
 10 11  1  0  0  0
 11 12  2  0  0  0
 12  1  1  0  0  0
  1  2  2  0  0  0
  2  3  1  0  0  0
  3  4  2  0  0  0
  4 19  1  0  0  0
 19 20  1  0  0  0
 20 21  1  0  0  0
 21 22  2  0  0  0
 22 23  1  0  0  0
 23 24  2  0  0  0
 24 27  1  0  0  0
 27 28  2  0  0  0
 28 29  1  0  0  0
 29 30  2  0  0  0
 30 31  1  0  0  0
 31 32  2  0  0  0
 32 33  1  0  0  0
 33 34  3  0  0  0
 24 25  1  0  0  0
 25 26  2  0  0  0
  4  5  1  0  0  0
 12 13  1  0  0  0
 13 14  2  0  0  0
 14 15  1  0  0  0
 15  6  1  0  0  0
 14  9  1  0  0  0
  5  1  1  0  0  0
 26 21  1  0  0  0
 32 27  1  0  0  0
M  END
> <minimizedAffinity>
7.20594

> <CNNscore>
0.3526357710

> <CNNaffinity>
7.4795026779

> <CNN_VS>
2.6375401020

> <CNNaffinity_variance>
0.4298802316

$$$$
[H]c1c([H])c([H])c(C2([H])C([H])([H])[C@]2([H])N([H])C([H])([H])c2c([H])c([H])c(OC([H])([H])[H])c3c([H])c([H])c([H])c([H])c23)c([H])c1[H]


 24 27  0  0  0  0  0  0  0  0999 V2000
    7.6900   46.9051  130.4045 C   0  0  0  0  0  0  0  0  0  0  0  0
    7.4237   45.7020  131.0091 C   0  0  0  0  0  0  0  0  0  0  0  0
    7.8905   45.3945  132.2794 C   0  0  0  0  0  0  0  0  0  0  0  0
    8.6487   46.3004  132.9865 C   0  0  0  0  0  0  0  0  0  0  0  0
    8.9242   47.5269  132.3787 C   0  0  0  0  0  0  0  0  0  0  0  0
    9.6844   48.4279  133.0954 C   0  0  0  0  0  0  0  0  0  0  0  0
    9.9489   49.6401  132.4785 C   0  0  0  0  0  0  0  0  0  0  0  0
    9.4880   49.9461  131.2225 C   0  0  0  0  0  0  0  0  0  0  0  0
    8.7298   49.0363  130.5183 C   0  0  0  0  0  0  0  0  0  0  0  0
    8.4508   47.8071  131.1212 C   0  0  0  0  0  0  0  0  0  0  0  0
    5.8455   47.5135  128.9276 C   0  0  0  0  0  0  0  0  0  0  0  0
    7.2157   47.2078  129.1234 O   0  0  0  0  0  0  0  0  0  0  0  0
    9.1585   46.0089  134.3531 C   0  0  0  0  0  0  0  0  0  0  0  0
   10.2853   45.1343  134.2550 N   0  0  0  0  0  0  0  0  0  0  0  0
   10.1194   44.1969  134.6988 H   0  0  0  0  0  0  0  0  0  0  0  0
   10.8181   45.0102  132.9257 C   0  0  0  0  0  0  0  0  0  0  0  0
   12.0476   44.0969  132.8562 C   0  0  0  0  0  0  0  0  0  0  0  0
   10.7882   43.7597  132.1498 C   0  0  0  0  0  0  0  0  0  0  0  0
   10.7327   43.8845  130.6741 C   0  0  0  0  0  0  0  0  0  0  0  0
    9.8975   43.1402  129.8737 C   0  0  0  0  0  0  0  0  0  0  0  0
    9.8648   43.2740  128.5133 C   0  0  0  0  0  0  0  0  0  0  0  0
   10.6829   44.1754  127.8925 C   0  0  0  0  0  0  0  0  0  0  0  0
   11.5316   44.9366  128.6671 C   0  0  0  0  0  0  0  0  0  0  0  0
   11.5525   44.7892  130.0423 C   0  0  0  0  0  0  0  0  0  0  0  0
 11 12  1  0  0  0
 12  1  1  0  0  0
  1  2  2  0  0  0
  2  3  1  0  0  0
  3  4  2  0  0  0
  4 13  1  0  0  0
 13 14  1  0  0  0
 14 16  1  0  0  0
 16 17  1  0  0  0
 17 18  1  0  0  0
 18 19  1  0  0  0
 19 20  2  0  0  0
 20 21  1  0  0  0
 21 22  2  0  0  0
 22 23  1  0  0  0
 23 24  2  0  0  0
  4  5  1  0  0  0
  5  6  2  0  0  0
  6  7  1  0  0  0
  7  8  2  0  0  0
  8  9  1  0  0  0
  9 10  2  0  0  0
 10  1  1  0  0  0
 18 16  1  0  0  0
 24 19  1  0  0  0
 10  5  1  0  0  0
 14 15  1  0  0  0
M  END
> <minimizedAffinity>
-9.83639

> <CNNscore>
0.4953120947

> <CNNaffinity>
7.2391138077

> <CNN_VS>
3.5856206417

> <CNNaffinity_variance>
0.0069680214

$$$$
[H]c1c([H])c([H])c(C2([H])C([H])([H])[C@]2([H])N([H])C([H])([H])c2c([H])c([H])c(OC([H])([H])[H])c3c([H])c([H])c([H])c([H])c23)c([H])c1[H]


 24 27  0  0  0  0  0  0  0  0999 V2000
   13.0777   44.7890  129.4565 C   0  0  0  0  0  0  0  0  0  0  0  0
   12.2727   44.6307  128.3561 C   0  0  0  0  0  0  0  0  0  0  0  0
   10.8879   44.6595  128.4438 C   0  0  0  0  0  0  0  0  0  0  0  0
   10.2657   44.8505  129.6570 C   0  0  0  0  0  0  0  0  0  0  0  0
   11.0772   45.0124  130.7816 C   0  0  0  0  0  0  0  0  0  0  0  0
   10.4442   45.2035  131.9925 C   0  0  0  0  0  0  0  0  0  0  0  0
   11.2635   45.3626  133.0985 C   0  0  0  0  0  0  0  0  0  0  0  0
   12.6330   45.3346  133.0138 C   0  0  0  0  0  0  0  0  0  0  0  0
   13.2515   45.1429  131.7976 C   0  0  0  0  0  0  0  0  0  0  0  0
   12.4448   44.9801  130.6685 C   0  0  0  0  0  0  0  0  0  0  0  0
   15.0937   44.1994  128.2151 C   0  0  0  0  0  0  0  0  0  0  0  0
   14.4732   44.7589  129.3601 O   0  0  0  0  0  0  0  0  0  0  0  0
    8.7846   44.8957  129.7877 C   0  0  0  0  0  0  0  0  0  0  0  0
    8.2192   45.3322  128.5492 N   0  0  0  0  0  0  0  0  0  0  0  0
    7.3740   44.7778  128.2636 H   0  0  0  0  0  0  0  0  0  0  0  0
    7.9791   46.7477  128.4800 C   0  0  0  0  0  0  0  0  0  0  0  0
    6.7836   47.1096  127.5909 C   0  0  0  0  0  0  0  0  0  0  0  0
    6.7865   47.4000  129.0449 C   0  0  0  0  0  0  0  0  0  0  0  0
    6.9385   48.8019  129.5007 C   0  0  0  0  0  0  0  0  0  0  0  0
    5.9295   49.5299  130.0874 C   0  0  0  0  0  0  0  0  0  0  0  0
    6.0947   50.8231  130.4998 C   0  0  0  0  0  0  0  0  0  0  0  0
    7.2996   51.4467  130.3367 C   0  0  0  0  0  0  0  0  0  0  0  0
    8.3310   50.7439  129.7519 C   0  0  0  0  0  0  0  0  0  0  0  0
    8.1475   49.4361  129.3402 C   0  0  0  0  0  0  0  0  0  0  0  0
 11 12  1  0  0  0
 12  1  1  0  0  0
  1  2  2  0  0  0
  2  3  1  0  0  0
  3  4  2  0  0  0
  4 13  1  0  0  0
 13 14  1  0  0  0
 14 16  1  0  0  0
 16 17  1  0  0  0
 17 18  1  0  0  0
 18 19  1  0  0  0
 19 20  2  0  0  0
 20 21  1  0  0  0
 21 22  2  0  0  0
 22 23  1  0  0  0
 23 24  2  0  0  0
  4  5  1  0  0  0
  5  6  2  0  0  0
  6  7  1  0  0  0
  7  8  2  0  0  0
  8  9  1  0  0  0
  9 10  2  0  0  0
 10  1  1  0  0  0
 18 16  1  0  0  0
 24 19  1  0  0  0
 10  5  1  0  0  0
 14 15  1  0  0  0
M  END
> <minimizedAffinity>
4.15258

> <CNNscore>
0.4853709638

> <CNNaffinity>
6.7741823196

> <CNN_VS>
3.2879912853

> <CNNaffinity_variance>
2.2453656197

$$$$
[H]c1c([H])c([H])c(C2([H])C([H])([H])[C@]2([H])N([H])C([H])([H])c2c([H])c([H])c(OC([H])([H])[H])c3c([H])c([H])c([H])c([H])c23)c([H])c1[H]


 24 27  0  0  0  0  0  0  0  0999 V2000
    9.8301   42.1215  127.5002 C   0  0  0  0  0  0  0  0  0  0  0  0
    9.6526   43.4773  127.3809 C   0  0  0  0  0  0  0  0  0  0  0  0
    9.6931   44.3268  128.4777 C   0  0  0  0  0  0  0  0  0  0  0  0
    9.9159   43.8296  129.7421 C   0  0  0  0  0  0  0  0  0  0  0  0
   10.0976   42.4514  129.8723 C   0  0  0  0  0  0  0  0  0  0  0  0
   10.3205   41.9631  131.1433 C   0  0  0  0  0  0  0  0  0  0  0  0
   10.4989   40.5936  131.2555 C   0  0  0  0  0  0  0  0  0  0  0  0
   10.4594   39.7520  130.1721 C   0  0  0  0  0  0  0  0  0  0  0  0
   10.2358   40.2539  128.9085 C   0  0  0  0  0  0  0  0  0  0  0  0
   10.0532   41.6323  128.7718 C   0  0  0  0  0  0  0  0  0  0  0  0
    8.7583   41.4132  125.4258 C   0  0  0  0  0  0  0  0  0  0  0  0
    9.7880   41.2715  126.3896 O   0  0  0  0  0  0  0  0  0  0  0  0
    9.9746   44.7106  130.9392 C   0  0  0  0  0  0  0  0  0  0  0  0
    9.7804   46.0671  130.5313 N   0  0  0  0  0  0  0  0  0  0  0  0
    8.9419   46.1953  129.9117 H   0  0  0  0  0  0  0  0  0  0  0  0
    9.7960   47.0134  131.6132 C   0  0  0  0  0  0  0  0  0  0  0  0
    8.9075   48.2354  131.3529 C   0  0  0  0  0  0  0  0  0  0  0  0
    8.6295   47.2953  132.4655 C   0  0  0  0  0  0  0  0  0  0  0  0
    8.9011   47.7243  133.8577 C   0  0  0  0  0  0  0  0  0  0  0  0
   10.1644   47.8485  134.3879 C   0  0  0  0  0  0  0  0  0  0  0  0
   10.3892   48.2464  135.6766 C   0  0  0  0  0  0  0  0  0  0  0  0
    9.3371   48.5404  136.4975 C   0  0  0  0  0  0  0  0  0  0  0  0
    8.0585   48.4258  135.9958 C   0  0  0  0  0  0  0  0  0  0  0  0
    7.8480   48.0218  134.6896 C   0  0  0  0  0  0  0  0  0  0  0  0
 11 12  1  0  0  0
 12  1  1  0  0  0
  1  2  2  0  0  0
  2  3  1  0  0  0
  3  4  2  0  0  0
  4 13  1  0  0  0
 13 14  1  0  0  0
 14 16  1  0  0  0
 16 17  1  0  0  0
 17 18  1  0  0  0
 18 19  1  0  0  0
 19 20  2  0  0  0
 20 21  1  0  0  0
 21 22  2  0  0  0
 22 23  1  0  0  0
 23 24  2  0  0  0
  4  5  1  0  0  0
  5  6  2  0  0  0
  6  7  1  0  0  0
  7  8  2  0  0  0
  8  9  1  0  0  0
  9 10  2  0  0  0
 10  1  1  0  0  0
 18 16  1  0  0  0
 24 19  1  0  0  0
 10  5  1  0  0  0
 14 15  1  0  0  0
M  END
> <minimizedAffinity>
30.55046

> <CNNscore>
0.4611391425

> <CNNaffinity>
6.4761095047

> <CNN_VS>
2.9863874912

> <CNNaffinity_variance>
2.4965577126

$$$$
[H]c1c([H])c([H])c(C2([H])C([H])([H])[C@]2([H])N([H])C([H])([H])c2c([H])c([H])c(OC([H])([H])[H])c3c([H])c([H])c([H])c([H])c23)c([H])c1[H]


 24 27  0  0  0  0  0  0  0  0999 V2000
   12.1227   43.7279  134.4085 C   0  0  0  0  0  0  0  0  0  0  0  0
   11.3147   43.4030  135.4694 C   0  0  0  0  0  0  0  0  0  0  0  0
   10.0389   43.9298  135.6146 C   0  0  0  0  0  0  0  0  0  0  0  0
    9.5335   44.8102  134.6846 C   0  0  0  0  0  0  0  0  0  0  0  0
   10.3489   45.1460  133.6021 C   0  0  0  0  0  0  0  0  0  0  0  0
    9.8333   46.0287  132.6756 C   0  0  0  0  0  0  0  0  0  0  0  0
   10.6548   46.3517  131.6076 C   0  0  0  0  0  0  0  0  0  0  0  0
   11.9165   45.8317  131.4621 C   0  0  0  0  0  0  0  0  0  0  0  0
   12.4185   44.9511  132.3954 C   0  0  0  0  0  0  0  0  0  0  0  0
   11.6072   44.6112  133.4811 C   0  0  0  0  0  0  0  0  0  0  0  0
   13.6606   42.1994  133.2897 C   0  0  0  0  0  0  0  0  0  0  0  0
   13.4078   43.1926  134.2690 O   0  0  0  0  0  0  0  0  0  0  0  0
    8.1679   45.3878  134.8029 C   0  0  0  0  0  0  0  0  0  0  0  0
    8.2135   46.7721  134.4481 N   0  0  0  0  0  0  0  0  0  0  0  0
    8.9110   47.3194  135.0114 H   0  0  0  0  0  0  0  0  0  0  0  0
    8.3579   47.0122  133.0382 C   0  0  0  0  0  0  0  0  0  0  0  0
    7.6261   45.9767  132.1763 C   0  0  0  0  0  0  0  0  0  0  0  0
    7.2442   47.4094  132.1615 C   0  0  0  0  0  0  0  0  0  0  0  0
    7.5811   48.2340  130.9772 C   0  0  0  0  0  0  0  0  0  0  0  0
    8.7201   48.9986  130.8755 C   0  0  0  0  0  0  0  0  0  0  0  0
    9.0088   49.7515  129.7712 C   0  0  0  0  0  0  0  0  0  0  0  0
    8.1510   49.7666  128.7077 C   0  0  0  0  0  0  0  0  0  0  0  0
    7.0007   49.0108  128.7787 C   0  0  0  0  0  0  0  0  0  0  0  0
    6.7233   48.2544  129.9032 C   0  0  0  0  0  0  0  0  0  0  0  0
 11 12  1  0  0  0
 12  1  1  0  0  0
  1  2  2  0  0  0
  2  3  1  0  0  0
  3  4  2  0  0  0
  4 13  1  0  0  0
 13 14  1  0  0  0
 14 16  1  0  0  0
 16 17  1  0  0  0
 17 18  1  0  0  0
 18 19  1  0  0  0
 19 20  2  0  0  0
 20 21  1  0  0  0
 21 22  2  0  0  0
 22 23  1  0  0  0
 23 24  2  0  0  0
  4  5  1  0  0  0
  5  6  2  0  0  0
  6  7  1  0  0  0
  7  8  2  0  0  0
  8  9  1  0  0  0
  9 10  2  0  0  0
 10  1  1  0  0  0
 18 16  1  0  0  0
 24 19  1  0  0  0
 10  5  1  0  0  0
 14 15  1  0  0  0
M  END
> <minimizedAffinity>
8.62456

> <CNNscore>
0.4103962481

> <CNNaffinity>
6.8066673279

> <CNN_VS>
2.7934308052

> <CNNaffinity_variance>
1.5170555115

$$$$
[H]c1c([H])c([H])c(C2([H])C([H])([H])[C@]2([H])N([H])C([H])([H])c2c([H])c([H])c(OC([H])([H])[H])c3c([H])c([H])c([H])c([H])c23)c([H])c1[H]


 24 27  0  0  0  0  0  0  0  0999 V2000
   10.1619   47.1439  133.9228 C   0  0  0  0  0  0  0  0  0  0  0  0
    9.3777   48.2699  133.9531 C   0  0  0  0  0  0  0  0  0  0  0  0
    9.0760   48.9909  132.8061 C   0  0  0  0  0  0  0  0  0  0  0  0
    9.5615   48.5943  131.5803 C   0  0  0  0  0  0  0  0  0  0  0  0
   10.3601   47.4497  131.5407 C   0  0  0  0  0  0  0  0  0  0  0  0
   10.8414   47.0603  130.3076 C   0  0  0  0  0  0  0  0  0  0  0  0
   11.6321   45.9228  130.2853 C   0  0  0  0  0  0  0  0  0  0  0  0
   11.9314   45.2084  131.4183 C   0  0  0  0  0  0  0  0  0  0  0  0
   11.4436   45.6091  132.6431 C   0  0  0  0  0  0  0  0  0  0  0  0
   10.6439   46.7539  132.6893 C   0  0  0  0  0  0  0  0  0  0  0  0
    9.8292   45.1776  135.3286 C   0  0  0  0  0  0  0  0  0  0  0  0
   10.4616   46.4223  135.0835 O   0  0  0  0  0  0  0  0  0  0  0  0
    9.2519   49.3369  130.3292 C   0  0  0  0  0  0  0  0  0  0  0  0
    8.0113   48.8632  129.7993 N   0  0  0  0  0  0  0  0  0  0  0  0
    7.9458   48.9581  128.7553 H   0  0  0  0  0  0  0  0  0  0  0  0
    7.6502   47.5436  130.2404 C   0  0  0  0  0  0  0  0  0  0  0  0
    6.5216   46.9223  129.4093 C   0  0  0  0  0  0  0  0  0  0  0  0
    7.8794   46.3274  129.4435 C   0  0  0  0  0  0  0  0  0  0  0  0
    8.0958   45.0651  130.1891 C   0  0  0  0  0  0  0  0  0  0  0  0
    8.4741   43.8820  129.5980 C   0  0  0  0  0  0  0  0  0  0  0  0
    8.6676   42.7297  130.3083 C   0  0  0  0  0  0  0  0  0  0  0  0
    8.4860   42.7197  131.6626 C   0  0  0  0  0  0  0  0  0  0  0  0
    8.1068   43.8897  132.2847 C   0  0  0  0  0  0  0  0  0  0  0  0
    7.9151   45.0471  131.5517 C   0  0  0  0  0  0  0  0  0  0  0  0
 11 12  1  0  0  0
 12  1  1  0  0  0
  1  2  2  0  0  0
  2  3  1  0  0  0
  3  4  2  0  0  0
  4 13  1  0  0  0
 13 14  1  0  0  0
 14 16  1  0  0  0
 16 17  1  0  0  0
 17 18  1  0  0  0
 18 19  1  0  0  0
 19 20  2  0  0  0
 20 21  1  0  0  0
 21 22  2  0  0  0
 22 23  1  0  0  0
 23 24  2  0  0  0
  4  5  1  0  0  0
  5  6  2  0  0  0
  6  7  1  0  0  0
  7  8  2  0  0  0
  8  9  1  0  0  0
  9 10  2  0  0  0
 10  1  1  0  0  0
 18 16  1  0  0  0
 24 19  1  0  0  0
 10  5  1  0  0  0
 14 15  1  0  0  0
M  END
> <minimizedAffinity>
-5.15473

> <CNNscore>
0.3737195432

> <CNNaffinity>
6.9784989357

> <CNN_VS>
2.6080014706

> <CNNaffinity_variance>
0.2831484079

$$$$
[H]c1c([H])c([H])c(C2([H])C([H])([H])[C@]2([H])N([H])C([H])([H])c2c([H])c([H])c(OC([H])([H])[H])c3c([H])c([H])c([H])c([H])c23)c([H])c1[H]


 24 27  0  0  0  0  0  0  0  0999 V2000
    6.9329   49.4874  129.8696 C   0  0  0  0  0  0  0  0  0  0  0  0
    6.3526   48.6516  128.9483 C   0  0  0  0  0  0  0  0  0  0  0  0
    6.9015   47.4200  128.6195 C   0  0  0  0  0  0  0  0  0  0  0  0
    8.0652   46.9890  129.2159 C   0  0  0  0  0  0  0  0  0  0  0  0
    8.6619   47.8331  130.1544 C   0  0  0  0  0  0  0  0  0  0  0  0
    9.8274   47.3920  130.7466 C   0  0  0  0  0  0  0  0  0  0  0  0
   10.4070   48.2411  131.6756 C   0  0  0  0  0  0  0  0  0  0  0  0
    9.8656   49.4593  132.0022 C   0  0  0  0  0  0  0  0  0  0  0  0
    8.7011   49.8868  131.4026 C   0  0  0  0  0  0  0  0  0  0  0  0
    8.0991   49.0465  130.4624 C   0  0  0  0  0  0  0  0  0  0  0  0
    5.0190   50.8095  130.6062 C   0  0  0  0  0  0  0  0  0  0  0  0
    6.3733   50.7276  130.1959 O   0  0  0  0  0  0  0  0  0  0  0  0
    8.6774   45.6719  128.8949 C   0  0  0  0  0  0  0  0  0  0  0  0
    7.9464   44.6412  129.5638 N   0  0  0  0  0  0  0  0  0  0  0  0
    7.6196   43.8811  128.9167 H   0  0  0  0  0  0  0  0  0  0  0  0
    8.6094   44.1089  130.7228 C   0  0  0  0  0  0  0  0  0  0  0  0
    9.1848   42.7066  130.4924 C   0  0  0  0  0  0  0  0  0  0  0  0
   10.0596   43.8659  130.7917 C   0  0  0  0  0  0  0  0  0  0  0  0
   10.6957   43.9643  132.1265 C   0  0  0  0  0  0  0  0  0  0  0  0
   11.9388   43.4545  132.4218 C   0  0  0  0  0  0  0  0  0  0  0  0
   12.5047   43.5582  133.6622 C   0  0  0  0  0  0  0  0  0  0  0  0
   11.8337   44.1885  134.6720 C   0  0  0  0  0  0  0  0  0  0  0  0
   10.5856   44.7103  134.4079 C   0  0  0  0  0  0  0  0  0  0  0  0
   10.0271   44.5970  133.1475 C   0  0  0  0  0  0  0  0  0  0  0  0
 11 12  1  0  0  0
 12  1  1  0  0  0
  1  2  2  0  0  0
  2  3  1  0  0  0
  3  4  2  0  0  0
  4 13  1  0  0  0
 13 14  1  0  0  0
 14 16  1  0  0  0
 16 17  1  0  0  0
 17 18  1  0  0  0
 18 19  1  0  0  0
 19 20  2  0  0  0
 20 21  1  0  0  0
 21 22  2  0  0  0
 22 23  1  0  0  0
 23 24  2  0  0  0
  4  5  1  0  0  0
  5  6  2  0  0  0
  6  7  1  0  0  0
  7  8  2  0  0  0
  8  9  1  0  0  0
  9 10  2  0  0  0
 10  1  1  0  0  0
 18 16  1  0  0  0
 24 19  1  0  0  0
 10  5  1  0  0  0
 14 15  1  0  0  0
M  END
> <minimizedAffinity>
-6.40898

> <CNNscore>
0.3635029495

> <CNNaffinity>
7.0277709961

> <CNN_VS>
2.5546154976

> <CNNaffinity_variance>
0.1850525588

$$$$
[H]c1c([H])c([H])c(C2([H])C([H])([H])[C@]2([H])N([H])C([H])([H])c2c([H])c([H])c(OC([H])([H])[H])c3c([H])c([H])c([H])c([H])c23)c([H])c1[H]


 24 27  0  0  0  0  0  0  0  0999 V2000
   11.4251   45.5321  132.5412 C   0  0  0  0  0  0  0  0  0  0  0  0
   11.6981   46.1550  131.3490 C   0  0  0  0  0  0  0  0  0  0  0  0
   11.0637   47.3288  130.9667 C   0  0  0  0  0  0  0  0  0  0  0  0
   10.1241   47.9164  131.7836 C   0  0  0  0  0  0  0  0  0  0  0  0
    9.8404   47.2891  132.9983 C   0  0  0  0  0  0  0  0  0  0  0  0
    8.8977   47.8860  133.8099 C   0  0  0  0  0  0  0  0  0  0  0  0
    8.6277   47.2512  135.0116 C   0  0  0  0  0  0  0  0  0  0  0  0
    9.2541   46.0907  135.3915 C   0  0  0  0  0  0  0  0  0  0  0  0
   10.1936   45.5059  134.5707 C   0  0  0  0  0  0  0  0  0  0  0  0
   10.4818   46.1288  133.3537 C   0  0  0  0  0  0  0  0  0  0  0  0
   12.0491   43.2232  132.0586 C   0  0  0  0  0  0  0  0  0  0  0  0
   12.0690   44.3490  132.9196 O   0  0  0  0  0  0  0  0  0  0  0  0
    9.4306   49.1784  131.4109 C   0  0  0  0  0  0  0  0  0  0  0  0
    8.2924   48.8656  130.6041 N   0  0  0  0  0  0  0  0  0  0  0  0
    8.3228   49.3160  129.6557 H   0  0  0  0  0  0  0  0  0  0  0  0
    8.0007   47.4605  130.5201 C   0  0  0  0  0  0  0  0  0  0  0  0
    6.9324   47.1324  129.4705 C   0  0  0  0  0  0  0  0  0  0  0  0
    8.3223   46.6308  129.3476 C   0  0  0  0  0  0  0  0  0  0  0  0
    8.5960   45.1952  129.5938 C   0  0  0  0  0  0  0  0  0  0  0  0
    9.2427   44.3746  128.6989 C   0  0  0  0  0  0  0  0  0  0  0  0
    9.4835   43.0522  128.9495 C   0  0  0  0  0  0  0  0  0  0  0  0
    9.0779   42.4921  130.1280 C   0  0  0  0  0  0  0  0  0  0  0  0
    8.4271   43.2883  131.0458 C   0  0  0  0  0  0  0  0  0  0  0  0
    8.1911   44.6245  130.7770 C   0  0  0  0  0  0  0  0  0  0  0  0
 11 12  1  0  0  0
 12  1  1  0  0  0
  1  2  2  0  0  0
  2  3  1  0  0  0
  3  4  2  0  0  0
  4 13  1  0  0  0
 13 14  1  0  0  0
 14 16  1  0  0  0
 16 17  1  0  0  0
 17 18  1  0  0  0
 18 19  1  0  0  0
 19 20  2  0  0  0
 20 21  1  0  0  0
 21 22  2  0  0  0
 22 23  1  0  0  0
 23 24  2  0  0  0
  4  5  1  0  0  0
  5  6  2  0  0  0
  6  7  1  0  0  0
  7  8  2  0  0  0
  8  9  1  0  0  0
  9 10  2  0  0  0
 10  1  1  0  0  0
 18 16  1  0  0  0
 24 19  1  0  0  0
 10  5  1  0  0  0
 14 15  1  0  0  0
M  END
> <minimizedAffinity>
-6.64945

> <CNNscore>
0.3530498743

> <CNNaffinity>
6.9865303040

> <CNN_VS>
2.4665937424

> <CNNaffinity_variance>
0.1081543714

$$$$
[H]c1c([H])c([H])c(C2([H])C([H])([H])[C@]2([H])N([H])C([H])([H])c2c([H])c([H])c(OC([H])([H])[H])c3c([H])c([H])c([H])c([H])c23)c([H])c1[H]


 24 27  0  0  0  0  0  0  0  0999 V2000
   11.3641   46.3555  132.6041 C   0  0  0  0  0  0  0  0  0  0  0  0
   10.7447   47.5117  133.0083 C   0  0  0  0  0  0  0  0  0  0  0  0
   10.0541   48.3279  132.1234 C   0  0  0  0  0  0  0  0  0  0  0  0
    9.9664   47.9997  130.7892 C   0  0  0  0  0  0  0  0  0  0  0  0
   10.5937   46.8251  130.3695 C   0  0  0  0  0  0  0  0  0  0  0  0
   10.4997   46.5049  129.0308 C   0  0  0  0  0  0  0  0  0  0  0  0
   11.1274   45.3363  128.6305 C   0  0  0  0  0  0  0  0  0  0  0  0
   11.8106   44.5278  129.5041 C   0  0  0  0  0  0  0  0  0  0  0  0
   11.8962   44.8602  130.8385 C   0  0  0  0  0  0  0  0  0  0  0  0
   11.2705   46.0346  131.2645 C   0  0  0  0  0  0  0  0  0  0  0  0
   11.3501   44.6311  134.3303 C   0  0  0  0  0  0  0  0  0  0  0  0
   12.0585   45.5377  133.5023 O   0  0  0  0  0  0  0  0  0  0  0  0
    9.2276   48.8455  129.8137 C   0  0  0  0  0  0  0  0  0  0  0  0
    7.8426   48.4918  129.8432 N   0  0  0  0  0  0  0  0  0  0  0  0
    7.3989   48.4830  128.8912 H   0  0  0  0  0  0  0  0  0  0  0  0
    7.5595   47.2884  130.5767 C   0  0  0  0  0  0  0  0  0  0  0  0
    6.2771   46.5900  130.1096 C   0  0  0  0  0  0  0  0  0  0  0  0
    7.6050   45.9426  129.9822 C   0  0  0  0  0  0  0  0  0  0  0  0
    7.9500   44.8193  130.8852 C   0  0  0  0  0  0  0  0  0  0  0  0
    8.3020   43.5641  130.4460 C   0  0  0  0  0  0  0  0  0  0  0  0
    8.6162   42.5435  131.2999 C   0  0  0  0  0  0  0  0  0  0  0  0
    8.5890   42.7461  132.6509 C   0  0  0  0  0  0  0  0  0  0  0  0
    8.2402   43.9932  133.1228 C   0  0  0  0  0  0  0  0  0  0  0  0
    7.9250   45.0153  132.2456 C   0  0  0  0  0  0  0  0  0  0  0  0
 11 12  1  0  0  0
 12  1  1  0  0  0
  1  2  2  0  0  0
  2  3  1  0  0  0
  3  4  2  0  0  0
  4 13  1  0  0  0
 13 14  1  0  0  0
 14 16  1  0  0  0
 16 17  1  0  0  0
 17 18  1  0  0  0
 18 19  1  0  0  0
 19 20  2  0  0  0
 20 21  1  0  0  0
 21 22  2  0  0  0
 22 23  1  0  0  0
 23 24  2  0  0  0
  4  5  1  0  0  0
  5  6  2  0  0  0
  6  7  1  0  0  0
  7  8  2  0  0  0
  8  9  1  0  0  0
  9 10  2  0  0  0
 10  1  1  0  0  0
 18 16  1  0  0  0
 24 19  1  0  0  0
 10  5  1  0  0  0
 14 15  1  0  0  0
M  END
> <minimizedAffinity>
-7.04233

> <CNNscore>
0.2615455687

> <CNNaffinity>
6.7948198318

> <CNN_VS>
1.7771550417

> <CNNaffinity_variance>
0.0400668457

$$$$
[H]c1c([H])c([H])c(C2([H])C([H])([H])[C@]2([H])N([H])C([H])([H])c2c([H])c([H])c(OC([H])([H])[H])c3c([H])c([H])c([H])c([H])c23)c([H])c1[H]


 24 27  0  0  0  0  0  0  0  0999 V2000
   12.0298   43.6684  132.0196 C   0  0  0  0  0  0  0  0  0  0  0  0
   12.8353   44.3313  131.1276 C   0  0  0  0  0  0  0  0  0  0  0  0
   12.3981   44.6839  129.8584 C   0  0  0  0  0  0  0  0  0  0  0  0
   11.1216   44.3751  129.4453 C   0  0  0  0  0  0  0  0  0  0  0  0
   10.2956   43.7008  130.3466 C   0  0  0  0  0  0  0  0  0  0  0  0
    9.0183   43.3961  129.9233 C   0  0  0  0  0  0  0  0  0  0  0  0
    8.2113   42.7271  130.8294 C   0  0  0  0  0  0  0  0  0  0  0  0
    8.6417   42.3777  132.0849 C   0  0  0  0  0  0  0  0  0  0  0  0
    9.9201   42.6885  132.4941 C   0  0  0  0  0  0  0  0  0  0  0  0
   10.7516   43.3632  131.5965 C   0  0  0  0  0  0  0  0  0  0  0  0
   12.3109   44.2152  134.3808 C   0  0  0  0  0  0  0  0  0  0  0  0
   12.4778   43.3164  133.2975 O   0  0  0  0  0  0  0  0  0  0  0  0
   10.6159   44.7446  128.0961 C   0  0  0  0  0  0  0  0  0  0  0  0
   10.0876   46.0724  128.1425 N   0  0  0  0  0  0  0  0  0  0  0  0
    9.1763   46.1716  127.6298 H   0  0  0  0  0  0  0  0  0  0  0  0
   10.0215   46.6320  129.4648 C   0  0  0  0  0  0  0  0  0  0  0  0
    9.1713   47.9059  129.5341 C   0  0  0  0  0  0  0  0  0  0  0  0
    8.7898   46.6763  130.2697 C   0  0  0  0  0  0  0  0  0  0  0  0
    8.9468   46.6384  131.7428 C   0  0  0  0  0  0  0  0  0  0  0  0
    8.1056   45.9489  132.5850 C   0  0  0  0  0  0  0  0  0  0  0  0
    8.2717   45.9293  133.9421 C   0  0  0  0  0  0  0  0  0  0  0  0
    9.3062   46.6125  134.5168 C   0  0  0  0  0  0  0  0  0  0  0  0
   10.1669   47.3134  133.6997 C   0  0  0  0  0  0  0  0  0  0  0  0
    9.9850   47.3231  132.3284 C   0  0  0  0  0  0  0  0  0  0  0  0
 11 12  1  0  0  0
 12  1  1  0  0  0
  1  2  2  0  0  0
  2  3  1  0  0  0
  3  4  2  0  0  0
  4 13  1  0  0  0
 13 14  1  0  0  0
 14 16  1  0  0  0
 16 17  1  0  0  0
 17 18  1  0  0  0
 18 19  1  0  0  0
 19 20  2  0  0  0
 20 21  1  0  0  0
 21 22  2  0  0  0
 22 23  1  0  0  0
 23 24  2  0  0  0
  4  5  1  0  0  0
  5  6  2  0  0  0
  6  7  1  0  0  0
  7  8  2  0  0  0
  8  9  1  0  0  0
  9 10  2  0  0  0
 10  1  1  0  0  0
 18 16  1  0  0  0
 24 19  1  0  0  0
 10  5  1  0  0  0
 14 15  1  0  0  0
M  END
> <minimizedAffinity>
-8.03045

> <CNNscore>
0.2546310723

> <CNNaffinity>
6.8217020035

> <CNN_VS>
1.7370172739

> <CNNaffinity_variance>
0.2567144334

$$$$
[H]c1nc([H])c([C@@]2([H])N(C([H])([H])[H])C([H])([H])C([H])([H])C2([H])[H])c([H])c1[H]


 12 13  0  0  0  0  0  0  0  0999 V2000
    9.7913   45.6253  129.1153 C   0  0  0  0  0  0  0  0  0  0  0  0
    8.6870   44.9913  129.6888 N   0  0  0  0  0  0  0  0  0  0  0  0
    8.8229   43.6787  130.1784 C   0  0  0  0  0  0  0  0  0  0  0  0
    8.4351   43.8053  131.6376 C   0  0  0  0  0  0  0  0  0  0  0  0
    8.1846   45.2979  131.8835 C   0  0  0  0  0  0  0  0  0  0  0  0
    7.7867   45.7349  130.4718 C   0  0  0  0  0  0  0  0  0  0  0  0
    7.7742   47.1780  130.3193 C   0  0  0  0  0  0  0  0  0  0  0  0
    8.5125   47.9736  131.1685 C   0  0  0  0  0  0  0  0  0  0  0  0
    8.5028   49.3695  131.0287 C   0  0  0  0  0  0  0  0  0  0  0  0
    7.7410   49.9273  130.0264 C   0  0  0  0  0  0  0  0  0  0  0  0
    7.0416   49.1409  129.2249 N   0  0  0  0  0  0  0  0  0  0  0  0
    7.0360   47.8002  129.3406 C   0  0  0  0  0  0  0  0  0  0  0  0
  1  2  1  0  0  0
  2  3  1  0  0  0
  3  4  1  0  0  0
  4  5  1  0  0  0
  5  6  1  0  0  0
  6  7  1  0  0  0
  7  8  2  0  0  0
  8  9  1  0  0  0
  9 10  2  0  0  0
 10 11  1  0  0  0
 11 12  2  0  0  0
  6  2  1  0  0  0
 12  7  1  0  0  0
M  END
> <minimizedAffinity>
-5.71582

> <CNNscore>
0.4789890945

> <CNNaffinity>
5.4679851532

> <CNN_VS>
2.6191053391

> <CNNaffinity_variance>
0.2004342824

$$$$
[H]c1nc([H])c([C@@]2([H])N(C([H])([H])[H])C([H])([H])C([H])([H])C2([H])[H])c([H])c1[H]


 12 13  0  0  0  0  0  0  0  0999 V2000
    8.6525   47.2402  130.9573 C   0  0  0  0  0  0  0  0  0  0  0  0
    9.3316   46.6749  132.0387 N   0  0  0  0  0  0  0  0  0  0  0  0
    8.9675   47.0396  133.3484 C   0  0  0  0  0  0  0  0  0  0  0  0
    8.5916   45.7195  133.9901 C   0  0  0  0  0  0  0  0  0  0  0  0
    8.6963   44.6634  132.8834 C   0  0  0  0  0  0  0  0  0  0  0  0
    9.7365   45.3298  131.9800 C   0  0  0  0  0  0  0  0  0  0  0  0
    9.8286   44.6969  130.6773 C   0  0  0  0  0  0  0  0  0  0  0  0
   10.8712   45.0006  129.8287 C   0  0  0  0  0  0  0  0  0  0  0  0
   10.9649   44.3948  128.5668 C   0  0  0  0  0  0  0  0  0  0  0  0
    9.9946   43.4915  128.1944 C   0  0  0  0  0  0  0  0  0  0  0  0
    9.0046   43.2178  129.0280 N   0  0  0  0  0  0  0  0  0  0  0  0
    8.8947   43.7866  130.2426 C   0  0  0  0  0  0  0  0  0  0  0  0
  1  2  1  0  0  0
  2  3  1  0  0  0
  3  4  1  0  0  0
  4  5  1  0  0  0
  5  6  1  0  0  0
  6  7  1  0  0  0
  7  8  2  0  0  0
  8  9  1  0  0  0
  9 10  2  0  0  0
 10 11  1  0  0  0
 11 12  2  0  0  0
  6  2  1  0  0  0
 12  7  1  0  0  0
M  END
> <minimizedAffinity>
-5.75104

> <CNNscore>
0.4687615037

> <CNNaffinity>
5.5523948669

> <CNN_VS>
2.6027488708

> <CNNaffinity_variance>
0.2431757897

$$$$
[H]c1nc([H])c([C@@]2([H])N(C([H])([H])[H])C([H])([H])C([H])([H])C2([H])[H])c([H])c1[H]


 12 13  0  0  0  0  0  0  0  0999 V2000
    8.1896   45.3978  131.4329 C   0  0  0  0  0  0  0  0  0  0  0  0
    9.5448   45.4577  131.1007 N   0  0  0  0  0  0  0  0  0  0  0  0
   10.2593   44.2616  130.9012 C   0  0  0  0  0  0  0  0  0  0  0  0
   10.7806   44.3948  129.4847 C   0  0  0  0  0  0  0  0  0  0  0  0
   10.1986   45.7041  128.9386 C   0  0  0  0  0  0  0  0  0  0  0  0
   10.0078   46.4744  130.2471 C   0  0  0  0  0  0  0  0  0  0  0  0
    9.1851   47.6583  130.0805 C   0  0  0  0  0  0  0  0  0  0  0  0
    9.3541   48.7452  130.9108 C   0  0  0  0  0  0  0  0  0  0  0  0
    8.5604   49.8917  130.7573 C   0  0  0  0  0  0  0  0  0  0  0  0
    7.6102   49.9084  129.7608 C   0  0  0  0  0  0  0  0  0  0  0  0
    7.4686   48.8517  128.9776 N   0  0  0  0  0  0  0  0  0  0  0  0
    8.2184   47.7418  129.1066 C   0  0  0  0  0  0  0  0  0  0  0  0
  1  2  1  0  0  0
  2  3  1  0  0  0
  3  4  1  0  0  0
  4  5  1  0  0  0
  5  6  1  0  0  0
  6  7  1  0  0  0
  7  8  2  0  0  0
  8  9  1  0  0  0
  9 10  2  0  0  0
 10 11  1  0  0  0
 11 12  2  0  0  0
  6  2  1  0  0  0
 12  7  1  0  0  0
M  END
> <minimizedAffinity>
-5.76686

> <CNNscore>
0.4109865725

> <CNNaffinity>
5.3994517326

> <CNN_VS>
2.2191021442

> <CNNaffinity_variance>
0.1721499264

$$$$
[H]c1nc([H])c([C@@]2([H])N(C([H])([H])[H])C([H])([H])C([H])([H])C2([H])[H])c([H])c1[H]


 12 13  0  0  0  0  0  0  0  0999 V2000
   10.5048   46.2086  131.9694 C   0  0  0  0  0  0  0  0  0  0  0  0
   11.6686   45.4843  132.2361 N   0  0  0  0  0  0  0  0  0  0  0  0
   12.1837   45.4648  133.5459 C   0  0  0  0  0  0  0  0  0  0  0  0
   12.2044   43.9904  133.8943 C   0  0  0  0  0  0  0  0  0  0  0  0
   11.5702   43.2627  132.7029 C   0  0  0  0  0  0  0  0  0  0  0  0
   11.8897   44.2579  131.5851 C   0  0  0  0  0  0  0  0  0  0  0  0
   11.1487   43.9837  130.3679 C   0  0  0  0  0  0  0  0  0  0  0  0
   11.4950   44.6055  129.1877 C   0  0  0  0  0  0  0  0  0  0  0  0
   10.7812   44.3472  128.0079 C   0  0  0  0  0  0  0  0  0  0  0  0
    9.7287   43.4605  128.0537 C   0  0  0  0  0  0  0  0  0  0  0  0
    9.4173   42.8773  129.1995 N   0  0  0  0  0  0  0  0  0  0  0  0
   10.0877   43.1099  130.3428 C   0  0  0  0  0  0  0  0  0  0  0  0
  1  2  1  0  0  0
  2  3  1  0  0  0
  3  4  1  0  0  0
  4  5  1  0  0  0
  5  6  1  0  0  0
  6  7  1  0  0  0
  7  8  2  0  0  0
  8  9  1  0  0  0
  9 10  2  0  0  0
 10 11  1  0  0  0
 11 12  2  0  0  0
  6  2  1  0  0  0
 12  7  1  0  0  0
M  END
> <minimizedAffinity>
-6.22434

> <CNNscore>
0.3966914117

> <CNNaffinity>
5.2992749214

> <CNN_VS>
2.1021769047

> <CNNaffinity_variance>
0.1069344133

$$$$
[H]c1nc([H])c([C@@]2([H])N(C([H])([H])[H])C([H])([H])C([H])([H])C2([H])[H])c([H])c1[H]


 12 13  0  0  0  0  0  0  0  0999 V2000
    8.9333   46.4147  133.4747 C   0  0  0  0  0  0  0  0  0  0  0  0
    9.6505   45.4354  132.7841 N   0  0  0  0  0  0  0  0  0  0  0  0
   10.0382   44.2615  133.4569 C   0  0  0  0  0  0  0  0  0  0  0  0
    9.3971   43.1587  132.6391 C   0  0  0  0  0  0  0  0  0  0  0  0
    8.5711   43.8592  131.5537 C   0  0  0  0  0  0  0  0  0  0  0  0
    9.3485   45.1722  131.4364 C   0  0  0  0  0  0  0  0  0  0  0  0
    8.6251   46.1815  130.6853 C   0  0  0  0  0  0  0  0  0  0  0  0
    7.2739   46.0408  130.4538 C   0  0  0  0  0  0  0  0  0  0  0  0
    6.5689   47.0111  129.7262 C   0  0  0  0  0  0  0  0  0  0  0  0
    7.2544   48.1057  129.2487 C   0  0  0  0  0  0  0  0  0  0  0  0
    8.5513   48.2165  129.4851 N   0  0  0  0  0  0  0  0  0  0  0  0
    9.2475   47.2984  130.1803 C   0  0  0  0  0  0  0  0  0  0  0  0
  1  2  1  0  0  0
  2  3  1  0  0  0
  3  4  1  0  0  0
  4  5  1  0  0  0
  5  6  1  0  0  0
  6  7  1  0  0  0
  7  8  2  0  0  0
  8  9  1  0  0  0
  9 10  2  0  0  0
 10 11  1  0  0  0
 11 12  2  0  0  0
  6  2  1  0  0  0
 12  7  1  0  0  0
M  END
> <minimizedAffinity>
-5.36329

> <CNNscore>
0.3940714896

> <CNNaffinity>
5.4315938950

> <CNN_VS>
2.1404364109

> <CNNaffinity_variance>
0.1545077115

$$$$
[H]c1nc([H])c([C@@]2([H])N(C([H])([H])[H])C([H])([H])C([H])([H])C2([H])[H])c([H])c1[H]


 12 13  0  0  0  0  0  0  0  0999 V2000
    8.9085   46.9992  133.7356 C   0  0  0  0  0  0  0  0  0  0  0  0
   10.1734   47.0282  133.1446 N   0  0  0  0  0  0  0  0  0  0  0  0
   11.1470   46.0976  133.5535 C   0  0  0  0  0  0  0  0  0  0  0  0
   11.5013   45.3722  132.2713 C   0  0  0  0  0  0  0  0  0  0  0  0
   10.5666   45.9332  131.1929 C   0  0  0  0  0  0  0  0  0  0  0  0
   10.2952   47.3222  131.7752 C   0  0  0  0  0  0  0  0  0  0  0  0
    9.1907   47.9950  131.1167 C   0  0  0  0  0  0  0  0  0  0  0  0
    9.0671   49.3656  131.1915 C   0  0  0  0  0  0  0  0  0  0  0  0
    8.0004   50.0222  130.5598 C   0  0  0  0  0  0  0  0  0  0  0  0
    7.0805   49.2695  129.8645 C   0  0  0  0  0  0  0  0  0  0  0  0
    7.2225   47.9554  129.8084 N   0  0  0  0  0  0  0  0  0  0  0  0
    8.2373   47.3048  130.4064 C   0  0  0  0  0  0  0  0  0  0  0  0
  1  2  1  0  0  0
  2  3  1  0  0  0
  3  4  1  0  0  0
  4  5  1  0  0  0
  5  6  1  0  0  0
  6  7  1  0  0  0
  7  8  2  0  0  0
  8  9  1  0  0  0
  9 10  2  0  0  0
 10 11  1  0  0  0
 11 12  2  0  0  0
  6  2  1  0  0  0
 12  7  1  0  0  0
M  END
> <minimizedAffinity>
-5.44020

> <CNNscore>
0.3620959222

> <CNNaffinity>
5.2907171249

> <CNN_VS>
1.9157470465

> <CNNaffinity_variance>
0.0645783395

$$$$
[H]c1nc([H])c([C@@]2([H])N(C([H])([H])[H])C([H])([H])C([H])([H])C2([H])[H])c([H])c1[H]


 12 13  0  0  0  0  0  0  0  0999 V2000
   11.0243   46.1254  131.8097 C   0  0  0  0  0  0  0  0  0  0  0  0
    9.9497   45.7375  132.6129 N   0  0  0  0  0  0  0  0  0  0  0  0
   10.2027   45.1619  133.8722 C   0  0  0  0  0  0  0  0  0  0  0  0
    9.4843   46.0872  134.8332 C   0  0  0  0  0  0  0  0  0  0  0  0
    8.9263   47.2344  133.9823 C   0  0  0  0  0  0  0  0  0  0  0  0
    8.7813   46.5191  132.6372 C   0  0  0  0  0  0  0  0  0  0  0  0
    8.5487   47.4400  131.5400 C   0  0  0  0  0  0  0  0  0  0  0  0
    8.8312   48.7810  131.6857 C   0  0  0  0  0  0  0  0  0  0  0  0
    8.6061   49.6773  130.6302 C   0  0  0  0  0  0  0  0  0  0  0  0
    8.0976   49.1898  129.4471 C   0  0  0  0  0  0  0  0  0  0  0  0
    7.8351   47.8982  129.3336 N   0  0  0  0  0  0  0  0  0  0  0  0
    8.0431   47.0206  130.3324 C   0  0  0  0  0  0  0  0  0  0  0  0
  1  2  1  0  0  0
  2  3  1  0  0  0
  3  4  1  0  0  0
  4  5  1  0  0  0
  5  6  1  0  0  0
  6  7  1  0  0  0
  7  8  2  0  0  0
  8  9  1  0  0  0
  9 10  2  0  0  0
 10 11  1  0  0  0
 11 12  2  0  0  0
  6  2  1  0  0  0
 12  7  1  0  0  0
M  END
> <minimizedAffinity>
-5.60757

> <CNNscore>
0.3558782637

> <CNNaffinity>
5.3106684685

> <CNN_VS>
1.8899514675

> <CNNaffinity_variance>
0.0125885429

$$$$
[H]c1nc([H])c([C@@]2([H])N(C([H])([H])[H])C([H])([H])C([H])([H])C2([H])[H])c([H])c1[H]


 12 13  0  0  0  0  0  0  0  0999 V2000
    7.6874   47.9243  128.8257 C   0  0  0  0  0  0  0  0  0  0  0  0
    8.7556   48.3159  129.6356 N   0  0  0  0  0  0  0  0  0  0  0  0
    8.6029   49.4235  130.4905 C   0  0  0  0  0  0  0  0  0  0  0  0
    8.8811   48.8488  131.8646 C   0  0  0  0  0  0  0  0  0  0  0  0
    9.0916   47.3436  131.6616 C   0  0  0  0  0  0  0  0  0  0  0  0
    9.5856   47.3390  130.2132 C   0  0  0  0  0  0  0  0  0  0  0  0
    9.5888   46.0097  129.6310 C   0  0  0  0  0  0  0  0  0  0  0  0
   10.5491   45.6571  128.7075 C   0  0  0  0  0  0  0  0  0  0  0  0
   10.5565   44.3748  128.1386 C   0  0  0  0  0  0  0  0  0  0  0  0
    9.5853   43.4769  128.5217 C   0  0  0  0  0  0  0  0  0  0  0  0
    8.6751   43.8409  129.4101 N   0  0  0  0  0  0  0  0  0  0  0  0
    8.6489   45.0650  129.9686 C   0  0  0  0  0  0  0  0  0  0  0  0
  1  2  1  0  0  0
  2  3  1  0  0  0
  3  4  1  0  0  0
  4  5  1  0  0  0
  5  6  1  0  0  0
  6  7  1  0  0  0
  7  8  2  0  0  0
  8  9  1  0  0  0
  9 10  2  0  0  0
 10 11  1  0  0  0
 11 12  2  0  0  0
  6  2  1  0  0  0
 12  7  1  0  0  0
M  END
> <minimizedAffinity>
-5.96202

> <CNNscore>
0.3522156477

> <CNNaffinity>
5.2769126892

> <CNN_VS>
1.8586112261

> <CNNaffinity_variance>
0.0768480077

$$$$
[H]c1nc([H])c([C@@]2([H])N(C([H])([H])[H])C([H])([H])C([H])([H])C2([H])[H])c([H])c1[H]


 12 13  0  0  0  0  0  0  0  0999 V2000
    9.0145   47.5445  131.2260 C   0  0  0  0  0  0  0  0  0  0  0  0
    9.5098   46.8550  132.3348 N   0  0  0  0  0  0  0  0  0  0  0  0
    9.0568   47.2021  133.6214 C   0  0  0  0  0  0  0  0  0  0  0  0
    8.4689   45.9089  134.1485 C   0  0  0  0  0  0  0  0  0  0  0  0
    8.5660   44.8980  132.9997 C   0  0  0  0  0  0  0  0  0  0  0  0
    9.7627   45.4753  132.2404 C   0  0  0  0  0  0  0  0  0  0  0  0
    9.9158   44.8944  130.9193 C   0  0  0  0  0  0  0  0  0  0  0  0
    8.8667   44.2236  130.3287 C   0  0  0  0  0  0  0  0  0  0  0  0
    9.0085   43.6571  129.0531 C   0  0  0  0  0  0  0  0  0  0  0  0
   10.2164   43.7851  128.4044 C   0  0  0  0  0  0  0  0  0  0  0  0
   11.2072   44.4340  128.9938 N   0  0  0  0  0  0  0  0  0  0  0  0
   11.0936   44.9851  130.2163 C   0  0  0  0  0  0  0  0  0  0  0  0
  1  2  1  0  0  0
  2  3  1  0  0  0
  3  4  1  0  0  0
  4  5  1  0  0  0
  5  6  1  0  0  0
  6  7  1  0  0  0
  7  8  2  0  0  0
  8  9  1  0  0  0
  9 10  2  0  0  0
 10 11  1  0  0  0
 11 12  2  0  0  0
  6  2  1  0  0  0
 12  7  1  0  0  0
M  END
> <minimizedAffinity>
-5.29182

> <CNNscore>
0.3398186564

> <CNNaffinity>
5.4690232277

> <CNN_VS>
1.8584761620

> <CNNaffinity_variance>
0.3327161670

$$$$
[H]c1nc([H])c(N([H])C(=O)c2nc(-c3c(F)c([H])c([H])c([H])c3F)c([H])c([H])c2F)c([C@@]2([H])C([H])([H])[C@@]([H])(N([H])[H])C([H])([H])[C@@]([H])(C([H])([H])[H])C2([H])[H])c1[H]


 35 38  0  0  0  0  0  0  0  0999 V2000
    8.6886   49.3058  130.1537 N   0  0  0  0  0  0  0  0  0  0  0  0
    8.8223   49.2844  131.5457 C   0  0  0  0  0  0  0  0  0  0  0  0
    8.1024   50.0975  132.2572 O   0  0  0  0  0  0  0  0  0  0  0  0
    9.2670   48.6378  129.5951 H   0  0  0  0  0  0  0  0  0  0  0  0
    9.6814   48.4368  132.3560 C   0  0  0  0  0  0  0  0  0  0  0  0
    9.7513   47.1210  132.0843 N   0  0  0  0  0  0  0  0  0  0  0  0
   10.4845   46.2056  132.7211 C   0  0  0  0  0  0  0  0  0  0  0  0
   11.2585   46.6748  133.7928 C   0  0  0  0  0  0  0  0  0  0  0  0
   11.2374   48.0113  134.1337 C   0  0  0  0  0  0  0  0  0  0  0  0
   10.4364   48.8779  133.3963 C   0  0  0  0  0  0  0  0  0  0  0  0
   10.4425   50.2118  133.7751 F   0  0  0  0  0  0  0  0  0  0  0  0
   10.5663   44.8081  132.3546 C   0  0  0  0  0  0  0  0  0  0  0  0
   11.7160   44.2628  131.8020 C   0  0  0  0  0  0  0  0  0  0  0  0
   12.8031   45.0515  131.5496 F   0  0  0  0  0  0  0  0  0  0  0  0
   11.8327   42.9333  131.4710 C   0  0  0  0  0  0  0  0  0  0  0  0
   10.7925   42.0761  131.6811 C   0  0  0  0  0  0  0  0  0  0  0  0
    9.6188   42.5918  132.2338 C   0  0  0  0  0  0  0  0  0  0  0  0
    9.5323   43.9292  132.5545 C   0  0  0  0  0  0  0  0  0  0  0  0
    8.3787   44.4438  133.1001 F   0  0  0  0  0  0  0  0  0  0  0  0
    6.4449   49.8764  129.6544 C   0  0  0  0  0  0  0  0  0  0  0  0
    5.5688   50.8258  129.1165 C   0  0  0  0  0  0  0  0  0  0  0  0
    6.0168   51.9835  128.5030 C   0  0  0  0  0  0  0  0  0  0  0  0
    7.3152   52.2362  128.4028 N   0  0  0  0  0  0  0  0  0  0  0  0
    8.1842   51.3364  128.9170 C   0  0  0  0  0  0  0  0  0  0  0  0
    7.7948   50.1965  129.5292 C   0  0  0  0  0  0  0  0  0  0  0  0
    8.3569   45.5672  129.3124 C   0  0  0  0  0  0  0  0  0  0  0  0
    7.1671   46.2480  130.0730 C   0  0  0  0  0  0  0  0  0  0  0  0
    5.8865   45.6526  129.4800 C   0  0  0  0  0  0  0  0  0  0  0  0
    4.7487   46.4830  129.9355 C   0  0  0  0  0  0  0  0  0  0  0  0
    3.4895   45.9413  129.5724 N   0  0  0  0  0  0  0  0  0  0  0  0
    4.8688   47.9315  129.3888 C   0  0  0  0  0  0  0  0  0  0  0  0
    6.0344   48.5772  130.1314 C   0  0  0  0  0  0  0  0  0  0  0  0
    7.2550   47.6664  129.7027 C   0  0  0  0  0  0  0  0  0  0  0  0
    2.6687   46.5072  129.9161 H   0  0  0  0  0  0  0  0  0  0  0  0
    3.3519   44.9304  129.6934 H   0  0  0  0  0  0  0  0  0  0  0  0
 26 27  1  0  0  0
 27 28  1  0  0  0
 28 29  1  0  0  0
 29 30  1  0  0  0
 29 31  1  0  0  0
 31 32  1  0  0  0
 32 20  1  0  0  0
 20 21  2  0  0  0
 21 22  1  0  0  0
 22 23  2  0  0  0
 23 24  1  0  0  0
 24 25  2  0  0  0
 25  1  1  0  0  0
  1  2  1  0  0  0
  2  3  2  0  0  0
  2  5  1  0  0  0
  5  6  2  0  0  0
  6  7  1  0  0  0
  7 12  1  0  0  0
 12 13  2  0  0  0
 13 14  1  0  0  0
 13 15  1  0  0  0
 15 16  2  0  0  0
 16 17  1  0  0  0
 17 18  2  0  0  0
 18 19  1  0  0  0
  7  8  2  0  0  0
  8  9  1  0  0  0
  9 10  2  0  0  0
 10 11  1  0  0  0
 32 33  1  0  0  0
 33 27  1  0  0  0
 25 20  1  0  0  0
 10  5  1  0  0  0
 18 12  1  0  0  0
 30 34  1  0  0  0
 30 35  1  0  0  0
  1  4  1  0  0  0
M  END
> <minimizedAffinity>
9.95405

> <CNNscore>
0.4464154840

> <CNNaffinity>
8.0660724640

> <CNN_VS>
3.6008195877

> <CNNaffinity_variance>
0.9479991198

$$$$
[H]c1nc([H])c(N([H])C(=O)c2nc(-c3c(F)c([H])c([H])c([H])c3F)c([H])c([H])c2F)c([C@@]2([H])C([H])([H])[C@@]([H])(N([H])[H])C([H])([H])[C@@]([H])(C([H])([H])[H])C2([H])[H])c1[H]


 35 38  0  0  0  0  0  0  0  0999 V2000
    7.2371   46.5500  130.2077 N   0  0  0  0  0  0  0  0  0  0  0  0
    8.2781   45.9897  129.4605 C   0  0  0  0  0  0  0  0  0  0  0  0
    8.6242   46.5561  128.3447 O   0  0  0  0  0  0  0  0  0  0  0  0
    6.9770   46.0889  131.1092 H   0  0  0  0  0  0  0  0  0  0  0  0
    9.0782   44.8157  129.7681 C   0  0  0  0  0  0  0  0  0  0  0  0
    9.7183   44.7479  130.9495 N   0  0  0  0  0  0  0  0  0  0  0  0
   10.4879   43.7513  131.3918 C   0  0  0  0  0  0  0  0  0  0  0  0
   10.6457   42.6632  130.5206 C   0  0  0  0  0  0  0  0  0  0  0  0
   10.0224   42.6611  129.2899 C   0  0  0  0  0  0  0  0  0  0  0  0
    9.2394   43.7550  128.9340 C   0  0  0  0  0  0  0  0  0  0  0  0
    8.6342   43.7129  127.6871 F   0  0  0  0  0  0  0  0  0  0  0  0
   11.1120   43.7026  132.6965 C   0  0  0  0  0  0  0  0  0  0  0  0
   10.4666   43.1563  133.7962 C   0  0  0  0  0  0  0  0  0  0  0  0
    9.1912   42.6788  133.6828 F   0  0  0  0  0  0  0  0  0  0  0  0
   11.0454   43.0701  135.0406 C   0  0  0  0  0  0  0  0  0  0  0  0
   12.3130   43.5308  135.2453 C   0  0  0  0  0  0  0  0  0  0  0  0
   12.9912   44.0893  134.1605 C   0  0  0  0  0  0  0  0  0  0  0  0
   12.3841   44.1620  132.9255 C   0  0  0  0  0  0  0  0  0  0  0  0
   13.0471   44.7106  131.8520 F   0  0  0  0  0  0  0  0  0  0  0  0
    7.2614   48.9015  129.9264 C   0  0  0  0  0  0  0  0  0  0  0  0
    6.6264   50.0235  129.3824 C   0  0  0  0  0  0  0  0  0  0  0  0
    5.4029   49.9428  128.7388 C   0  0  0  0  0  0  0  0  0  0  0  0
    4.7806   48.7781  128.6139 N   0  0  0  0  0  0  0  0  0  0  0  0
    5.3738   47.6767  129.1282 C   0  0  0  0  0  0  0  0  0  0  0  0
    6.5684   47.7049  129.7590 C   0  0  0  0  0  0  0  0  0  0  0  0
    8.6085   46.5080  133.7732 C   0  0  0  0  0  0  0  0  0  0  0  0
    9.2350   47.5428  132.7762 C   0  0  0  0  0  0  0  0  0  0  0  0
    9.4583   48.8272  133.5802 C   0  0  0  0  0  0  0  0  0  0  0  0
    9.7475   49.9168  132.6207 C   0  0  0  0  0  0  0  0  0  0  0  0
   10.1212   51.1280  133.2567 N   0  0  0  0  0  0  0  0  0  0  0  0
    8.5299   50.1716  131.6914 C   0  0  0  0  0  0  0  0  0  0  0  0
    8.4360   48.9646  130.7633 C   0  0  0  0  0  0  0  0  0  0  0  0
    8.1841   47.7766  131.7774 C   0  0  0  0  0  0  0  0  0  0  0  0
   10.3589   51.9048  132.5844 H   0  0  0  0  0  0  0  0  0  0  0  0
   10.7786   51.0707  134.0440 H   0  0  0  0  0  0  0  0  0  0  0  0
 26 27  1  0  0  0
 27 28  1  0  0  0
 28 29  1  0  0  0
 29 30  1  0  0  0
 29 31  1  0  0  0
 31 32  1  0  0  0
 32 20  1  0  0  0
 20 21  2  0  0  0
 21 22  1  0  0  0
 22 23  2  0  0  0
 23 24  1  0  0  0
 24 25  2  0  0  0
 25  1  1  0  0  0
  1  2  1  0  0  0
  2  3  2  0  0  0
  2  5  1  0  0  0
  5  6  2  0  0  0
  6  7  1  0  0  0
  7 12  1  0  0  0
 12 13  2  0  0  0
 13 14  1  0  0  0
 13 15  1  0  0  0
 15 16  2  0  0  0
 16 17  1  0  0  0
 17 18  2  0  0  0
 18 19  1  0  0  0
  7  8  2  0  0  0
  8  9  1  0  0  0
  9 10  2  0  0  0
 10 11  1  0  0  0
 32 33  1  0  0  0
 33 27  1  0  0  0
 25 20  1  0  0  0
 10  5  1  0  0  0
 18 12  1  0  0  0
 30 34  1  0  0  0
 30 35  1  0  0  0
  1  4  1  0  0  0
M  END
> <minimizedAffinity>
-0.97187

> <CNNscore>
0.3778661489

> <CNNaffinity>
8.2675447464

> <CNN_VS>
3.1240253448

> <CNNaffinity_variance>
0.6531635523

$$$$
[H]c1nc([H])c(N([H])C(=O)c2nc(-c3c(F)c([H])c([H])c([H])c3F)c([H])c([H])c2F)c([C@@]2([H])C([H])([H])[C@@]([H])(N([H])[H])C([H])([H])[C@@]([H])(C([H])([H])[H])C2([H])[H])c1[H]


 35 38  0  0  0  0  0  0  0  0999 V2000
   11.5606   45.4913  131.6766 N   0  0  0  0  0  0  0  0  0  0  0  0
   10.2953   46.0530  131.4784 C   0  0  0  0  0  0  0  0  0  0  0  0
    9.4503   46.0585  132.4641 O   0  0  0  0  0  0  0  0  0  0  0  0
   12.2337   45.5040  130.8768 H   0  0  0  0  0  0  0  0  0  0  0  0
    9.7625   46.6734  130.2765 C   0  0  0  0  0  0  0  0  0  0  0  0
    8.6725   47.4567  130.3693 N   0  0  0  0  0  0  0  0  0  0  0  0
    8.0571   48.1004  129.3753 C   0  0  0  0  0  0  0  0  0  0  0  0
    8.6104   47.9307  128.0974 C   0  0  0  0  0  0  0  0  0  0  0  0
    9.7271   47.1399  127.9221 C   0  0  0  0  0  0  0  0  0  0  0  0
   10.2884   46.5179  129.0332 C   0  0  0  0  0  0  0  0  0  0  0  0
   11.4074   45.7298  128.8111 F   0  0  0  0  0  0  0  0  0  0  0  0
    6.9167   48.9765  129.5362 C   0  0  0  0  0  0  0  0  0  0  0  0
    5.6464   48.6080  129.1179 C   0  0  0  0  0  0  0  0  0  0  0  0
    5.4436   47.4069  128.4986 F   0  0  0  0  0  0  0  0  0  0  0  0
    4.5397   49.4071  129.2839 C   0  0  0  0  0  0  0  0  0  0  0  0
    4.6530   50.6267  129.8846 C   0  0  0  0  0  0  0  0  0  0  0  0
    5.9179   51.0304  130.3159 C   0  0  0  0  0  0  0  0  0  0  0  0
    7.0082   50.2073  130.1349 C   0  0  0  0  0  0  0  0  0  0  0  0
    8.2574   50.5989  130.5582 F   0  0  0  0  0  0  0  0  0  0  0  0
   11.0605   43.9432  133.3978 C   0  0  0  0  0  0  0  0  0  0  0  0
   11.4838   43.3305  134.5825 C   0  0  0  0  0  0  0  0  0  0  0  0
   12.6551   43.6926  135.2263 C   0  0  0  0  0  0  0  0  0  0  0  0
   13.4294   44.6498  134.7325 N   0  0  0  0  0  0  0  0  0  0  0  0
   13.0452   45.2568  133.5865 C   0  0  0  0  0  0  0  0  0  0  0  0
   11.9150   44.9341  132.9201 C   0  0  0  0  0  0  0  0  0  0  0  0
    7.4794   41.0275  134.4060 C   0  0  0  0  0  0  0  0  0  0  0  0
    7.7492   42.2418  133.4519 C   0  0  0  0  0  0  0  0  0  0  0  0
    7.7168   41.6794  132.0275 C   0  0  0  0  0  0  0  0  0  0  0  0
    8.2730   42.7098  131.1218 C   0  0  0  0  0  0  0  0  0  0  0  0
    8.1562   42.3622  129.7520 N   0  0  0  0  0  0  0  0  0  0  0  0
    9.7611   42.9971  131.4603 C   0  0  0  0  0  0  0  0  0  0  0  0
    9.7649   43.7318  132.7972 C   0  0  0  0  0  0  0  0  0  0  0  0
    9.1186   42.6655  133.7711 C   0  0  0  0  0  0  0  0  0  0  0  0
    8.5217   43.1006  129.0938 H   0  0  0  0  0  0  0  0  0  0  0  0
    7.2668   41.9560  129.4367 H   0  0  0  0  0  0  0  0  0  0  0  0
 26 27  1  0  0  0
 27 28  1  0  0  0
 28 29  1  0  0  0
 29 30  1  0  0  0
 29 31  1  0  0  0
 31 32  1  0  0  0
 32 20  1  0  0  0
 20 21  2  0  0  0
 21 22  1  0  0  0
 22 23  2  0  0  0
 23 24  1  0  0  0
 24 25  2  0  0  0
 25  1  1  0  0  0
  1  2  1  0  0  0
  2  3  2  0  0  0
  2  5  1  0  0  0
  5  6  2  0  0  0
  6  7  1  0  0  0
  7 12  1  0  0  0
 12 13  2  0  0  0
 13 14  1  0  0  0
 13 15  1  0  0  0
 15 16  2  0  0  0
 16 17  1  0  0  0
 17 18  2  0  0  0
 18 19  1  0  0  0
  7  8  2  0  0  0
  8  9  1  0  0  0
  9 10  2  0  0  0
 10 11  1  0  0  0
 32 33  1  0  0  0
 33 27  1  0  0  0
 25 20  1  0  0  0
 10  5  1  0  0  0
 18 12  1  0  0  0
 30 34  1  0  0  0
 30 35  1  0  0  0
  1  4  1  0  0  0
M  END
> <minimizedAffinity>
6.68865

> <CNNscore>
0.3757437170

> <CNNaffinity>
7.6630125046

> <CNN_VS>
2.8793287277

> <CNNaffinity_variance>
0.9900026321

$$$$
[H]c1nc([H])c(N([H])C(=O)c2nc(-c3c(F)c([H])c([H])c([H])c3F)c([H])c([H])c2F)c([C@@]2([H])C([H])([H])[C@@]([H])(N([H])[H])C([H])([H])[C@@]([H])(C([H])([H])[H])C2([H])[H])c1[H]


 35 38  0  0  0  0  0  0  0  0999 V2000
    7.2348   46.5479  130.2115 N   0  0  0  0  0  0  0  0  0  0  0  0
    8.2670   45.9770  129.4603 C   0  0  0  0  0  0  0  0  0  0  0  0
    8.6195   46.5438  128.3467 O   0  0  0  0  0  0  0  0  0  0  0  0
    6.9696   46.0862  131.1111 H   0  0  0  0  0  0  0  0  0  0  0  0
    9.0515   44.7907  129.7612 C   0  0  0  0  0  0  0  0  0  0  0  0
    9.6935   44.7094  130.9408 N   0  0  0  0  0  0  0  0  0  0  0  0
   10.4501   43.7004  131.3773 C   0  0  0  0  0  0  0  0  0  0  0  0
   10.5906   42.6137  130.5014 C   0  0  0  0  0  0  0  0  0  0  0  0
    9.9643   42.6251  129.2724 C   0  0  0  0  0  0  0  0  0  0  0  0
    9.1958   43.7312  128.9227 C   0  0  0  0  0  0  0  0  0  0  0  0
    8.5870   43.7024  127.6771 F   0  0  0  0  0  0  0  0  0  0  0  0
   11.0767   43.6379  132.6802 C   0  0  0  0  0  0  0  0  0  0  0  0
   12.3455   44.1508  132.9071 C   0  0  0  0  0  0  0  0  0  0  0  0
   13.0625   44.7009  131.8820 F   0  0  0  0  0  0  0  0  0  0  0  0
   12.9539   44.1318  134.1401 C   0  0  0  0  0  0  0  0  0  0  0  0
   12.3132   43.5933  135.2175 C   0  0  0  0  0  0  0  0  0  0  0  0
   11.0353   43.0657  135.0244 C   0  0  0  0  0  0  0  0  0  0  0  0
   10.4521   43.0991  133.7763 C   0  0  0  0  0  0  0  0  0  0  0  0
    9.1927   42.5814  133.5793 F   0  0  0  0  0  0  0  0  0  0  0  0
    7.2891   48.9006  129.9449 C   0  0  0  0  0  0  0  0  0  0  0  0
    6.6691   50.0339  129.4071 C   0  0  0  0  0  0  0  0  0  0  0  0
    5.4457   49.9727  128.7613 C   0  0  0  0  0  0  0  0  0  0  0  0
    4.8089   48.8167  128.6281 N   0  0  0  0  0  0  0  0  0  0  0  0
    5.3874   47.7048  129.1364 C   0  0  0  0  0  0  0  0  0  0  0  0
    6.5813   47.7139  129.7691 C   0  0  0  0  0  0  0  0  0  0  0  0
    8.6037   46.4610  133.7740 C   0  0  0  0  0  0  0  0  0  0  0  0
    9.2432   47.4967  132.7862 C   0  0  0  0  0  0  0  0  0  0  0  0
    9.4798   48.7720  133.6010 C   0  0  0  0  0  0  0  0  0  0  0  0
    9.7827   49.8660  132.6507 C   0  0  0  0  0  0  0  0  0  0  0  0
   10.1691   51.0677  133.2970 N   0  0  0  0  0  0  0  0  0  0  0  0
    8.5693   50.1420  131.7218 C   0  0  0  0  0  0  0  0  0  0  0  0
    8.4632   48.9437  130.7838 C   0  0  0  0  0  0  0  0  0  0  0  0
    8.1964   47.7505  131.7880 C   0  0  0  0  0  0  0  0  0  0  0  0
   10.4164   51.8472  132.6313 H   0  0  0  0  0  0  0  0  0  0  0  0
   10.8247   50.9966  134.0847 H   0  0  0  0  0  0  0  0  0  0  0  0
 26 27  1  0  0  0
 27 28  1  0  0  0
 28 29  1  0  0  0
 29 30  1  0  0  0
 29 31  1  0  0  0
 31 32  1  0  0  0
 32 20  1  0  0  0
 20 21  2  0  0  0
 21 22  1  0  0  0
 22 23  2  0  0  0
 23 24  1  0  0  0
 24 25  2  0  0  0
 25  1  1  0  0  0
  1  2  1  0  0  0
  2  3  2  0  0  0
  2  5  1  0  0  0
  5  6  2  0  0  0
  6  7  1  0  0  0
  7 12  1  0  0  0
 12 13  2  0  0  0
 13 14  1  0  0  0
 13 15  1  0  0  0
 15 16  2  0  0  0
 16 17  1  0  0  0
 17 18  2  0  0  0
 18 19  1  0  0  0
  7  8  2  0  0  0
  8  9  1  0  0  0
  9 10  2  0  0  0
 10 11  1  0  0  0
 32 33  1  0  0  0
 33 27  1  0  0  0
 25 20  1  0  0  0
 10  5  1  0  0  0
 18 12  1  0  0  0
 30 34  1  0  0  0
 30 35  1  0  0  0
  1  4  1  0  0  0
M  END
> <minimizedAffinity>
-1.32690

> <CNNscore>
0.3664883077

> <CNNaffinity>
8.2549247742

> <CNN_VS>
3.0253334045

> <CNNaffinity_variance>
0.6289960146

$$$$
[H]c1nc([H])c(N([H])C(=O)c2nc(-c3c(F)c([H])c([H])c([H])c3F)c([H])c([H])c2F)c([C@@]2([H])C([H])([H])[C@@]([H])(N([H])[H])C([H])([H])[C@@]([H])(C([H])([H])[H])C2([H])[H])c1[H]


 35 38  0  0  0  0  0  0  0  0999 V2000
    8.8611   48.3186  130.6968 N   0  0  0  0  0  0  0  0  0  0  0  0
    8.9970   47.7058  131.9465 C   0  0  0  0  0  0  0  0  0  0  0  0
    8.0101   47.7715  132.7876 O   0  0  0  0  0  0  0  0  0  0  0  0
    9.6601   48.2478  130.0264 H   0  0  0  0  0  0  0  0  0  0  0  0
   10.1306   46.9586  132.4659 C   0  0  0  0  0  0  0  0  0  0  0  0
   10.9554   46.3338  131.6059 N   0  0  0  0  0  0  0  0  0  0  0  0
   12.0359   45.6112  131.9081 C   0  0  0  0  0  0  0  0  0  0  0  0
   12.3324   45.4902  133.2738 C   0  0  0  0  0  0  0  0  0  0  0  0
   11.5313   46.1006  134.2165 C   0  0  0  0  0  0  0  0  0  0  0  0
   10.4296   46.8336  133.7856 C   0  0  0  0  0  0  0  0  0  0  0  0
    9.6498   47.4274  134.7665 F   0  0  0  0  0  0  0  0  0  0  0  0
   12.9232   45.0028  130.9402 C   0  0  0  0  0  0  0  0  0  0  0  0
   12.4656   44.0908  130.0003 C   0  0  0  0  0  0  0  0  0  0  0  0
   11.1538   43.7083  129.9895 F   0  0  0  0  0  0  0  0  0  0  0  0
   13.2792   43.5191  129.0505 C   0  0  0  0  0  0  0  0  0  0  0  0
   14.6045   43.8377  128.9949 C   0  0  0  0  0  0  0  0  0  0  0  0
   15.0993   44.7508  129.9278 C   0  0  0  0  0  0  0  0  0  0  0  0
   14.2589   45.3065  130.8679 C   0  0  0  0  0  0  0  0  0  0  0  0
   14.7400   46.2076  131.7897 F   0  0  0  0  0  0  0  0  0  0  0  0
    6.6670   48.2133  129.8114 C   0  0  0  0  0  0  0  0  0  0  0  0
    5.4657   48.8899  129.5728 C   0  0  0  0  0  0  0  0  0  0  0  0
    5.3071   50.2376  129.8487 C   0  0  0  0  0  0  0  0  0  0  0  0
    6.3068   50.9453  130.3579 N   0  0  0  0  0  0  0  0  0  0  0  0
    7.4786   50.3152  130.6012 C   0  0  0  0  0  0  0  0  0  0  0  0
    7.6789   49.0020  130.3540 C   0  0  0  0  0  0  0  0  0  0  0  0
    7.8414   44.2465  132.0977 C   0  0  0  0  0  0  0  0  0  0  0  0
    7.4267   44.6650  130.6449 C   0  0  0  0  0  0  0  0  0  0  0  0
    8.6642   44.4460  129.7693 C   0  0  0  0  0  0  0  0  0  0  0  0
    8.4242   45.1168  128.4716 C   0  0  0  0  0  0  0  0  0  0  0  0
    9.4415   44.8559  127.5186 N   0  0  0  0  0  0  0  0  0  0  0  0
    8.2717   46.6503  128.6627 C   0  0  0  0  0  0  0  0  0  0  0  0
    6.9369   46.8659  129.3691 C   0  0  0  0  0  0  0  0  0  0  0  0
    7.1522   46.1046  130.7392 C   0  0  0  0  0  0  0  0  0  0  0  0
    9.2686   45.3035  126.5796 H   0  0  0  0  0  0  0  0  0  0  0  0
    9.7860   43.8913  127.4401 H   0  0  0  0  0  0  0  0  0  0  0  0
 26 27  1  0  0  0
 27 28  1  0  0  0
 28 29  1  0  0  0
 29 30  1  0  0  0
 29 31  1  0  0  0
 31 32  1  0  0  0
 32 20  1  0  0  0
 20 21  2  0  0  0
 21 22  1  0  0  0
 22 23  2  0  0  0
 23 24  1  0  0  0
 24 25  2  0  0  0
 25  1  1  0  0  0
  1  2  1  0  0  0
  2  3  2  0  0  0
  2  5  1  0  0  0
  5  6  2  0  0  0
  6  7  1  0  0  0
  7 12  1  0  0  0
 12 13  2  0  0  0
 13 14  1  0  0  0
 13 15  1  0  0  0
 15 16  2  0  0  0
 16 17  1  0  0  0
 17 18  2  0  0  0
 18 19  1  0  0  0
  7  8  2  0  0  0
  8  9  1  0  0  0
  9 10  2  0  0  0
 10 11  1  0  0  0
 32 33  1  0  0  0
 33 27  1  0  0  0
 25 20  1  0  0  0
 10  5  1  0  0  0
 18 12  1  0  0  0
 30 34  1  0  0  0
 30 35  1  0  0  0
  1  4  1  0  0  0
M  END
> <minimizedAffinity>
8.84765

> <CNNscore>
0.3595955074

> <CNNaffinity>
7.7637672424

> <CNN_VS>
2.7918157578

> <CNNaffinity_variance>
0.5500426292

$$$$
[H]c1nc([H])c(N([H])C(=O)c2nc(-c3c(F)c([H])c([H])c([H])c3F)c([H])c([H])c2F)c([C@@]2([H])C([H])([H])[C@@]([H])(N([H])[H])C([H])([H])[C@@]([H])(C([H])([H])[H])C2([H])[H])c1[H]


 35 38  0  0  0  0  0  0  0  0999 V2000
    7.0902   46.2642  130.4834 N   0  0  0  0  0  0  0  0  0  0  0  0
    7.9722   45.7772  129.5134 C   0  0  0  0  0  0  0  0  0  0  0  0
    7.5916   45.7594  128.2723 O   0  0  0  0  0  0  0  0  0  0  0  0
    7.4150   46.2823  131.4769 H   0  0  0  0  0  0  0  0  0  0  0  0
    9.3237   45.2736  129.6953 C   0  0  0  0  0  0  0  0  0  0  0  0
    9.7687   45.0203  130.9394 N   0  0  0  0  0  0  0  0  0  0  0  0
   10.9715   44.5566  131.2851 C   0  0  0  0  0  0  0  0  0  0  0  0
   11.8642   44.3164  130.2301 C   0  0  0  0  0  0  0  0  0  0  0  0
   11.4812   44.5547  128.9265 C   0  0  0  0  0  0  0  0  0  0  0  0
   10.1985   45.0362  128.6828 C   0  0  0  0  0  0  0  0  0  0  0  0
    9.8564   45.2651  127.3586 F   0  0  0  0  0  0  0  0  0  0  0  0
   11.3835   44.2488  132.6377 C   0  0  0  0  0  0  0  0  0  0  0  0
   12.4799   44.8623  133.2259 C   0  0  0  0  0  0  0  0  0  0  0  0
   13.2334   45.7569  132.5193 F   0  0  0  0  0  0  0  0  0  0  0  0
   12.8773   44.6114  134.5182 C   0  0  0  0  0  0  0  0  0  0  0  0
   12.1872   43.7253  135.2926 C   0  0  0  0  0  0  0  0  0  0  0  0
   11.0793   43.0877  134.7314 C   0  0  0  0  0  0  0  0  0  0  0  0
   10.7062   43.3598  133.4331 C   0  0  0  0  0  0  0  0  0  0  0  0
    9.6150   42.7354  132.8741 F   0  0  0  0  0  0  0  0  0  0  0  0
    5.6807   48.1035  129.9942 C   0  0  0  0  0  0  0  0  0  0  0  0
    4.4287   48.5324  129.5396 C   0  0  0  0  0  0  0  0  0  0  0  0
    3.4015   47.6486  129.2547 C   0  0  0  0  0  0  0  0  0  0  0  0
    3.5729   46.3419  129.4057 N   0  0  0  0  0  0  0  0  0  0  0  0
    4.7747   45.8999  129.8410 C   0  0  0  0  0  0  0  0  0  0  0  0
    5.8079   46.7227  130.1262 C   0  0  0  0  0  0  0  0  0  0  0  0
    7.1921   52.3571  128.5927 C   0  0  0  0  0  0  0  0  0  0  0  0
    7.4269   51.3861  129.8009 C   0  0  0  0  0  0  0  0  0  0  0  0
    8.8778   50.9083  129.6872 C   0  0  0  0  0  0  0  0  0  0  0  0
    9.0494   49.7611  130.6071 C   0  0  0  0  0  0  0  0  0  0  0  0
   10.3957   49.3260  130.7020 N   0  0  0  0  0  0  0  0  0  0  0  0
    8.1472   48.5715  130.1800 C   0  0  0  0  0  0  0  0  0  0  0  0
    6.7112   48.9905  130.4793 C   0  0  0  0  0  0  0  0  0  0  0  0
    6.5261   50.2546  129.5461 C   0  0  0  0  0  0  0  0  0  0  0  0
   10.5375   48.5280  131.3766 H   0  0  0  0  0  0  0  0  0  0  0  0
   11.1254   50.0449  130.7800 H   0  0  0  0  0  0  0  0  0  0  0  0
 26 27  1  0  0  0
 27 28  1  0  0  0
 28 29  1  0  0  0
 29 30  1  0  0  0
 29 31  1  0  0  0
 31 32  1  0  0  0
 32 20  1  0  0  0
 20 21  2  0  0  0
 21 22  1  0  0  0
 22 23  2  0  0  0
 23 24  1  0  0  0
 24 25  2  0  0  0
 25  1  1  0  0  0
  1  2  1  0  0  0
  2  3  2  0  0  0
  2  5  1  0  0  0
  5  6  2  0  0  0
  6  7  1  0  0  0
  7 12  1  0  0  0
 12 13  2  0  0  0
 13 14  1  0  0  0
 13 15  1  0  0  0
 15 16  2  0  0  0
 16 17  1  0  0  0
 17 18  2  0  0  0
 18 19  1  0  0  0
  7  8  2  0  0  0
  8  9  1  0  0  0
  9 10  2  0  0  0
 10 11  1  0  0  0
 32 33  1  0  0  0
 33 27  1  0  0  0
 25 20  1  0  0  0
 10  5  1  0  0  0
 18 12  1  0  0  0
 30 34  1  0  0  0
 30 35  1  0  0  0
  1  4  1  0  0  0
M  END
> <minimizedAffinity>
13.22303

> <CNNscore>
0.3421867490

> <CNNaffinity>
7.7955045700

> <CNN_VS>
2.6675183773

> <CNNaffinity_variance>
0.6960796118

$$$$
[H]c1nc([H])c(N([H])C(=O)c2nc(-c3c(F)c([H])c([H])c([H])c3F)c([H])c([H])c2F)c([C@@]2([H])C([H])([H])[C@@]([H])(N([H])[H])C([H])([H])[C@@]([H])(C([H])([H])[H])C2([H])[H])c1[H]


 35 38  0  0  0  0  0  0  0  0999 V2000
   10.4269   48.2497  132.3250 N   0  0  0  0  0  0  0  0  0  0  0  0
    9.9840   47.1984  133.1341 C   0  0  0  0  0  0  0  0  0  0  0  0
    9.2902   47.4741  134.1963 O   0  0  0  0  0  0  0  0  0  0  0  0
   10.9751   48.0113  131.4674 H   0  0  0  0  0  0  0  0  0  0  0  0
   10.1846   45.7708  132.9473 C   0  0  0  0  0  0  0  0  0  0  0  0
   10.0947   45.2510  131.7097 N   0  0  0  0  0  0  0  0  0  0  0  0
   10.2508   43.9724  131.3605 C   0  0  0  0  0  0  0  0  0  0  0  0
   10.5328   43.0798  132.4053 C   0  0  0  0  0  0  0  0  0  0  0  0
   10.6378   43.5377  133.7023 C   0  0  0  0  0  0  0  0  0  0  0  0
   10.4585   44.8953  133.9499 C   0  0  0  0  0  0  0  0  0  0  0  0
   10.5694   45.3117  135.2679 F   0  0  0  0  0  0  0  0  0  0  0  0
   10.1973   43.4714  130.0040 C   0  0  0  0  0  0  0  0  0  0  0  0
   11.1294   43.8477  129.0479 C   0  0  0  0  0  0  0  0  0  0  0  0
   12.1131   44.7447  129.3566 F   0  0  0  0  0  0  0  0  0  0  0  0
   11.1209   43.3659  127.7600 C   0  0  0  0  0  0  0  0  0  0  0  0
   10.1686   42.4731  127.3637 C   0  0  0  0  0  0  0  0  0  0  0  0
    9.2130   42.0743  128.3000 C   0  0  0  0  0  0  0  0  0  0  0  0
    9.2477   42.5754  129.5833 C   0  0  0  0  0  0  0  0  0  0  0  0
    8.3093   42.1861  130.5111 F   0  0  0  0  0  0  0  0  0  0  0  0
    9.2223   50.2247  131.8176 C   0  0  0  0  0  0  0  0  0  0  0  0
    8.8658   51.5164  132.2208 C   0  0  0  0  0  0  0  0  0  0  0  0
    9.3887   52.1082  133.3583 C   0  0  0  0  0  0  0  0  0  0  0  0
   10.2608   51.4586  134.1179 N   0  0  0  0  0  0  0  0  0  0  0  0
   10.6206   50.2070  133.7527 C   0  0  0  0  0  0  0  0  0  0  0  0
   10.1336   49.5865  132.6557 C   0  0  0  0  0  0  0  0  0  0  0  0
    5.0840   49.7326  129.5874 C   0  0  0  0  0  0  0  0  0  0  0  0
    6.6035   49.5176  129.2673 C   0  0  0  0  0  0  0  0  0  0  0  0
    6.7943   48.0066  129.1033 C   0  0  0  0  0  0  0  0  0  0  0  0
    8.2487   47.7307  129.1152 C   0  0  0  0  0  0  0  0  0  0  0  0
    8.5566   46.3784  128.8194 N   0  0  0  0  0  0  0  0  0  0  0  0
    8.8730   48.1190  130.4829 C   0  0  0  0  0  0  0  0  0  0  0  0
    8.8510   49.6429  130.5497 C   0  0  0  0  0  0  0  0  0  0  0  0
    7.3031   49.9623  130.4795 C   0  0  0  0  0  0  0  0  0  0  0  0
    9.5908   46.1739  128.7952 H   0  0  0  0  0  0  0  0  0  0  0  0
    8.0463   45.9302  128.0487 H   0  0  0  0  0  0  0  0  0  0  0  0
 26 27  1  0  0  0
 27 28  1  0  0  0
 28 29  1  0  0  0
 29 30  1  0  0  0
 29 31  1  0  0  0
 31 32  1  0  0  0
 32 20  1  0  0  0
 20 21  2  0  0  0
 21 22  1  0  0  0
 22 23  2  0  0  0
 23 24  1  0  0  0
 24 25  2  0  0  0
 25  1  1  0  0  0
  1  2  1  0  0  0
  2  3  2  0  0  0
  2  5  1  0  0  0
  5  6  2  0  0  0
  6  7  1  0  0  0
  7 12  1  0  0  0
 12 13  2  0  0  0
 13 14  1  0  0  0
 13 15  1  0  0  0
 15 16  2  0  0  0
 16 17  1  0  0  0
 17 18  2  0  0  0
 18 19  1  0  0  0
  7  8  2  0  0  0
  8  9  1  0  0  0
  9 10  2  0  0  0
 10 11  1  0  0  0
 32 33  1  0  0  0
 33 27  1  0  0  0
 25 20  1  0  0  0
 10  5  1  0  0  0
 18 12  1  0  0  0
 30 34  1  0  0  0
 30 35  1  0  0  0
  1  4  1  0  0  0
M  END
> <minimizedAffinity>
6.69504

> <CNNscore>
0.3318580389

> <CNNaffinity>
7.8776664734

> <CNN_VS>
2.6142668724

> <CNNaffinity_variance>
0.4718503058

$$$$
[H]c1nc([H])c(N([H])C(=O)c2nc(-c3c(F)c([H])c([H])c([H])c3F)c([H])c([H])c2F)c([C@@]2([H])C([H])([H])[C@@]([H])(N([H])[H])C([H])([H])[C@@]([H])(C([H])([H])[H])C2([H])[H])c1[H]


 35 38  0  0  0  0  0  0  0  0999 V2000
    9.5320   45.2167  130.3341 N   0  0  0  0  0  0  0  0  0  0  0  0
    9.4181   46.2212  131.3004 C   0  0  0  0  0  0  0  0  0  0  0  0
    9.9173   47.3929  131.0485 O   0  0  0  0  0  0  0  0  0  0  0  0
    9.1157   44.2817  130.5471 H   0  0  0  0  0  0  0  0  0  0  0  0
    8.7819   46.1489  132.6055 C   0  0  0  0  0  0  0  0  0  0  0  0
    8.1265   45.0274  132.9557 N   0  0  0  0  0  0  0  0  0  0  0  0
    7.4922   44.7919  134.1061 C   0  0  0  0  0  0  0  0  0  0  0  0
    7.5112   45.8354  135.0434 C   0  0  0  0  0  0  0  0  0  0  0  0
    8.1611   47.0176  134.7554 C   0  0  0  0  0  0  0  0  0  0  0  0
    8.7928   47.1515  133.5227 C   0  0  0  0  0  0  0  0  0  0  0  0
    9.4309   48.3572  133.2735 F   0  0  0  0  0  0  0  0  0  0  0  0
    6.8466   43.5450  134.4562 C   0  0  0  0  0  0  0  0  0  0  0  0
    5.6972   43.5091  135.2320 C   0  0  0  0  0  0  0  0  0  0  0  0
    5.1596   44.6645  135.7255 F   0  0  0  0  0  0  0  0  0  0  0  0
    5.0459   42.3421  135.5561 C   0  0  0  0  0  0  0  0  0  0  0  0
    5.5190   41.1419  135.1127 C   0  0  0  0  0  0  0  0  0  0  0  0
    6.6757   41.1410  134.3311 C   0  0  0  0  0  0  0  0  0  0  0  0
    7.3063   42.3271  134.0236 C   0  0  0  0  0  0  0  0  0  0  0  0
    8.4462   42.3333  133.2533 F   0  0  0  0  0  0  0  0  0  0  0  0
   11.4966   45.0130  129.0272 C   0  0  0  0  0  0  0  0  0  0  0  0
   12.0907   45.1761  127.7708 C   0  0  0  0  0  0  0  0  0  0  0  0
   11.4206   45.7497  126.7034 C   0  0  0  0  0  0  0  0  0  0  0  0
   10.1701   46.1712  126.8383 N   0  0  0  0  0  0  0  0  0  0  0  0
    9.5707   46.0229  128.0417 C   0  0  0  0  0  0  0  0  0  0  0  0
   10.1815   45.4646  129.1098 C   0  0  0  0  0  0  0  0  0  0  0  0
   10.8765   41.4584  132.0804 C   0  0  0  0  0  0  0  0  0  0  0  0
   11.9559   42.5568  131.7875 C   0  0  0  0  0  0  0  0  0  0  0  0
   11.9369   43.5041  132.9911 C   0  0  0  0  0  0  0  0  0  0  0  0
   12.7010   44.7175  132.6235 C   0  0  0  0  0  0  0  0  0  0  0  0
   12.8817   45.6074  133.7128 N   0  0  0  0  0  0  0  0  0  0  0  0
   12.0158   45.4665  131.4484 C   0  0  0  0  0  0  0  0  0  0  0  0
   12.2109   44.5965  130.2106 C   0  0  0  0  0  0  0  0  0  0  0  0
   11.4484   43.2681  130.6071 C   0  0  0  0  0  0  0  0  0  0  0  0
   13.4499   46.4626  133.4727 H   0  0  0  0  0  0  0  0  0  0  0  0
   13.1389   45.2034  134.6217 H   0  0  0  0  0  0  0  0  0  0  0  0
 26 27  1  0  0  0
 27 28  1  0  0  0
 28 29  1  0  0  0
 29 30  1  0  0  0
 29 31  1  0  0  0
 31 32  1  0  0  0
 32 20  1  0  0  0
 20 21  2  0  0  0
 21 22  1  0  0  0
 22 23  2  0  0  0
 23 24  1  0  0  0
 24 25  2  0  0  0
 25  1  1  0  0  0
  1  2  1  0  0  0
  2  3  2  0  0  0
  2  5  1  0  0  0
  5  6  2  0  0  0
  6  7  1  0  0  0
  7 12  1  0  0  0
 12 13  2  0  0  0
 13 14  1  0  0  0
 13 15  1  0  0  0
 15 16  2  0  0  0
 16 17  1  0  0  0
 17 18  2  0  0  0
 18 19  1  0  0  0
  7  8  2  0  0  0
  8  9  1  0  0  0
  9 10  2  0  0  0
 10 11  1  0  0  0
 32 33  1  0  0  0
 33 27  1  0  0  0
 25 20  1  0  0  0
 10  5  1  0  0  0
 18 12  1  0  0  0
 30 34  1  0  0  0
 30 35  1  0  0  0
  1  4  1  0  0  0
M  END
> <minimizedAffinity>
28.06999

> <CNNscore>
0.2719540000

> <CNNaffinity>
7.4415793419

> <CNN_VS>
2.0237672329

> <CNNaffinity_variance>
0.6649187803

$$$$
[H]c1nc([H])c(N([H])C(=O)c2nc(-c3c(F)c([H])c([H])c([H])c3F)c([H])c([H])c2F)c([C@@]2([H])C([H])([H])[C@@]([H])(N([H])[H])C([H])([H])[C@@]([H])(C([H])([H])[H])C2([H])[H])c1[H]


 35 38  0  0  0  0  0  0  0  0999 V2000
    7.5204   48.2036  131.1927 N   0  0  0  0  0  0  0  0  0  0  0  0
    8.7137   48.8696  131.4900 C   0  0  0  0  0  0  0  0  0  0  0  0
    9.0112   49.9475  130.8302 O   0  0  0  0  0  0  0  0  0  0  0  0
    7.2895   47.3432  131.7399 H   0  0  0  0  0  0  0  0  0  0  0  0
    9.7151   48.5243  132.4855 C   0  0  0  0  0  0  0  0  0  0  0  0
   10.1341   47.2494  132.5813 N   0  0  0  0  0  0  0  0  0  0  0  0
   11.0409   46.7619  133.4305 C   0  0  0  0  0  0  0  0  0  0  0  0
   11.6089   47.6857  134.3204 C   0  0  0  0  0  0  0  0  0  0  0  0
   11.2279   49.0110  134.2846 C   0  0  0  0  0  0  0  0  0  0  0  0
   10.2737   49.4086  133.3530 C   0  0  0  0  0  0  0  0  0  0  0  0
    9.9176   50.7488  133.3541 F   0  0  0  0  0  0  0  0  0  0  0  0
   11.4974   45.3890  133.4571 C   0  0  0  0  0  0  0  0  0  0  0  0
   12.2419   44.8455  132.4204 C   0  0  0  0  0  0  0  0  0  0  0  0
   12.5340   45.5918  131.3135 F   0  0  0  0  0  0  0  0  0  0  0  0
   12.7138   43.5539  132.4313 C   0  0  0  0  0  0  0  0  0  0  0  0
   12.4610   42.7359  133.4934 C   0  0  0  0  0  0  0  0  0  0  0  0
   11.7123   43.2499  134.5536 C   0  0  0  0  0  0  0  0  0  0  0  0
   11.2528   44.5485  134.5132 C   0  0  0  0  0  0  0  0  0  0  0  0
   10.5149   45.0614  135.5550 F   0  0  0  0  0  0  0  0  0  0  0  0
    6.4389   47.8223  129.1205 C   0  0  0  0  0  0  0  0  0  0  0  0
    5.4989   48.2753  128.1882 C   0  0  0  0  0  0  0  0  0  0  0  0
    4.8479   49.4900  128.3229 C   0  0  0  0  0  0  0  0  0  0  0  0
    5.0980   50.2794  129.3592 N   0  0  0  0  0  0  0  0  0  0  0  0
    6.0004   49.8643  130.2772 C   0  0  0  0  0  0  0  0  0  0  0  0
    6.6559   48.6859  130.1916 C   0  0  0  0  0  0  0  0  0  0  0  0
    8.0419   44.4818  132.0553 C   0  0  0  0  0  0  0  0  0  0  0  0
    8.0179   44.7506  130.5111 C   0  0  0  0  0  0  0  0  0  0  0  0
    9.4733   44.9904  130.0981 C   0  0  0  0  0  0  0  0  0  0  0  0
    9.4678   45.5542  128.7293 C   0  0  0  0  0  0  0  0  0  0  0  0
   10.7685   45.6790  128.1782 N   0  0  0  0  0  0  0  0  0  0  0  0
    8.7576   46.9350  128.7039 C   0  0  0  0  0  0  0  0  0  0  0  0
    7.2737   46.6605  128.9269 C   0  0  0  0  0  0  0  0  0  0  0  0
    7.2637   46.0022  130.3655 C   0  0  0  0  0  0  0  0  0  0  0  0
   10.7778   46.0519  127.1919 H   0  0  0  0  0  0  0  0  0  0  0  0
   11.4206   44.8966  128.3119 H   0  0  0  0  0  0  0  0  0  0  0  0
 26 27  1  0  0  0
 27 28  1  0  0  0
 28 29  1  0  0  0
 29 30  1  0  0  0
 29 31  1  0  0  0
 31 32  1  0  0  0
 32 20  1  0  0  0
 20 21  2  0  0  0
 21 22  1  0  0  0
 22 23  2  0  0  0
 23 24  1  0  0  0
 24 25  2  0  0  0
 25  1  1  0  0  0
  1  2  1  0  0  0
  2  3  2  0  0  0
  2  5  1  0  0  0
  5  6  2  0  0  0
  6  7  1  0  0  0
  7 12  1  0  0  0
 12 13  2  0  0  0
 13 14  1  0  0  0
 13 15  1  0  0  0
 15 16  2  0  0  0
 16 17  1  0  0  0
 17 18  2  0  0  0
 18 19  1  0  0  0
  7  8  2  0  0  0
  8  9  1  0  0  0
  9 10  2  0  0  0
 10 11  1  0  0  0
 32 33  1  0  0  0
 33 27  1  0  0  0
 25 20  1  0  0  0
 10  5  1  0  0  0
 18 12  1  0  0  0
 30 34  1  0  0  0
 30 35  1  0  0  0
  1  4  1  0  0  0
M  END
> <minimizedAffinity>
1.28790

> <CNNscore>
0.2353613973

> <CNNaffinity>
7.6111016273

> <CNN_VS>
1.7913595438

> <CNNaffinity_variance>
0.2072996348

$$$$
[H]OC(=O)C1(C([H])([H])c2c([H])nc(OC([H])([H])C([H])([H])c3nc(-c4c([H])c([H])c([H])c(Cl)c4[H])oc3C([H])([H])[H])c([H])c2[H])OC([H])([H])C([H])([H])C1([H])[H]


 32 35  0  0  0  0  0  0  0  0999 V2000
    8.7896   45.5972  133.5358 O   0  0  0  0  0  0  0  0  0  0  0  0
    8.4883   46.1877  132.3208 C   0  0  0  0  0  0  0  0  0  0  0  0
    8.5150   47.5882  132.2163 C   0  0  0  0  0  0  0  0  0  0  0  0
    8.2187   48.2048  131.0158 C   0  0  0  0  0  0  0  0  0  0  0  0
    7.8896   47.4796  129.8889 C   0  0  0  0  0  0  0  0  0  0  0  0
    7.8771   46.1198  130.0432 C   0  0  0  0  0  0  0  0  0  0  0  0
    8.1658   45.5292  131.2108 N   0  0  0  0  0  0  0  0  0  0  0  0
    7.5798   48.1354  128.6187 C   0  0  0  0  0  0  0  0  0  0  0  0
    6.5808   49.2336  128.6392 C   0  0  0  0  0  0  0  0  0  0  0  0
    5.5886   49.0778  127.4965 C   0  0  0  0  0  0  0  0  0  0  0  0
    4.7327   47.9490  128.0365 C   0  0  0  0  0  0  0  0  0  0  0  0
    4.8272   48.1576  129.5082 C   0  0  0  0  0  0  0  0  0  0  0  0
    5.7993   49.0813  129.7987 O   0  0  0  0  0  0  0  0  0  0  0  0
    7.1323   50.6037  128.6790 C   0  0  0  0  0  0  0  0  0  0  0  0
    8.2548   50.8841  128.1298 O   0  0  0  0  0  0  0  0  0  0  0  0
    6.5160   51.6817  129.2929 O   0  0  0  0  0  0  0  0  0  0  0  0
    6.5054   52.5584  128.7909 H   0  0  0  0  0  0  0  0  0  0  0  0
    8.8080   46.2144  134.7862 C   0  0  0  0  0  0  0  0  0  0  0  0
   10.1608   45.9748  135.4407 C   0  0  0  0  0  0  0  0  0  0  0  0
   12.3530   43.7545  135.9176 C   0  0  0  0  0  0  0  0  0  0  0  0
   11.9874   44.3813  134.6203 C   0  0  0  0  0  0  0  0  0  0  0  0
   12.5132   44.1218  133.4574 O   0  0  0  0  0  0  0  0  0  0  0  0
   11.9708   44.8428  132.5171 C   0  0  0  0  0  0  0  0  0  0  0  0
   11.0411   45.6122  133.1049 N   0  0  0  0  0  0  0  0  0  0  0  0
   11.0168   45.3563  134.4241 C   0  0  0  0  0  0  0  0  0  0  0  0
   12.2981   44.8288  131.0992 C   0  0  0  0  0  0  0  0  0  0  0  0
   11.4896   45.3648  130.1210 C   0  0  0  0  0  0  0  0  0  0  0  0
   11.8304   45.3376  128.7840 C   0  0  0  0  0  0  0  0  0  0  0  0
   13.0129   44.7630  128.3680 C   0  0  0  0  0  0  0  0  0  0  0  0
   13.8518   44.2135  129.3248 C   0  0  0  0  0  0  0  0  0  0  0  0
   15.3743   43.4676  128.8456 Cl  0  0  0  0  0  0  0  0  0  0  0  0
   13.4918   44.2517  130.6537 C   0  0  0  0  0  0  0  0  0  0  0  0
 20 21  1  0  0  0
 21 22  1  0  0  0
 22 23  1  0  0  0
 23 26  1  0  0  0
 26 27  2  0  0  0
 27 28  1  0  0  0
 28 29  2  0  0  0
 29 30  1  0  0  0
 30 31  1  0  0  0
 30 32  2  0  0  0
 23 24  2  0  0  0
 24 25  1  0  0  0
 25 19  1  0  0  0
 19 18  1  0  0  0
 18  1  1  0  0  0
  1  2  1  0  0  0
  2  3  2  0  0  0
  3  4  1  0  0  0
  4  5  2  0  0  0
  5  8  1  0  0  0
  8  9  1  0  0  0
  9 14  1  0  0  0
 14 15  2  0  0  0
 14 16  1  0  0  0
  9 10  1  0  0  0
 10 11  1  0  0  0
 11 12  1  0  0  0
 12 13  1  0  0  0
  5  6  1  0  0  0
  6  7  2  0  0  0
 25 21  2  0  0  0
  7  2  1  0  0  0
 32 26  1  0  0  0
 13  9  1  0  0  0
 16 17  1  0  0  0
M  END
> <minimizedAffinity>
7.26331

> <CNNscore>
0.3653230667

> <CNNaffinity>
7.2655816078

> <CNN_VS>
2.6542844772

> <CNNaffinity_variance>
0.8767532110

$$$$
[H]OC(=O)C1(C([H])([H])c2c([H])nc(OC([H])([H])C([H])([H])c3nc(-c4c([H])c([H])c([H])c(Cl)c4[H])oc3C([H])([H])[H])c([H])c2[H])OC([H])([H])C([H])([H])C1([H])[H]


 32 35  0  0  0  0  0  0  0  0999 V2000
    9.5818   45.8673  135.1473 O   0  0  0  0  0  0  0  0  0  0  0  0
    9.4016   46.3914  133.8790 C   0  0  0  0  0  0  0  0  0  0  0  0
    8.2741   46.0070  133.1346 C   0  0  0  0  0  0  0  0  0  0  0  0
    8.0687   46.5142  131.8658 C   0  0  0  0  0  0  0  0  0  0  0  0
    8.9502   47.4053  131.2887 C   0  0  0  0  0  0  0  0  0  0  0  0
   10.0320   47.7472  132.0541 C   0  0  0  0  0  0  0  0  0  0  0  0
   10.2242   47.2509  133.2839 N   0  0  0  0  0  0  0  0  0  0  0  0
    8.7279   47.9430  129.9467 C   0  0  0  0  0  0  0  0  0  0  0  0
    7.5638   48.8438  129.7526 C   0  0  0  0  0  0  0  0  0  0  0  0
    7.2887   49.0535  128.2710 C   0  0  0  0  0  0  0  0  0  0  0  0
    6.6401   47.7268  127.9283 C   0  0  0  0  0  0  0  0  0  0  0  0
    5.9925   47.3503  129.2157 C   0  0  0  0  0  0  0  0  0  0  0  0
    6.4202   48.1753  130.2252 O   0  0  0  0  0  0  0  0  0  0  0  0
    7.6237   50.1350  130.4683 C   0  0  0  0  0  0  0  0  0  0  0  0
    6.5832   50.8702  130.6003 O   0  0  0  0  0  0  0  0  0  0  0  0
    8.7676   50.6620  131.0448 O   0  0  0  0  0  0  0  0  0  0  0  0
    8.6797   51.0653  131.9669 H   0  0  0  0  0  0  0  0  0  0  0  0
   10.7446   45.2924  135.6594 C   0  0  0  0  0  0  0  0  0  0  0  0
   10.7005   43.7887  135.4297 C   0  0  0  0  0  0  0  0  0  0  0  0
    8.5600   41.9375  134.0317 C   0  0  0  0  0  0  0  0  0  0  0  0
    9.5888   42.7742  133.3600 C   0  0  0  0  0  0  0  0  0  0  0  0
    9.7837   42.8834  132.0769 O   0  0  0  0  0  0  0  0  0  0  0  0
   10.7655   43.6981  131.8112 C   0  0  0  0  0  0  0  0  0  0  0  0
   11.2320   44.1415  132.9892 N   0  0  0  0  0  0  0  0  0  0  0  0
   10.5237   43.5880  133.9884 C   0  0  0  0  0  0  0  0  0  0  0  0
   11.2710   44.0667  130.4973 C   0  0  0  0  0  0  0  0  0  0  0  0
   10.4641   44.4067  129.4337 C   0  0  0  0  0  0  0  0  0  0  0  0
   10.9755   44.7541  128.2000 C   0  0  0  0  0  0  0  0  0  0  0  0
   12.3366   44.7747  127.9798 C   0  0  0  0  0  0  0  0  0  0  0  0
   13.1794   44.4383  129.0275 C   0  0  0  0  0  0  0  0  0  0  0  0
   14.9263   44.4492  128.7983 Cl  0  0  0  0  0  0  0  0  0  0  0  0
   12.6475   44.0947  130.2505 C   0  0  0  0  0  0  0  0  0  0  0  0
 20 21  1  0  0  0
 21 22  1  0  0  0
 22 23  1  0  0  0
 23 26  1  0  0  0
 26 27  2  0  0  0
 27 28  1  0  0  0
 28 29  2  0  0  0
 29 30  1  0  0  0
 30 31  1  0  0  0
 30 32  2  0  0  0
 23 24  2  0  0  0
 24 25  1  0  0  0
 25 19  1  0  0  0
 19 18  1  0  0  0
 18  1  1  0  0  0
  1  2  1  0  0  0
  2  3  2  0  0  0
  3  4  1  0  0  0
  4  5  2  0  0  0
  5  8  1  0  0  0
  8  9  1  0  0  0
  9 14  1  0  0  0
 14 15  2  0  0  0
 14 16  1  0  0  0
  9 10  1  0  0  0
 10 11  1  0  0  0
 11 12  1  0  0  0
 12 13  1  0  0  0
  5  6  1  0  0  0
  6  7  2  0  0  0
 25 21  2  0  0  0
  7  2  1  0  0  0
 32 26  1  0  0  0
 13  9  1  0  0  0
 16 17  1  0  0  0
M  END
> <minimizedAffinity>
-2.46936

> <CNNscore>
0.3067088127

> <CNNaffinity>
7.2329711914

> <CNN_VS>
2.2184159756

> <CNNaffinity_variance>
0.2132941931

$$$$
[H]OC(=O)C1(C([H])([H])c2c([H])nc(OC([H])([H])C([H])([H])c3nc(-c4c([H])c([H])c([H])c(Cl)c4[H])oc3C([H])([H])[H])c([H])c2[H])OC([H])([H])C([H])([H])C1([H])[H]


 32 35  0  0  0  0  0  0  0  0999 V2000
   10.7614   48.4888  134.6276 O   0  0  0  0  0  0  0  0  0  0  0  0
    9.9677   48.7335  133.5205 C   0  0  0  0  0  0  0  0  0  0  0  0
    8.7849   47.9950  133.3508 C   0  0  0  0  0  0  0  0  0  0  0  0
    7.9733   48.2182  132.2551 C   0  0  0  0  0  0  0  0  0  0  0  0
    8.2882   49.1615  131.2984 C   0  0  0  0  0  0  0  0  0  0  0  0
    9.4502   49.8531  131.5094 C   0  0  0  0  0  0  0  0  0  0  0  0
   10.2320   49.6309  132.5747 N   0  0  0  0  0  0  0  0  0  0  0  0
    7.4250   49.3976  130.1414 C   0  0  0  0  0  0  0  0  0  0  0  0
    6.8947   48.2089  129.4270 C   0  0  0  0  0  0  0  0  0  0  0  0
    7.4777   48.1216  128.0245 C   0  0  0  0  0  0  0  0  0  0  0  0
    8.8726   47.6212  128.3445 C   0  0  0  0  0  0  0  0  0  0  0  0
    8.6477   46.8347  129.5893 C   0  0  0  0  0  0  0  0  0  0  0  0
    7.3859   47.0627  130.0775 O   0  0  0  0  0  0  0  0  0  0  0  0
    5.4232   48.0797  129.3981 C   0  0  0  0  0  0  0  0  0  0  0  0
    4.6691   49.1045  129.2514 O   0  0  0  0  0  0  0  0  0  0  0  0
    4.7365   46.8834  129.5244 O   0  0  0  0  0  0  0  0  0  0  0  0
    3.9643   46.7221  128.8932 H   0  0  0  0  0  0  0  0  0  0  0  0
   11.8315   47.5984  134.7117 C   0  0  0  0  0  0  0  0  0  0  0  0
   11.3214   46.2504  135.2003 C   0  0  0  0  0  0  0  0  0  0  0  0
   13.6425   44.1456  134.8190 C   0  0  0  0  0  0  0  0  0  0  0  0
   12.4960   44.3831  133.9033 C   0  0  0  0  0  0  0  0  0  0  0  0
   12.2556   43.7629  132.7835 O   0  0  0  0  0  0  0  0  0  0  0  0
   11.1687   44.2054  132.2170 C   0  0  0  0  0  0  0  0  0  0  0  0
   10.6778   45.1662  133.0156 N   0  0  0  0  0  0  0  0  0  0  0  0
   11.4783   45.3117  134.0854 C   0  0  0  0  0  0  0  0  0  0  0  0
   10.5861   43.7560  130.9614 C   0  0  0  0  0  0  0  0  0  0  0  0
   11.0327   44.1589  129.7220 C   0  0  0  0  0  0  0  0  0  0  0  0
   10.4595   43.7118  128.5490 C   0  0  0  0  0  0  0  0  0  0  0  0
    9.3996   42.8300  128.5721 C   0  0  0  0  0  0  0  0  0  0  0  0
    8.9235   42.4027  129.8016 C   0  0  0  0  0  0  0  0  0  0  0  0
    7.5715   41.2761  129.8859 Cl  0  0  0  0  0  0  0  0  0  0  0  0
    9.5106   42.8618  130.9599 C   0  0  0  0  0  0  0  0  0  0  0  0
 20 21  1  0  0  0
 21 22  1  0  0  0
 22 23  1  0  0  0
 23 26  1  0  0  0
 26 27  2  0  0  0
 27 28  1  0  0  0
 28 29  2  0  0  0
 29 30  1  0  0  0
 30 31  1  0  0  0
 30 32  2  0  0  0
 23 24  2  0  0  0
 24 25  1  0  0  0
 25 19  1  0  0  0
 19 18  1  0  0  0
 18  1  1  0  0  0
  1  2  1  0  0  0
  2  3  2  0  0  0
  3  4  1  0  0  0
  4  5  2  0  0  0
  5  8  1  0  0  0
  8  9  1  0  0  0
  9 14  1  0  0  0
 14 15  2  0  0  0
 14 16  1  0  0  0
  9 10  1  0  0  0
 10 11  1  0  0  0
 11 12  1  0  0  0
 12 13  1  0  0  0
  5  6  1  0  0  0
  6  7  2  0  0  0
 25 21  2  0  0  0
  7  2  1  0  0  0
 32 26  1  0  0  0
 13  9  1  0  0  0
 16 17  1  0  0  0
M  END
> <minimizedAffinity>
2.53953

> <CNNscore>
0.2610596716

> <CNNaffinity>
7.0289468765

> <CNN_VS>
1.8349745274

> <CNNaffinity_variance>
0.2964773774

$$$$
[H]OC(=O)C1(C([H])([H])c2c([H])nc(OC([H])([H])C([H])([H])c3nc(-c4c([H])c([H])c([H])c(Cl)c4[H])oc3C([H])([H])[H])c([H])c2[H])OC([H])([H])C([H])([H])C1([H])[H]


 32 35  0  0  0  0  0  0  0  0999 V2000
    9.4329   43.0519  129.4243 O   0  0  0  0  0  0  0  0  0  0  0  0
    9.0256   44.3585  129.2178 C   0  0  0  0  0  0  0  0  0  0  0  0
    9.9148   45.2646  128.6169 C   0  0  0  0  0  0  0  0  0  0  0  0
    9.5351   46.5751  128.3985 C   0  0  0  0  0  0  0  0  0  0  0  0
    8.2857   47.0384  128.7572 C   0  0  0  0  0  0  0  0  0  0  0  0
    7.4577   46.1171  129.3392 C   0  0  0  0  0  0  0  0  0  0  0  0
    7.8333   44.8478  129.5475 N   0  0  0  0  0  0  0  0  0  0  0  0
    7.8857   48.4254  128.5215 C   0  0  0  0  0  0  0  0  0  0  0  0
    7.8877   49.3473  129.6853 C   0  0  0  0  0  0  0  0  0  0  0  0
    7.8371   48.5654  130.9894 C   0  0  0  0  0  0  0  0  0  0  0  0
    9.2677   48.0683  131.0597 C   0  0  0  0  0  0  0  0  0  0  0  0
   10.0110   49.1447  130.3474 C   0  0  0  0  0  0  0  0  0  0  0  0
    9.1363   49.9941  129.7184 O   0  0  0  0  0  0  0  0  0  0  0  0
    6.8621   50.4107  129.6650 C   0  0  0  0  0  0  0  0  0  0  0  0
    5.9152   50.4367  130.5269 O   0  0  0  0  0  0  0  0  0  0  0  0
    6.8211   51.4458  128.7455 O   0  0  0  0  0  0  0  0  0  0  0  0
    6.6293   52.3730  129.0981 H   0  0  0  0  0  0  0  0  0  0  0  0
    9.1419   42.2470  130.5254 C   0  0  0  0  0  0  0  0  0  0  0  0
   10.4237   41.9811  131.3014 C   0  0  0  0  0  0  0  0  0  0  0  0
   13.1291   42.7891  132.7124 C   0  0  0  0  0  0  0  0  0  0  0  0
   11.8360   43.5191  132.7809 C   0  0  0  0  0  0  0  0  0  0  0  0
   11.5988   44.6176  133.4390 O   0  0  0  0  0  0  0  0  0  0  0  0
   10.3622   45.0025  133.2946 C   0  0  0  0  0  0  0  0  0  0  0  0
    9.7655   44.1021  132.4976 N   0  0  0  0  0  0  0  0  0  0  0  0
   10.6524   43.1535  132.1511 C   0  0  0  0  0  0  0  0  0  0  0  0
    9.7336   46.1784  133.8778 C   0  0  0  0  0  0  0  0  0  0  0  0
    8.6963   46.1231  134.7827 C   0  0  0  0  0  0  0  0  0  0  0  0
    8.1232   47.2579  135.3195 C   0  0  0  0  0  0  0  0  0  0  0  0
    8.5736   48.5121  134.9651 C   0  0  0  0  0  0  0  0  0  0  0  0
    9.6162   48.6063  134.0567 C   0  0  0  0  0  0  0  0  0  0  0  0
   10.2288   50.1852  133.5710 Cl  0  0  0  0  0  0  0  0  0  0  0  0
   10.1735   47.4606  133.5334 C   0  0  0  0  0  0  0  0  0  0  0  0
 20 21  1  0  0  0
 21 22  1  0  0  0
 22 23  1  0  0  0
 23 26  1  0  0  0
 26 27  2  0  0  0
 27 28  1  0  0  0
 28 29  2  0  0  0
 29 30  1  0  0  0
 30 31  1  0  0  0
 30 32  2  0  0  0
 23 24  2  0  0  0
 24 25  1  0  0  0
 25 19  1  0  0  0
 19 18  1  0  0  0
 18  1  1  0  0  0
  1  2  1  0  0  0
  2  3  2  0  0  0
  3  4  1  0  0  0
  4  5  2  0  0  0
  5  8  1  0  0  0
  8  9  1  0  0  0
  9 14  1  0  0  0
 14 15  2  0  0  0
 14 16  1  0  0  0
  9 10  1  0  0  0
 10 11  1  0  0  0
 11 12  1  0  0  0
 12 13  1  0  0  0
  5  6  1  0  0  0
  6  7  2  0  0  0
 25 21  2  0  0  0
  7  2  1  0  0  0
 32 26  1  0  0  0
 13  9  1  0  0  0
 16 17  1  0  0  0
M  END
> <minimizedAffinity>
-2.34144

> <CNNscore>
0.2572134435

> <CNNaffinity>
7.3768777847

> <CNN_VS>
1.8974320889

> <CNNaffinity_variance>
0.0944235101

$$$$
[H]OC(=O)C1(C([H])([H])c2c([H])nc(OC([H])([H])C([H])([H])c3nc(-c4c([H])c([H])c([H])c(Cl)c4[H])oc3C([H])([H])[H])c([H])c2[H])OC([H])([H])C([H])([H])C1([H])[H]


 32 35  0  0  0  0  0  0  0  0999 V2000
    6.8072   48.2617  128.7665 O   0  0  0  0  0  0  0  0  0  0  0  0
    7.4263   47.1798  129.3681 C   0  0  0  0  0  0  0  0  0  0  0  0
    6.7750   46.5193  130.4229 C   0  0  0  0  0  0  0  0  0  0  0  0
    7.3695   45.4364  131.0420 C   0  0  0  0  0  0  0  0  0  0  0  0
    8.6081   44.9681  130.6540 C   0  0  0  0  0  0  0  0  0  0  0  0
    9.2006   45.6460  129.6232 C   0  0  0  0  0  0  0  0  0  0  0  0
    8.6176   46.6953  129.0278 N   0  0  0  0  0  0  0  0  0  0  0  0
    9.2330   43.8194  131.3092 C   0  0  0  0  0  0  0  0  0  0  0  0
   10.3281   43.1275  130.5836 C   0  0  0  0  0  0  0  0  0  0  0  0
   11.4395   44.1049  130.2310 C   0  0  0  0  0  0  0  0  0  0  0  0
   12.0974   44.2636  131.5876 C   0  0  0  0  0  0  0  0  0  0  0  0
   11.8339   42.9423  132.2225 C   0  0  0  0  0  0  0  0  0  0  0  0
   10.9322   42.2251  131.4775 O   0  0  0  0  0  0  0  0  0  0  0  0
    9.9196   42.3408  129.4016 C   0  0  0  0  0  0  0  0  0  0  0  0
    9.9549   42.8439  128.2243 O   0  0  0  0  0  0  0  0  0  0  0  0
    9.4721   41.0307  129.4456 O   0  0  0  0  0  0  0  0  0  0  0  0
    9.8339   40.3926  128.7509 H   0  0  0  0  0  0  0  0  0  0  0  0
    6.4977   49.4861  129.3581 C   0  0  0  0  0  0  0  0  0  0  0  0
    7.7743   50.2985  129.5200 C   0  0  0  0  0  0  0  0  0  0  0  0
   10.8447   49.6764  129.1342 C   0  0  0  0  0  0  0  0  0  0  0  0
    9.9889   49.2637  130.2774 C   0  0  0  0  0  0  0  0  0  0  0  0
   10.3614   48.5709  131.3154 O   0  0  0  0  0  0  0  0  0  0  0  0
    9.3710   48.3768  132.1397 C   0  0  0  0  0  0  0  0  0  0  0  0
    8.2968   48.9784  131.6050 N   0  0  0  0  0  0  0  0  0  0  0  0
    8.6378   49.5477  130.4363 C   0  0  0  0  0  0  0  0  0  0  0  0
    9.4058   47.6504  133.4003 C   0  0  0  0  0  0  0  0  0  0  0  0
   10.0195   46.4279  133.5633 C   0  0  0  0  0  0  0  0  0  0  0  0
   10.0368   45.7656  134.7739 C   0  0  0  0  0  0  0  0  0  0  0  0
    9.4303   46.3105  135.8860 C   0  0  0  0  0  0  0  0  0  0  0  0
    8.8027   47.5398  135.7593 C   0  0  0  0  0  0  0  0  0  0  0  0
    8.0131   48.2795  137.1499 Cl  0  0  0  0  0  0  0  0  0  0  0  0
    8.7975   48.1833  134.5415 C   0  0  0  0  0  0  0  0  0  0  0  0
 20 21  1  0  0  0
 21 22  1  0  0  0
 22 23  1  0  0  0
 23 26  1  0  0  0
 26 27  2  0  0  0
 27 28  1  0  0  0
 28 29  2  0  0  0
 29 30  1  0  0  0
 30 31  1  0  0  0
 30 32  2  0  0  0
 23 24  2  0  0  0
 24 25  1  0  0  0
 25 19  1  0  0  0
 19 18  1  0  0  0
 18  1  1  0  0  0
  1  2  1  0  0  0
  2  3  2  0  0  0
  3  4  1  0  0  0
  4  5  2  0  0  0
  5  8  1  0  0  0
  8  9  1  0  0  0
  9 14  1  0  0  0
 14 15  2  0  0  0
 14 16  1  0  0  0
  9 10  1  0  0  0
 10 11  1  0  0  0
 11 12  1  0  0  0
 12 13  1  0  0  0
  5  6  1  0  0  0
  6  7  2  0  0  0
 25 21  2  0  0  0
  7  2  1  0  0  0
 32 26  1  0  0  0
 13  9  1  0  0  0
 16 17  1  0  0  0
M  END
> <minimizedAffinity>
0.84960

> <CNNscore>
0.2404507846

> <CNNaffinity>
7.2378807068

> <CNN_VS>
1.7403540611

> <CNNaffinity_variance>
0.1104063541

$$$$
[H]OC(=O)C1(C([H])([H])c2c([H])nc(OC([H])([H])C([H])([H])c3nc(-c4c([H])c([H])c([H])c(Cl)c4[H])oc3C([H])([H])[H])c([H])c2[H])OC([H])([H])C([H])([H])C1([H])[H]


 32 35  0  0  0  0  0  0  0  0999 V2000
    7.6515   49.1581  128.4104 O   0  0  0  0  0  0  0  0  0  0  0  0
    7.6752   47.8681  128.9113 C   0  0  0  0  0  0  0  0  0  0  0  0
    6.5879   47.4113  129.6744 C   0  0  0  0  0  0  0  0  0  0  0  0
    6.5846   46.1281  130.1871 C   0  0  0  0  0  0  0  0  0  0  0  0
    7.6338   45.2579  129.9727 C   0  0  0  0  0  0  0  0  0  0  0  0
    8.6681   45.7511  129.2243 C   0  0  0  0  0  0  0  0  0  0  0  0
    8.6639   46.9967  128.7305 N   0  0  0  0  0  0  0  0  0  0  0  0
    7.6255   43.8991  130.5140 C   0  0  0  0  0  0  0  0  0  0  0  0
    8.9095   43.3559  131.0245 C   0  0  0  0  0  0  0  0  0  0  0  0
    9.5830   44.3546  131.9539 C   0  0  0  0  0  0  0  0  0  0  0  0
    8.7276   44.1858  133.1941 C   0  0  0  0  0  0  0  0  0  0  0  0
    8.2964   42.7640  133.0889 C   0  0  0  0  0  0  0  0  0  0  0  0
    8.6124   42.2588  131.8530 O   0  0  0  0  0  0  0  0  0  0  0  0
    9.8537   42.8666  129.9988 C   0  0  0  0  0  0  0  0  0  0  0  0
   10.7471   43.6353  129.4976 O   0  0  0  0  0  0  0  0  0  0  0  0
    9.8661   41.5771  129.4930 O   0  0  0  0  0  0  0  0  0  0  0  0
   10.7649   41.1276  129.3889 H   0  0  0  0  0  0  0  0  0  0  0  0
    7.6024   50.3422  129.1455 C   0  0  0  0  0  0  0  0  0  0  0  0
    8.9691   50.6036  129.7618 C   0  0  0  0  0  0  0  0  0  0  0  0
    6.9823   49.8698  132.1022 C   0  0  0  0  0  0  0  0  0  0  0  0
    8.3053   49.2494  131.8293 C   0  0  0  0  0  0  0  0  0  0  0  0
    8.8718   48.2969  132.5134 O   0  0  0  0  0  0  0  0  0  0  0  0
   10.0318   47.9759  132.0137 C   0  0  0  0  0  0  0  0  0  0  0  0
   10.2267   48.7652  130.9456 N   0  0  0  0  0  0  0  0  0  0  0  0
    9.1691   49.5802  130.7921 C   0  0  0  0  0  0  0  0  0  0  0  0
   10.9507   46.9606  132.5063 C   0  0  0  0  0  0  0  0  0  0  0  0
   11.1555   46.6964  133.8428 C   0  0  0  0  0  0  0  0  0  0  0  0
   12.0331   45.7241  134.2776 C   0  0  0  0  0  0  0  0  0  0  0  0
   12.7513   44.9669  133.3764 C   0  0  0  0  0  0  0  0  0  0  0  0
   12.5708   45.2050  132.0230 C   0  0  0  0  0  0  0  0  0  0  0  0
   13.4644   44.2648  130.8306 Cl  0  0  0  0  0  0  0  0  0  0  0  0
   11.6898   46.1803  131.6113 C   0  0  0  0  0  0  0  0  0  0  0  0
 20 21  1  0  0  0
 21 22  1  0  0  0
 22 23  1  0  0  0
 23 26  1  0  0  0
 26 27  2  0  0  0
 27 28  1  0  0  0
 28 29  2  0  0  0
 29 30  1  0  0  0
 30 31  1  0  0  0
 30 32  2  0  0  0
 23 24  2  0  0  0
 24 25  1  0  0  0
 25 19  1  0  0  0
 19 18  1  0  0  0
 18  1  1  0  0  0
  1  2  1  0  0  0
  2  3  2  0  0  0
  3  4  1  0  0  0
  4  5  2  0  0  0
  5  8  1  0  0  0
  8  9  1  0  0  0
  9 14  1  0  0  0
 14 15  2  0  0  0
 14 16  1  0  0  0
  9 10  1  0  0  0
 10 11  1  0  0  0
 11 12  1  0  0  0
 12 13  1  0  0  0
  5  6  1  0  0  0
  6  7  2  0  0  0
 25 21  2  0  0  0
  7  2  1  0  0  0
 32 26  1  0  0  0
 13  9  1  0  0  0
 16 17  1  0  0  0
M  END
> <minimizedAffinity>
-0.07013

> <CNNscore>
0.2269082665

> <CNNaffinity>
7.2045965195

> <CNN_VS>
1.6347825527

> <CNNaffinity_variance>
0.1996597648

$$$$
[H]OC(=O)C1(C([H])([H])c2c([H])nc(OC([H])([H])C([H])([H])c3nc(-c4c([H])c([H])c([H])c(Cl)c4[H])oc3C([H])([H])[H])c([H])c2[H])OC([H])([H])C([H])([H])C1([H])[H]


 32 35  0  0  0  0  0  0  0  0999 V2000
   11.2937   46.9496  134.6697 O   0  0  0  0  0  0  0  0  0  0  0  0
   10.3919   47.3838  133.7138 C   0  0  0  0  0  0  0  0  0  0  0  0
    9.3145   46.5534  133.3635 C   0  0  0  0  0  0  0  0  0  0  0  0
    8.3988   46.9611  132.4124 C   0  0  0  0  0  0  0  0  0  0  0  0
    8.5053   48.1822  131.7786 C   0  0  0  0  0  0  0  0  0  0  0  0
    9.5719   48.9529  132.1545 C   0  0  0  0  0  0  0  0  0  0  0  0
   10.4557   48.5505  133.0778 N   0  0  0  0  0  0  0  0  0  0  0  0
    7.5323   48.6121  130.7747 C   0  0  0  0  0  0  0  0  0  0  0  0
    7.4540   47.8293  129.5156 C   0  0  0  0  0  0  0  0  0  0  0  0
    6.4229   46.7173  129.6383 C   0  0  0  0  0  0  0  0  0  0  0  0
    5.1443   47.5222  129.5140 C   0  0  0  0  0  0  0  0  0  0  0  0
    5.5696   48.6586  128.6501 C   0  0  0  0  0  0  0  0  0  0  0  0
    6.9351   48.6731  128.5171 O   0  0  0  0  0  0  0  0  0  0  0  0
    8.7374   47.3075  129.0020 C   0  0  0  0  0  0  0  0  0  0  0  0
    8.7965   46.1967  128.3674 O   0  0  0  0  0  0  0  0  0  0  0  0
    9.9599   47.9415  129.1514 O   0  0  0  0  0  0  0  0  0  0  0  0
   10.5669   47.9760  128.3444 H   0  0  0  0  0  0  0  0  0  0  0  0
   12.6852   47.0125  134.5994 C   0  0  0  0  0  0  0  0  0  0  0  0
   13.2478   45.5986  134.5798 C   0  0  0  0  0  0  0  0  0  0  0  0
   11.4498   43.4074  135.9686 C   0  0  0  0  0  0  0  0  0  0  0  0
   11.4448   43.7833  134.5305 C   0  0  0  0  0  0  0  0  0  0  0  0
   10.6973   43.2687  133.5963 O   0  0  0  0  0  0  0  0  0  0  0  0
   10.9348   43.8179  132.4387 C   0  0  0  0  0  0  0  0  0  0  0  0
   11.8899   44.7405  132.6350 N   0  0  0  0  0  0  0  0  0  0  0  0
   12.2401   44.7534  133.9325 C   0  0  0  0  0  0  0  0  0  0  0  0
   10.2970   43.5035  131.1690 C   0  0  0  0  0  0  0  0  0  0  0  0
    9.1022   42.8265  131.0587 C   0  0  0  0  0  0  0  0  0  0  0  0
    8.5221   42.5459  129.8385 C   0  0  0  0  0  0  0  0  0  0  0  0
    9.1257   42.9383  128.6624 C   0  0  0  0  0  0  0  0  0  0  0  0
   10.3293   43.6219  128.7347 C   0  0  0  0  0  0  0  0  0  0  0  0
   11.1412   44.1456  127.2614 Cl  0  0  0  0  0  0  0  0  0  0  0  0
   10.8905   43.8914  129.9633 C   0  0  0  0  0  0  0  0  0  0  0  0
 20 21  1  0  0  0
 21 22  1  0  0  0
 22 23  1  0  0  0
 23 26  1  0  0  0
 26 27  2  0  0  0
 27 28  1  0  0  0
 28 29  2  0  0  0
 29 30  1  0  0  0
 30 31  1  0  0  0
 30 32  2  0  0  0
 23 24  2  0  0  0
 24 25  1  0  0  0
 25 19  1  0  0  0
 19 18  1  0  0  0
 18  1  1  0  0  0
  1  2  1  0  0  0
  2  3  2  0  0  0
  3  4  1  0  0  0
  4  5  2  0  0  0
  5  8  1  0  0  0
  8  9  1  0  0  0
  9 14  1  0  0  0
 14 15  2  0  0  0
 14 16  1  0  0  0
  9 10  1  0  0  0
 10 11  1  0  0  0
 11 12  1  0  0  0
 12 13  1  0  0  0
  5  6  1  0  0  0
  6  7  2  0  0  0
 25 21  2  0  0  0
  7  2  1  0  0  0
 32 26  1  0  0  0
 13  9  1  0  0  0
 16 17  1  0  0  0
M  END
> <minimizedAffinity>
-0.95473

> <CNNscore>
0.2104381621

> <CNNaffinity>
7.0487809181

> <CNN_VS>
1.4833325148

> <CNNaffinity_variance>
0.2236390114

$$$$
[H]OC(=O)C1(C([H])([H])c2c([H])nc(OC([H])([H])C([H])([H])c3nc(-c4c([H])c([H])c([H])c(Cl)c4[H])oc3C([H])([H])[H])c([H])c2[H])OC([H])([H])C([H])([H])C1([H])[H]


 32 35  0  0  0  0  0  0  0  0999 V2000
    9.8596   49.6426  131.7285 O   0  0  0  0  0  0  0  0  0  0  0  0
    9.7845   48.4444  132.4172 C   0  0  0  0  0  0  0  0  0  0  0  0
    9.8839   47.2386  131.7036 C   0  0  0  0  0  0  0  0  0  0  0  0
    9.8124   46.0276  132.3651 C   0  0  0  0  0  0  0  0  0  0  0  0
    9.6430   45.9562  133.7327 C   0  0  0  0  0  0  0  0  0  0  0  0
    9.5510   47.1580  134.3810 C   0  0  0  0  0  0  0  0  0  0  0  0
    9.6214   48.3284  133.7324 N   0  0  0  0  0  0  0  0  0  0  0  0
    9.5711   44.6726  134.4302 C   0  0  0  0  0  0  0  0  0  0  0  0
   10.3874   43.5540  133.8946 C   0  0  0  0  0  0  0  0  0  0  0  0
   11.5864   44.0858  133.1237 C   0  0  0  0  0  0  0  0  0  0  0  0
   12.4748   44.5173  134.2739 C   0  0  0  0  0  0  0  0  0  0  0  0
   12.0807   43.5667  135.3508 C   0  0  0  0  0  0  0  0  0  0  0  0
   10.9534   42.8738  134.9879 O   0  0  0  0  0  0  0  0  0  0  0  0
    9.6541   42.5444  133.1034 C   0  0  0  0  0  0  0  0  0  0  0  0
   10.1308   42.0855  132.0068 O   0  0  0  0  0  0  0  0  0  0  0  0
    8.4231   42.0142  133.4529 O   0  0  0  0  0  0  0  0  0  0  0  0
    8.3019   41.0161  133.3531 H   0  0  0  0  0  0  0  0  0  0  0  0
   10.8960   50.0692  130.8986 C   0  0  0  0  0  0  0  0  0  0  0  0
   11.0583   49.0792  129.7543 C   0  0  0  0  0  0  0  0  0  0  0  0
   10.5091   46.0908  128.8993 C   0  0  0  0  0  0  0  0  0  0  0  0
    9.4926   47.1407  129.1712 C   0  0  0  0  0  0  0  0  0  0  0  0
    8.1992   47.0058  129.0997 O   0  0  0  0  0  0  0  0  0  0  0  0
    7.5866   48.1163  129.3993 C   0  0  0  0  0  0  0  0  0  0  0  0
    8.5376   49.0209  129.6809 N   0  0  0  0  0  0  0  0  0  0  0  0
    9.7486   48.4529  129.5506 C   0  0  0  0  0  0  0  0  0  0  0  0
    6.1502   48.3479  129.4277 C   0  0  0  0  0  0  0  0  0  0  0  0
    5.5722   49.5923  129.3036 C   0  0  0  0  0  0  0  0  0  0  0  0
    4.2051   49.7780  129.3323 C   0  0  0  0  0  0  0  0  0  0  0  0
    3.3499   48.7076  129.4891 C   0  0  0  0  0  0  0  0  0  0  0  0
    3.8961   47.4402  129.6170 C   0  0  0  0  0  0  0  0  0  0  0  0
    2.8470   46.0392  129.8194 Cl  0  0  0  0  0  0  0  0  0  0  0  0
    5.2634   47.2778  129.5856 C   0  0  0  0  0  0  0  0  0  0  0  0
 20 21  1  0  0  0
 21 22  1  0  0  0
 22 23  1  0  0  0
 23 26  1  0  0  0
 26 27  2  0  0  0
 27 28  1  0  0  0
 28 29  2  0  0  0
 29 30  1  0  0  0
 30 31  1  0  0  0
 30 32  2  0  0  0
 23 24  2  0  0  0
 24 25  1  0  0  0
 25 19  1  0  0  0
 19 18  1  0  0  0
 18  1  1  0  0  0
  1  2  1  0  0  0
  2  3  2  0  0  0
  3  4  1  0  0  0
  4  5  2  0  0  0
  5  8  1  0  0  0
  8  9  1  0  0  0
  9 14  1  0  0  0
 14 15  2  0  0  0
 14 16  1  0  0  0
  9 10  1  0  0  0
 10 11  1  0  0  0
 11 12  1  0  0  0
 12 13  1  0  0  0
  5  6  1  0  0  0
  6  7  2  0  0  0
 25 21  2  0  0  0
  7  2  1  0  0  0
 32 26  1  0  0  0
 13  9  1  0  0  0
 16 17  1  0  0  0
M  END
> <minimizedAffinity>
7.04356

> <CNNscore>
0.1864506006

> <CNNaffinity>
6.9795961380

> <CNN_VS>
1.3013498783

> <CNNaffinity_variance>
0.2655349672

$$$$
[H]OC(=O)C1(C([H])([H])c2c([H])nc(OC([H])([H])C([H])([H])c3nc(-c4c([H])c([H])c([H])c(Cl)c4[H])oc3C([H])([H])[H])c([H])c2[H])OC([H])([H])C([H])([H])C1([H])[H]


 32 35  0  0  0  0  0  0  0  0999 V2000
   10.5124   46.8925  134.7812 O   0  0  0  0  0  0  0  0  0  0  0  0
   10.1644   47.4789  133.5767 C   0  0  0  0  0  0  0  0  0  0  0  0
    9.1087   48.4050  133.5473 C   0  0  0  0  0  0  0  0  0  0  0  0
    8.7397   49.0059  132.3590 C   0  0  0  0  0  0  0  0  0  0  0  0
    9.3844   48.7239  131.1720 C   0  0  0  0  0  0  0  0  0  0  0  0
   10.4046   47.8153  131.2541 C   0  0  0  0  0  0  0  0  0  0  0  0
   10.7566   47.2369  132.4103 N   0  0  0  0  0  0  0  0  0  0  0  0
    8.9934   49.3644  129.9164 C   0  0  0  0  0  0  0  0  0  0  0  0
    7.5681   49.2681  129.5118 C   0  0  0  0  0  0  0  0  0  0  0  0
    7.4415   48.6112  128.1453 C   0  0  0  0  0  0  0  0  0  0  0  0
    7.6953   47.1640  128.5189 C   0  0  0  0  0  0  0  0  0  0  0  0
    7.1864   47.1053  129.9175 C   0  0  0  0  0  0  0  0  0  0  0  0
    6.9331   48.3692  130.3875 O   0  0  0  0  0  0  0  0  0  0  0  0
    6.7974   50.5274  129.5678 C   0  0  0  0  0  0  0  0  0  0  0  0
    5.8983   50.7167  130.4601 O   0  0  0  0  0  0  0  0  0  0  0  0
    6.9612   51.5889  128.6932 O   0  0  0  0  0  0  0  0  0  0  0  0
    6.9831   52.5181  129.0893 H   0  0  0  0  0  0  0  0  0  0  0  0
    9.7249   46.0442  135.5591 C   0  0  0  0  0  0  0  0  0  0  0  0
   10.3890   44.6770  135.6345 C   0  0  0  0  0  0  0  0  0  0  0  0
   13.3532   44.0777  134.7303 C   0  0  0  0  0  0  0  0  0  0  0  0
   12.1438   44.0917  133.8662 C   0  0  0  0  0  0  0  0  0  0  0  0
   12.1025   43.8612  132.5850 O   0  0  0  0  0  0  0  0  0  0  0  0
   10.8872   43.9501  132.1233 C   0  0  0  0  0  0  0  0  0  0  0  0
   10.0972   44.2552  133.1648 N   0  0  0  0  0  0  0  0  0  0  0  0
   10.8429   44.3540  134.2786 C   0  0  0  0  0  0  0  0  0  0  0  0
   10.4532   43.7588  130.7474 C   0  0  0  0  0  0  0  0  0  0  0  0
    9.7125   42.6783  130.3210 C   0  0  0  0  0  0  0  0  0  0  0  0
    9.3144   42.5275  129.0083 C   0  0  0  0  0  0  0  0  0  0  0  0
    9.6481   43.4677  128.0564 C   0  0  0  0  0  0  0  0  0  0  0  0
   10.3930   44.5686  128.4493 C   0  0  0  0  0  0  0  0  0  0  0  0
   10.8454   45.7988  127.2719 Cl  0  0  0  0  0  0  0  0  0  0  0  0
   10.7798   44.6990  129.7648 C   0  0  0  0  0  0  0  0  0  0  0  0
 20 21  1  0  0  0
 21 22  1  0  0  0
 22 23  1  0  0  0
 23 26  1  0  0  0
 26 27  2  0  0  0
 27 28  1  0  0  0
 28 29  2  0  0  0
 29 30  1  0  0  0
 30 31  1  0  0  0
 30 32  2  0  0  0
 23 24  2  0  0  0
 24 25  1  0  0  0
 25 19  1  0  0  0
 19 18  1  0  0  0
 18  1  1  0  0  0
  1  2  1  0  0  0
  2  3  2  0  0  0
  3  4  1  0  0  0
  4  5  2  0  0  0
  5  8  1  0  0  0
  8  9  1  0  0  0
  9 14  1  0  0  0
 14 15  2  0  0  0
 14 16  1  0  0  0
  9 10  1  0  0  0
 10 11  1  0  0  0
 11 12  1  0  0  0
 12 13  1  0  0  0
  5  6  1  0  0  0
  6  7  2  0  0  0
 25 21  2  0  0  0
  7  2  1  0  0  0
 32 26  1  0  0  0
 13  9  1  0  0  0
 16 17  1  0  0  0
M  END
> <minimizedAffinity>
-4.80087

> <CNNscore>
0.1806782782

> <CNNaffinity>
7.3362326622

> <CNN_VS>
1.3254978657

> <CNNaffinity_variance>
0.1022128314

$$$$
[H]OC(=O)C([H])([H])c1c([H])c([H])c(Oc2c([H])c([H])c(C(=O)N([H])C([H])(C([H])([H])[H])C([H])([H])[H])c([H])c2N([H])S(=O)(=O)c2c([H])c([H])c(Cl)c([H])c2Cl)c(OC([H])([H])[H])c1[H]


 40 42  0  0  0  0  0  0  0  0999 V2000
   10.6723   45.1094  129.2274 C   0  0  0  0  0  0  0  0  0  0  0  0
   10.0636   44.9648  128.0105 C   0  0  0  0  0  0  0  0  0  0  0  0
   10.4211   43.9579  127.1351 C   0  0  0  0  0  0  0  0  0  0  0  0
   11.4106   43.0745  127.4837 C   0  0  0  0  0  0  0  0  0  0  0  0
   12.0174   43.2302  128.7123 C   0  0  0  0  0  0  0  0  0  0  0  0
   11.6921   44.2152  129.6090 C   0  0  0  0  0  0  0  0  0  0  0  0
   11.8169   41.9875  126.5841 C   0  0  0  0  0  0  0  0  0  0  0  0
   12.8009   42.2148  125.8143 O   0  0  0  0  0  0  0  0  0  0  0  0
   11.1518   40.7561  126.5740 N   0  0  0  0  0  0  0  0  0  0  0  0
   10.3571   40.5492  127.1884 H   0  0  0  0  0  0  0  0  0  0  0  0
   11.5974   39.7150  125.6607 C   0  0  0  0  0  0  0  0  0  0  0  0
   12.4520   38.7652  126.4821 C   0  0  0  0  0  0  0  0  0  0  0  0
   10.4206   39.0218  125.0442 C   0  0  0  0  0  0  0  0  0  0  0  0
   12.3149   44.3995  130.8733 N   0  0  0  0  0  0  0  0  0  0  0  0
   13.1952   44.9830  130.9277 H   0  0  0  0  0  0  0  0  0  0  0  0
   11.6314   43.6771  132.2682 S   0  0  0  0  0  0  0  0  0  0  0  0
   10.8392   42.4195  131.9286 O   0  0  0  0  0  0  0  0  0  0  0  0
   12.7846   43.2702  133.1941 O   0  0  0  0  0  0  0  0  0  0  0  0
   10.6293   44.8295  133.1146 C   0  0  0  0  0  0  0  0  0  0  0  0
   11.1888   45.7363  133.9682 C   0  0  0  0  0  0  0  0  0  0  0  0
   10.3161   46.6122  134.6286 C   0  0  0  0  0  0  0  0  0  0  0  0
    8.9592   46.5801  134.4437 C   0  0  0  0  0  0  0  0  0  0  0  0
    7.8942   47.6804  135.2763 Cl  0  0  0  0  0  0  0  0  0  0  0  0
    8.4512   45.6473  133.5743 C   0  0  0  0  0  0  0  0  0  0  0  0
    9.2501   44.7688  132.9028 C   0  0  0  0  0  0  0  0  0  0  0  0
    8.5990   43.5656  131.7818 Cl  0  0  0  0  0  0  0  0  0  0  0  0
   10.3140   46.1140  130.1043 O   0  0  0  0  0  0  0  0  0  0  0  0
    9.0902   48.1209  130.6983 C   0  0  0  0  0  0  0  0  0  0  0  0
    7.9367   48.8751  130.5513 C   0  0  0  0  0  0  0  0  0  0  0  0
    6.8777   48.4888  129.7459 C   0  0  0  0  0  0  0  0  0  0  0  0
    6.9991   47.2933  129.0680 C   0  0  0  0  0  0  0  0  0  0  0  0
    8.1371   46.5272  129.2001 C   0  0  0  0  0  0  0  0  0  0  0  0
    9.2064   46.9250  130.0186 C   0  0  0  0  0  0  0  0  0  0  0  0
    9.8538   49.5509  132.5058 C   0  0  0  0  0  0  0  0  0  0  0  0
   10.1279   48.5630  131.5227 O   0  0  0  0  0  0  0  0  0  0  0  0
    5.6445   49.3091  129.5972 C   0  0  0  0  0  0  0  0  0  0  0  0
    5.9348   50.7234  129.9418 C   0  0  0  0  0  0  0  0  0  0  0  0
    6.7457   51.4490  129.3331 O   0  0  0  0  0  0  0  0  0  0  0  0
    5.2353   51.2597  131.0336 O   0  0  0  0  0  0  0  0  0  0  0  0
    4.2275   51.2643  131.0070 H   0  0  0  0  0  0  0  0  0  0  0  0
 34 35  1  0  0  0
 35 28  1  0  0  0
 28 29  2  0  0  0
 29 30  1  0  0  0
 30 36  1  0  0  0
 36 37  1  0  0  0
 37 38  2  0  0  0
 37 39  1  0  0  0
 30 31  2  0  0  0
 31 32  1  0  0  0
 32 33  2  0  0  0
 33 27  1  0  0  0
 27  1  1  0  0  0
  1  2  2  0  0  0
  2  3  1  0  0  0
  3  4  2  0  0  0
  4  7  1  0  0  0
  7  8  2  0  0  0
  7  9  1  0  0  0
  9 11  1  0  0  0
 11 12  1  0  0  0
 11 13  1  0  0  0
  4  5  1  0  0  0
  5  6  2  0  0  0
  6 14  1  0  0  0
 14 16  1  0  0  0
 16 17  2  0  0  0
 16 18  2  0  0  0
 16 19  1  0  0  0
 19 20  2  0  0  0
 20 21  1  0  0  0
 21 22  2  0  0  0
 22 23  1  0  0  0
 22 24  1  0  0  0
 24 25  2  0  0  0
 25 26  1  0  0  0
 33 28  1  0  0  0
  6  1  1  0  0  0
 25 19  1  0  0  0
 39 40  1  0  0  0
  9 10  1  0  0  0
 14 15  1  0  0  0
M  END
> <minimizedAffinity>
12.07556

> <CNNscore>
0.5049325824

> <CNNaffinity>
8.1863050461

> <CNN_VS>
4.1335320473

> <CNNaffinity_variance>
0.3492576480

$$$$
[H]OC(=O)C([H])([H])c1c([H])c([H])c(Oc2c([H])c([H])c(C(=O)N([H])C([H])(C([H])([H])[H])C([H])([H])[H])c([H])c2N([H])S(=O)(=O)c2c([H])c([H])c(Cl)c([H])c2Cl)c(OC([H])([H])[H])c1[H]


 40 42  0  0  0  0  0  0  0  0999 V2000
    8.8157   45.6069  129.7488 C   0  0  0  0  0  0  0  0  0  0  0  0
    8.3301   44.3773  129.3956 C   0  0  0  0  0  0  0  0  0  0  0  0
    8.3318   43.3153  130.2787 C   0  0  0  0  0  0  0  0  0  0  0  0
    8.8307   43.4857  131.5450 C   0  0  0  0  0  0  0  0  0  0  0  0
    9.3177   44.7290  131.8895 C   0  0  0  0  0  0  0  0  0  0  0  0
    9.3341   45.8078  131.0433 C   0  0  0  0  0  0  0  0  0  0  0  0
    8.8461   42.3838  132.5153 C   0  0  0  0  0  0  0  0  0  0  0  0
    9.9566   41.7968  132.7020 O   0  0  0  0  0  0  0  0  0  0  0  0
    7.6912   41.9967  133.2045 N   0  0  0  0  0  0  0  0  0  0  0  0
    6.7848   42.4580  133.0721 H   0  0  0  0  0  0  0  0  0  0  0  0
    7.7652   40.8972  134.1543 C   0  0  0  0  0  0  0  0  0  0  0  0
    8.8174   41.2885  135.1775 C   0  0  0  0  0  0  0  0  0  0  0  0
    6.4270   40.6616  134.7862 C   0  0  0  0  0  0  0  0  0  0  0  0
    9.8437   47.0923  131.3759 N   0  0  0  0  0  0  0  0  0  0  0  0
   10.2033   47.7146  130.6002 H   0  0  0  0  0  0  0  0  0  0  0  0
    9.8646   47.5981  133.0126 S   0  0  0  0  0  0  0  0  0  0  0  0
   10.7694   48.8069  133.2239 O   0  0  0  0  0  0  0  0  0  0  0  0
    8.4360   48.0088  133.3910 O   0  0  0  0  0  0  0  0  0  0  0  0
   10.3471   46.2763  134.0462 C   0  0  0  0  0  0  0  0  0  0  0  0
    9.6286   45.9784  135.1682 C   0  0  0  0  0  0  0  0  0  0  0  0
   10.0933   44.9187  135.9595 C   0  0  0  0  0  0  0  0  0  0  0  0
   11.2152   44.1990  135.6437 C   0  0  0  0  0  0  0  0  0  0  0  0
   11.7730   42.8849  136.6436 Cl  0  0  0  0  0  0  0  0  0  0  0  0
   11.8991   44.5425  134.5043 C   0  0  0  0  0  0  0  0  0  0  0  0
   11.4957   45.5636  133.6946 C   0  0  0  0  0  0  0  0  0  0  0  0
   12.3745   46.0089  132.2257 Cl  0  0  0  0  0  0  0  0  0  0  0  0
    8.8121   46.6700  128.8675 O   0  0  0  0  0  0  0  0  0  0  0  0
    6.8630   48.0331  129.3376 C   0  0  0  0  0  0  0  0  0  0  0  0
    6.3374   49.3039  129.5104 C   0  0  0  0  0  0  0  0  0  0  0  0
    7.0986   50.4573  129.4126 C   0  0  0  0  0  0  0  0  0  0  0  0
    8.4408   50.3097  129.1290 C   0  0  0  0  0  0  0  0  0  0  0  0
    8.9842   49.0554  128.9528 C   0  0  0  0  0  0  0  0  0  0  0  0
    8.2063   47.8909  129.0531 C   0  0  0  0  0  0  0  0  0  0  0  0
    4.6776   47.0055  129.0865 C   0  0  0  0  0  0  0  0  0  0  0  0
    6.0466   46.9051  129.4514 O   0  0  0  0  0  0  0  0  0  0  0  0
    6.5208   51.8161  129.6008 C   0  0  0  0  0  0  0  0  0  0  0  0
    6.8920   52.6850  128.4561 C   0  0  0  0  0  0  0  0  0  0  0  0
    6.8490   53.9310  128.4692 O   0  0  0  0  0  0  0  0  0  0  0  0
    7.3184   52.0358  127.2876 O   0  0  0  0  0  0  0  0  0  0  0  0
    8.1170   51.4226  127.3390 H   0  0  0  0  0  0  0  0  0  0  0  0
 34 35  1  0  0  0
 35 28  1  0  0  0
 28 29  2  0  0  0
 29 30  1  0  0  0
 30 36  1  0  0  0
 36 37  1  0  0  0
 37 38  2  0  0  0
 37 39  1  0  0  0
 30 31  2  0  0  0
 31 32  1  0  0  0
 32 33  2  0  0  0
 33 27  1  0  0  0
 27  1  1  0  0  0
  1  2  2  0  0  0
  2  3  1  0  0  0
  3  4  2  0  0  0
  4  7  1  0  0  0
  7  8  2  0  0  0
  7  9  1  0  0  0
  9 11  1  0  0  0
 11 12  1  0  0  0
 11 13  1  0  0  0
  4  5  1  0  0  0
  5  6  2  0  0  0
  6 14  1  0  0  0
 14 16  1  0  0  0
 16 17  2  0  0  0
 16 18  2  0  0  0
 16 19  1  0  0  0
 19 20  2  0  0  0
 20 21  1  0  0  0
 21 22  2  0  0  0
 22 23  1  0  0  0
 22 24  1  0  0  0
 24 25  2  0  0  0
 25 26  1  0  0  0
 33 28  1  0  0  0
  6  1  1  0  0  0
 25 19  1  0  0  0
 39 40  1  0  0  0
  9 10  1  0  0  0
 14 15  1  0  0  0
M  END
> <minimizedAffinity>
9.27988

> <CNNscore>
0.5027575493

> <CNNaffinity>
7.8318963051

> <CNN_VS>
3.9375450611

> <CNNaffinity_variance>
0.5235563517

$$$$
[H]OC(=O)C([H])([H])c1c([H])c([H])c(Oc2c([H])c([H])c(C(=O)N([H])C([H])(C([H])([H])[H])C([H])([H])[H])c([H])c2N([H])S(=O)(=O)c2c([H])c([H])c(Cl)c([H])c2Cl)c(OC([H])([H])[H])c1[H]


 40 42  0  0  0  0  0  0  0  0999 V2000
    9.4828   44.8383  129.9348 C   0  0  0  0  0  0  0  0  0  0  0  0
   10.2134   45.2688  128.8609 C   0  0  0  0  0  0  0  0  0  0  0  0
   10.6811   44.3910  127.9025 C   0  0  0  0  0  0  0  0  0  0  0  0
   10.4126   43.0511  128.0198 C   0  0  0  0  0  0  0  0  0  0  0  0
    9.6758   42.6288  129.1064 C   0  0  0  0  0  0  0  0  0  0  0  0
    9.1937   43.4669  130.0786 C   0  0  0  0  0  0  0  0  0  0  0  0
   10.8872   42.0858  127.0203 C   0  0  0  0  0  0  0  0  0  0  0  0
   11.8219   42.4674  126.2500 O   0  0  0  0  0  0  0  0  0  0  0  0
   10.3364   40.8031  126.9196 N   0  0  0  0  0  0  0  0  0  0  0  0
    9.5835   40.4725  127.5325 H   0  0  0  0  0  0  0  0  0  0  0  0
   10.8456   39.8883  125.9095 C   0  0  0  0  0  0  0  0  0  0  0  0
   11.8601   39.0016  126.6107 C   0  0  0  0  0  0  0  0  0  0  0  0
    9.7245   39.0947  125.3105 C   0  0  0  0  0  0  0  0  0  0  0  0
    8.4445   43.0489  131.2118 N   0  0  0  0  0  0  0  0  0  0  0  0
    7.4114   42.8548  131.0966 H   0  0  0  0  0  0  0  0  0  0  0  0
    9.2258   42.8715  132.7261 S   0  0  0  0  0  0  0  0  0  0  0  0
    8.3406   42.1614  133.7443 O   0  0  0  0  0  0  0  0  0  0  0  0
   10.4750   42.0088  132.5071 O   0  0  0  0  0  0  0  0  0  0  0  0
    9.7340   44.4295  133.3286 C   0  0  0  0  0  0  0  0  0  0  0  0
    8.8596   45.2255  134.0109 C   0  0  0  0  0  0  0  0  0  0  0  0
    9.3354   46.4718  134.4413 C   0  0  0  0  0  0  0  0  0  0  0  0
   10.6155   46.8959  134.2006 C   0  0  0  0  0  0  0  0  0  0  0  0
   11.1842   48.4504  134.7466 Cl  0  0  0  0  0  0  0  0  0  0  0  0
   11.4515   46.0549  133.5094 C   0  0  0  0  0  0  0  0  0  0  0  0
   11.0458   44.8304  133.0654 C   0  0  0  0  0  0  0  0  0  0  0  0
   12.1204   43.7442  132.1745 Cl  0  0  0  0  0  0  0  0  0  0  0  0
    9.0125   45.7153  130.8922 O   0  0  0  0  0  0  0  0  0  0  0  0
    7.4758   47.4386  130.1527 C   0  0  0  0  0  0  0  0  0  0  0  0
    7.2198   48.7924  130.0020 C   0  0  0  0  0  0  0  0  0  0  0  0
    8.1156   49.7787  130.3815 C   0  0  0  0  0  0  0  0  0  0  0  0
    9.3126   49.3706  130.9331 C   0  0  0  0  0  0  0  0  0  0  0  0
    9.5881   48.0296  131.0917 C   0  0  0  0  0  0  0  0  0  0  0  0
    8.6753   47.0355  130.7044 C   0  0  0  0  0  0  0  0  0  0  0  0
    5.2517   46.9272  129.3239 C   0  0  0  0  0  0  0  0  0  0  0  0
    6.5322   46.4884  129.7543 O   0  0  0  0  0  0  0  0  0  0  0  0
    7.8273   51.2294  130.2139 C   0  0  0  0  0  0  0  0  0  0  0  0
    6.7955   51.4206  129.1642 C   0  0  0  0  0  0  0  0  0  0  0  0
    6.8179   52.3235  128.3047 O   0  0  0  0  0  0  0  0  0  0  0  0
    5.7291   50.5086  129.1587 O   0  0  0  0  0  0  0  0  0  0  0  0
    5.9334   49.5263  129.0601 H   0  0  0  0  0  0  0  0  0  0  0  0
 34 35  1  0  0  0
 35 28  1  0  0  0
 28 29  2  0  0  0
 29 30  1  0  0  0
 30 36  1  0  0  0
 36 37  1  0  0  0
 37 38  2  0  0  0
 37 39  1  0  0  0
 30 31  2  0  0  0
 31 32  1  0  0  0
 32 33  2  0  0  0
 33 27  1  0  0  0
 27  1  1  0  0  0
  1  2  2  0  0  0
  2  3  1  0  0  0
  3  4  2  0  0  0
  4  7  1  0  0  0
  7  8  2  0  0  0
  7  9  1  0  0  0
  9 11  1  0  0  0
 11 12  1  0  0  0
 11 13  1  0  0  0
  4  5  1  0  0  0
  5  6  2  0  0  0
  6 14  1  0  0  0
 14 16  1  0  0  0
 16 17  2  0  0  0
 16 18  2  0  0  0
 16 19  1  0  0  0
 19 20  2  0  0  0
 20 21  1  0  0  0
 21 22  2  0  0  0
 22 23  1  0  0  0
 22 24  1  0  0  0
 24 25  2  0  0  0
 25 26  1  0  0  0
 33 28  1  0  0  0
  6  1  1  0  0  0
 25 19  1  0  0  0
 39 40  1  0  0  0
  9 10  1  0  0  0
 14 15  1  0  0  0
M  END
> <minimizedAffinity>
8.23665

> <CNNscore>
0.4735398591

> <CNNaffinity>
8.1489782333

> <CNN_VS>
3.8588659763

> <CNNaffinity_variance>
0.4917178154

$$$$
[H]OC(=O)C([H])([H])c1c([H])c([H])c(Oc2c([H])c([H])c(C(=O)N([H])C([H])(C([H])([H])[H])C([H])([H])[H])c([H])c2N([H])S(=O)(=O)c2c([H])c([H])c(Cl)c([H])c2Cl)c(OC([H])([H])[H])c1[H]


 40 42  0  0  0  0  0  0  0  0999 V2000
    9.0988   47.4182  132.4391 C   0  0  0  0  0  0  0  0  0  0  0  0
    8.4969   47.0634  133.6156 C   0  0  0  0  0  0  0  0  0  0  0  0
    8.3598   45.7412  133.9908 C   0  0  0  0  0  0  0  0  0  0  0  0
    8.8351   44.7497  133.1710 C   0  0  0  0  0  0  0  0  0  0  0  0
    9.4394   45.1192  131.9876 C   0  0  0  0  0  0  0  0  0  0  0  0
    9.5951   46.4187  131.5791 C   0  0  0  0  0  0  0  0  0  0  0  0
    8.7137   43.3325  133.5353 C   0  0  0  0  0  0  0  0  0  0  0  0
    9.7578   42.7601  133.9765 O   0  0  0  0  0  0  0  0  0  0  0  0
    7.5033   42.6422  133.4037 N   0  0  0  0  0  0  0  0  0  0  0  0
    6.6472   43.0845  133.0527 H   0  0  0  0  0  0  0  0  0  0  0  0
    7.4414   41.2381  133.7796 C   0  0  0  0  0  0  0  0  0  0  0  0
    8.6484   40.9808  134.6651 C   0  0  0  0  0  0  0  0  0  0  0  0
    6.1532   40.9425  134.4855 C   0  0  0  0  0  0  0  0  0  0  0  0
   10.2027   46.8180  130.3578 N   0  0  0  0  0  0  0  0  0  0  0  0
   10.3427   47.8495  130.1714 H   0  0  0  0  0  0  0  0  0  0  0  0
   10.6894   45.6289  129.2247 S   0  0  0  0  0  0  0  0  0  0  0  0
    9.7510   45.5673  128.0247 O   0  0  0  0  0  0  0  0  0  0  0  0
   12.0823   46.0166  128.7124 O   0  0  0  0  0  0  0  0  0  0  0  0
   10.8050   44.0687  130.0000 C   0  0  0  0  0  0  0  0  0  0  0  0
    9.9078   43.0826  129.7059 C   0  0  0  0  0  0  0  0  0  0  0  0
   10.0520   41.8662  130.3875 C   0  0  0  0  0  0  0  0  0  0  0  0
   11.0397   41.6512  131.3120 C   0  0  0  0  0  0  0  0  0  0  0  0
   11.1988   40.1293  132.1464 Cl  0  0  0  0  0  0  0  0  0  0  0  0
   11.9137   42.6780  131.5688 C   0  0  0  0  0  0  0  0  0  0  0  0
   11.8239   43.8839  130.9372 C   0  0  0  0  0  0  0  0  0  0  0  0
   12.9484   45.2090  131.2656 Cl  0  0  0  0  0  0  0  0  0  0  0  0
    9.2387   48.7399  132.0642 O   0  0  0  0  0  0  0  0  0  0  0  0
    7.5350   48.8019  130.3404 C   0  0  0  0  0  0  0  0  0  0  0  0
    6.8240   49.5608  129.4241 C   0  0  0  0  0  0  0  0  0  0  0  0
    7.0201   50.9218  129.2546 C   0  0  0  0  0  0  0  0  0  0  0  0
    7.9733   51.5290  130.0461 C   0  0  0  0  0  0  0  0  0  0  0  0
    8.6922   50.7933  130.9634 C   0  0  0  0  0  0  0  0  0  0  0  0
    8.4881   49.4141  131.1293 C   0  0  0  0  0  0  0  0  0  0  0  0
    6.6754   46.7375  129.3948 C   0  0  0  0  0  0  0  0  0  0  0  0
    7.2915   47.4323  130.4696 O   0  0  0  0  0  0  0  0  0  0  0  0
    6.2491   51.7247  128.2665 C   0  0  0  0  0  0  0  0  0  0  0  0
    7.0823   52.8479  127.7691 C   0  0  0  0  0  0  0  0  0  0  0  0
    7.7364   52.8291  126.7078 O   0  0  0  0  0  0  0  0  0  0  0  0
    7.1212   54.0017  128.5666 O   0  0  0  0  0  0  0  0  0  0  0  0
    6.2555   54.4739  128.7764 H   0  0  0  0  0  0  0  0  0  0  0  0
 34 35  1  0  0  0
 35 28  1  0  0  0
 28 29  2  0  0  0
 29 30  1  0  0  0
 30 36  1  0  0  0
 36 37  1  0  0  0
 37 38  2  0  0  0
 37 39  1  0  0  0
 30 31  2  0  0  0
 31 32  1  0  0  0
 32 33  2  0  0  0
 33 27  1  0  0  0
 27  1  1  0  0  0
  1  2  2  0  0  0
  2  3  1  0  0  0
  3  4  2  0  0  0
  4  7  1  0  0  0
  7  8  2  0  0  0
  7  9  1  0  0  0
  9 11  1  0  0  0
 11 12  1  0  0  0
 11 13  1  0  0  0
  4  5  1  0  0  0
  5  6  2  0  0  0
  6 14  1  0  0  0
 14 16  1  0  0  0
 16 17  2  0  0  0
 16 18  2  0  0  0
 16 19  1  0  0  0
 19 20  2  0  0  0
 20 21  1  0  0  0
 21 22  2  0  0  0
 22 23  1  0  0  0
 22 24  1  0  0  0
 24 25  2  0  0  0
 25 26  1  0  0  0
 33 28  1  0  0  0
  6  1  1  0  0  0
 25 19  1  0  0  0
 39 40  1  0  0  0
  9 10  1  0  0  0
 14 15  1  0  0  0
M  END
> <minimizedAffinity>
8.67237

> <CNNscore>
0.4068615735

> <CNNaffinity>
7.5753831863

> <CNN_VS>
3.0821323395

> <CNNaffinity_variance>
0.3491072059

$$$$
[H]OC(=O)C([H])([H])c1c([H])c([H])c(Oc2c([H])c([H])c(C(=O)N([H])C([H])(C([H])([H])[H])C([H])([H])[H])c([H])c2N([H])S(=O)(=O)c2c([H])c([H])c(Cl)c([H])c2Cl)c(OC([H])([H])[H])c1[H]


 40 42  0  0  0  0  0  0  0  0999 V2000
    9.7771   44.2064  129.5715 C   0  0  0  0  0  0  0  0  0  0  0  0
   10.4020   44.1131  128.3578 C   0  0  0  0  0  0  0  0  0  0  0  0
   10.5367   42.9051  127.7018 C   0  0  0  0  0  0  0  0  0  0  0  0
   10.0355   41.7628  128.2721 C   0  0  0  0  0  0  0  0  0  0  0  0
    9.4082   41.8689  129.4957 C   0  0  0  0  0  0  0  0  0  0  0  0
    9.2540   43.0477  130.1788 C   0  0  0  0  0  0  0  0  0  0  0  0
   10.1536   40.4600  127.6054 C   0  0  0  0  0  0  0  0  0  0  0  0
    9.6847   39.4535  128.2215 O   0  0  0  0  0  0  0  0  0  0  0  0
   10.7547   40.3309  126.3481 N   0  0  0  0  0  0  0  0  0  0  0  0
   11.1374   41.1296  125.8310 H   0  0  0  0  0  0  0  0  0  0  0  0
   10.8448   39.0146  125.7352 C   0  0  0  0  0  0  0  0  0  0  0  0
   10.0331   39.0853  124.4533 C   0  0  0  0  0  0  0  0  0  0  0  0
   12.2764   38.6563  125.4748 C   0  0  0  0  0  0  0  0  0  0  0  0
    8.6227   43.1745  131.4460 N   0  0  0  0  0  0  0  0  0  0  0  0
    7.5772   43.3300  131.4814 H   0  0  0  0  0  0  0  0  0  0  0  0
    9.5623   43.0744  132.8749 S   0  0  0  0  0  0  0  0  0  0  0  0
    8.7937   42.4204  134.0177 O   0  0  0  0  0  0  0  0  0  0  0  0
   10.7837   42.1986  132.5684 O   0  0  0  0  0  0  0  0  0  0  0  0
   10.1272   44.6605  133.3375 C   0  0  0  0  0  0  0  0  0  0  0  0
   11.4635   44.9072  133.4687 C   0  0  0  0  0  0  0  0  0  0  0  0
   11.8368   46.1983  133.8668 C   0  0  0  0  0  0  0  0  0  0  0  0
   10.9218   47.1859  134.1195 C   0  0  0  0  0  0  0  0  0  0  0  0
   11.4109   48.7844  134.6130 Cl  0  0  0  0  0  0  0  0  0  0  0  0
    9.5915   46.8818  133.9722 C   0  0  0  0  0  0  0  0  0  0  0  0
    9.1672   45.6437  133.5874 C   0  0  0  0  0  0  0  0  0  0  0  0
    7.4538   45.2485  133.3966 Cl  0  0  0  0  0  0  0  0  0  0  0  0
    9.6395   45.4139  130.2271 O   0  0  0  0  0  0  0  0  0  0  0  0
    8.8973   47.7219  130.2321 C   0  0  0  0  0  0  0  0  0  0  0  0
    7.8849   48.6265  129.9532 C   0  0  0  0  0  0  0  0  0  0  0  0
    6.6588   48.2517  129.4283 C   0  0  0  0  0  0  0  0  0  0  0  0
    6.4585   46.9095  129.1796 C   0  0  0  0  0  0  0  0  0  0  0  0
    7.4514   45.9926  129.4500 C   0  0  0  0  0  0  0  0  0  0  0  0
    8.6915   46.3800  129.9823 C   0  0  0  0  0  0  0  0  0  0  0  0
   10.1985   49.4646  131.3114 C   0  0  0  0  0  0  0  0  0  0  0  0
   10.1155   48.1590  130.7583 O   0  0  0  0  0  0  0  0  0  0  0  0
    5.5802   49.2343  129.1334 C   0  0  0  0  0  0  0  0  0  0  0  0
    5.9427   50.5627  129.6877 C   0  0  0  0  0  0  0  0  0  0  0  0
    6.7004   51.3806  129.1296 O   0  0  0  0  0  0  0  0  0  0  0  0
    5.3808   50.8996  130.9285 O   0  0  0  0  0  0  0  0  0  0  0  0
    4.3766   50.9147  131.0164 H   0  0  0  0  0  0  0  0  0  0  0  0
 34 35  1  0  0  0
 35 28  1  0  0  0
 28 29  2  0  0  0
 29 30  1  0  0  0
 30 36  1  0  0  0
 36 37  1  0  0  0
 37 38  2  0  0  0
 37 39  1  0  0  0
 30 31  2  0  0  0
 31 32  1  0  0  0
 32 33  2  0  0  0
 33 27  1  0  0  0
 27  1  1  0  0  0
  1  2  2  0  0  0
  2  3  1  0  0  0
  3  4  2  0  0  0
  4  7  1  0  0  0
  7  8  2  0  0  0
  7  9  1  0  0  0
  9 11  1  0  0  0
 11 12  1  0  0  0
 11 13  1  0  0  0
  4  5  1  0  0  0
  5  6  2  0  0  0
  6 14  1  0  0  0
 14 16  1  0  0  0
 16 17  2  0  0  0
 16 18  2  0  0  0
 16 19  1  0  0  0
 19 20  2  0  0  0
 20 21  1  0  0  0
 21 22  2  0  0  0
 22 23  1  0  0  0
 22 24  1  0  0  0
 24 25  2  0  0  0
 25 26  1  0  0  0
 33 28  1  0  0  0
  6  1  1  0  0  0
 25 19  1  0  0  0
 39 40  1  0  0  0
  9 10  1  0  0  0
 14 15  1  0  0  0
M  END
> <minimizedAffinity>
8.61134

> <CNNscore>
0.4012142420

> <CNNaffinity>
7.8185033798

> <CNN_VS>
3.1368949413

> <CNNaffinity_variance>
0.3978815079

$$$$
[H]OC(=O)C([H])([H])c1c([H])c([H])c(Oc2c([H])c([H])c(C(=O)N([H])C([H])(C([H])([H])[H])C([H])([H])[H])c([H])c2N([H])S(=O)(=O)c2c([H])c([H])c(Cl)c([H])c2Cl)c(OC([H])([H])[H])c1[H]


 40 42  0  0  0  0  0  0  0  0999 V2000
    9.4105   45.4633  129.5830 C   0  0  0  0  0  0  0  0  0  0  0  0
   10.1994   46.1884  128.7320 C   0  0  0  0  0  0  0  0  0  0  0  0
   11.2741   45.6198  128.0768 C   0  0  0  0  0  0  0  0  0  0  0  0
   11.5680   44.2951  128.2766 C   0  0  0  0  0  0  0  0  0  0  0  0
   10.7664   43.5744  129.1368 C   0  0  0  0  0  0  0  0  0  0  0  0
    9.6915   44.1008  129.8058 C   0  0  0  0  0  0  0  0  0  0  0  0
   12.6985   43.6515  127.5957 C   0  0  0  0  0  0  0  0  0  0  0  0
   13.8498   43.8234  128.1033 O   0  0  0  0  0  0  0  0  0  0  0  0
   12.5180   42.8829  126.4401 N   0  0  0  0  0  0  0  0  0  0  0  0
   11.5978   42.7281  126.0143 H   0  0  0  0  0  0  0  0  0  0  0  0
   13.6749   42.2690  125.8068 C   0  0  0  0  0  0  0  0  0  0  0  0
   13.2333   40.8850  125.3634 C   0  0  0  0  0  0  0  0  0  0  0  0
   14.1452   43.1047  124.6553 C   0  0  0  0  0  0  0  0  0  0  0  0
    8.8625   43.3776  130.7057 N   0  0  0  0  0  0  0  0  0  0  0  0
    7.9350   43.0067  130.3584 H   0  0  0  0  0  0  0  0  0  0  0  0
    9.3800   43.1264  132.3194 S   0  0  0  0  0  0  0  0  0  0  0  0
    8.2613   42.5773  133.1977 O   0  0  0  0  0  0  0  0  0  0  0  0
   10.5074   42.0868  132.2900 O   0  0  0  0  0  0  0  0  0  0  0  0
   10.0183   44.6087  132.9856 C   0  0  0  0  0  0  0  0  0  0  0  0
   11.3668   44.8034  133.0718 C   0  0  0  0  0  0  0  0  0  0  0  0
   11.8014   46.0086  133.6406 C   0  0  0  0  0  0  0  0  0  0  0  0
   10.9327   46.9641  134.0975 C   0  0  0  0  0  0  0  0  0  0  0  0
   11.4974   48.4556  134.8007 Cl  0  0  0  0  0  0  0  0  0  0  0  0
    9.5875   46.7152  133.9863 C   0  0  0  0  0  0  0  0  0  0  0  0
    9.1045   45.5613  133.4418 C   0  0  0  0  0  0  0  0  0  0  0  0
    7.3718   45.2373  133.2970 Cl  0  0  0  0  0  0  0  0  0  0  0  0
    8.3342   46.0300  130.2366 O   0  0  0  0  0  0  0  0  0  0  0  0
    6.7604   47.7710  129.6282 C   0  0  0  0  0  0  0  0  0  0  0  0
    6.4505   49.1219  129.6309 C   0  0  0  0  0  0  0  0  0  0  0  0
    7.2791   50.0871  130.1797 C   0  0  0  0  0  0  0  0  0  0  0  0
    8.4633   49.6603  130.7444 C   0  0  0  0  0  0  0  0  0  0  0  0
    8.7916   48.3217  130.7522 C   0  0  0  0  0  0  0  0  0  0  0  0
    7.9469   47.3492  130.1938 C   0  0  0  0  0  0  0  0  0  0  0  0
    4.5298   46.8218  129.4920 C   0  0  0  0  0  0  0  0  0  0  0  0
    5.8835   46.8420  129.0623 O   0  0  0  0  0  0  0  0  0  0  0  0
    6.9335   51.5349  130.1757 C   0  0  0  0  0  0  0  0  0  0  0  0
    7.0274   52.0722  128.7952 C   0  0  0  0  0  0  0  0  0  0  0  0
    7.2115   51.3783  127.7758 O   0  0  0  0  0  0  0  0  0  0  0  0
    6.8968   53.4619  128.6523 O   0  0  0  0  0  0  0  0  0  0  0  0
    6.0528   53.9046  128.9810 H   0  0  0  0  0  0  0  0  0  0  0  0
 34 35  1  0  0  0
 35 28  1  0  0  0
 28 29  2  0  0  0
 29 30  1  0  0  0
 30 36  1  0  0  0
 36 37  1  0  0  0
 37 38  2  0  0  0
 37 39  1  0  0  0
 30 31  2  0  0  0
 31 32  1  0  0  0
 32 33  2  0  0  0
 33 27  1  0  0  0
 27  1  1  0  0  0
  1  2  2  0  0  0
  2  3  1  0  0  0
  3  4  2  0  0  0
  4  7  1  0  0  0
  7  8  2  0  0  0
  7  9  1  0  0  0
  9 11  1  0  0  0
 11 12  1  0  0  0
 11 13  1  0  0  0
  4  5  1  0  0  0
  5  6  2  0  0  0
  6 14  1  0  0  0
 14 16  1  0  0  0
 16 17  2  0  0  0
 16 18  2  0  0  0
 16 19  1  0  0  0
 19 20  2  0  0  0
 20 21  1  0  0  0
 21 22  2  0  0  0
 22 23  1  0  0  0
 22 24  1  0  0  0
 24 25  2  0  0  0
 25 26  1  0  0  0
 33 28  1  0  0  0
  6  1  1  0  0  0
 25 19  1  0  0  0
 39 40  1  0  0  0
  9 10  1  0  0  0
 14 15  1  0  0  0
M  END
> <minimizedAffinity>
9.85768

> <CNNscore>
0.3954538703

> <CNNaffinity>
7.8096885681

> <CNN_VS>
3.0883715153

> <CNNaffinity_variance>
0.3875497282

$$$$
[H]OC(=O)C([H])([H])c1c([H])c([H])c(Oc2c([H])c([H])c(C(=O)N([H])C([H])(C([H])([H])[H])C([H])([H])[H])c([H])c2N([H])S(=O)(=O)c2c([H])c([H])c(Cl)c([H])c2Cl)c(OC([H])([H])[H])c1[H]


 40 42  0  0  0  0  0  0  0  0999 V2000
    6.8063   47.8449  129.1788 C   0  0  0  0  0  0  0  0  0  0  0  0
    5.6863   48.5202  128.7763 C   0  0  0  0  0  0  0  0  0  0  0  0
    5.6994   49.8847  128.5620 C   0  0  0  0  0  0  0  0  0  0  0  0
    6.8590   50.5914  128.7545 C   0  0  0  0  0  0  0  0  0  0  0  0
    7.9812   49.9003  129.1606 C   0  0  0  0  0  0  0  0  0  0  0  0
    8.0099   48.5478  129.3840 C   0  0  0  0  0  0  0  0  0  0  0  0
    6.9162   52.0417  128.5329 C   0  0  0  0  0  0  0  0  0  0  0  0
    6.6591   52.7867  129.5286 O   0  0  0  0  0  0  0  0  0  0  0  0
    7.2397   52.5808  127.2825 N   0  0  0  0  0  0  0  0  0  0  0  0
    7.4538   51.9989  126.4656 H   0  0  0  0  0  0  0  0  0  0  0  0
    7.2807   54.0260  127.1207 C   0  0  0  0  0  0  0  0  0  0  0  0
    8.4316   54.3158  126.1727 C   0  0  0  0  0  0  0  0  0  0  0  0
    5.9737   54.5295  126.5882 C   0  0  0  0  0  0  0  0  0  0  0  0
    9.1526   47.8207  129.8153 N   0  0  0  0  0  0  0  0  0  0  0  0
    9.3841   46.9054  129.3389 H   0  0  0  0  0  0  0  0  0  0  0  0
   10.1200   48.4384  131.0871 S   0  0  0  0  0  0  0  0  0  0  0  0
   11.1588   49.4331  130.5814 O   0  0  0  0  0  0  0  0  0  0  0  0
    9.1933   49.1800  132.0587 O   0  0  0  0  0  0  0  0  0  0  0  0
   10.8866   47.1295  131.9518 C   0  0  0  0  0  0  0  0  0  0  0  0
   10.9573   47.1496  133.3151 C   0  0  0  0  0  0  0  0  0  0  0  0
   11.6096   46.0747  133.9350 C   0  0  0  0  0  0  0  0  0  0  0  0
   12.1602   45.0389  133.2278 C   0  0  0  0  0  0  0  0  0  0  0  0
   12.9661   43.7129  134.0216 Cl  0  0  0  0  0  0  0  0  0  0  0  0
   12.0603   45.0708  131.8592 C   0  0  0  0  0  0  0  0  0  0  0  0
   11.4374   46.0896  131.1996 C   0  0  0  0  0  0  0  0  0  0  0  0
   11.3067   46.1338  129.4362 Cl  0  0  0  0  0  0  0  0  0  0  0  0
    6.7950   46.4804  129.3908 O   0  0  0  0  0  0  0  0  0  0  0  0
    8.1338   44.6686  130.2870 C   0  0  0  0  0  0  0  0  0  0  0  0
    8.6738   44.0550  131.4063 C   0  0  0  0  0  0  0  0  0  0  0  0
    8.4849   44.5290  132.6943 C   0  0  0  0  0  0  0  0  0  0  0  0
    7.7195   45.6669  132.8458 C   0  0  0  0  0  0  0  0  0  0  0  0
    7.1725   46.2930  131.7465 C   0  0  0  0  0  0  0  0  0  0  0  0
    7.3680   45.8064  130.4441 C   0  0  0  0  0  0  0  0  0  0  0  0
    9.4940   43.3166  128.7981 C   0  0  0  0  0  0  0  0  0  0  0  0
    8.3611   44.1464  129.0113 O   0  0  0  0  0  0  0  0  0  0  0  0
    9.0711   43.8598  133.8876 C   0  0  0  0  0  0  0  0  0  0  0  0
    9.3036   42.4229  133.5967 C   0  0  0  0  0  0  0  0  0  0  0  0
    8.5340   41.4994  133.9275 O   0  0  0  0  0  0  0  0  0  0  0  0
   10.4792   42.1059  132.8992 O   0  0  0  0  0  0  0  0  0  0  0  0
   10.6296   42.5193  131.9922 H   0  0  0  0  0  0  0  0  0  0  0  0
 34 35  1  0  0  0
 35 28  1  0  0  0
 28 29  2  0  0  0
 29 30  1  0  0  0
 30 36  1  0  0  0
 36 37  1  0  0  0
 37 38  2  0  0  0
 37 39  1  0  0  0
 30 31  2  0  0  0
 31 32  1  0  0  0
 32 33  2  0  0  0
 33 27  1  0  0  0
 27  1  1  0  0  0
  1  2  2  0  0  0
  2  3  1  0  0  0
  3  4  2  0  0  0
  4  7  1  0  0  0
  7  8  2  0  0  0
  7  9  1  0  0  0
  9 11  1  0  0  0
 11 12  1  0  0  0
 11 13  1  0  0  0
  4  5  1  0  0  0
  5  6  2  0  0  0
  6 14  1  0  0  0
 14 16  1  0  0  0
 16 17  2  0  0  0
 16 18  2  0  0  0
 16 19  1  0  0  0
 19 20  2  0  0  0
 20 21  1  0  0  0
 21 22  2  0  0  0
 22 23  1  0  0  0
 22 24  1  0  0  0
 24 25  2  0  0  0
 25 26  1  0  0  0
 33 28  1  0  0  0
  6  1  1  0  0  0
 25 19  1  0  0  0
 39 40  1  0  0  0
  9 10  1  0  0  0
 14 15  1  0  0  0
M  END
> <minimizedAffinity>
-0.74354

> <CNNscore>
0.3627543747

> <CNNaffinity>
7.4844603539

> <CNN_VS>
2.7150206566

> <CNNaffinity_variance>
0.6300178766

$$$$
[H]OC(=O)C([H])([H])c1c([H])c([H])c(Oc2c([H])c([H])c(C(=O)N([H])C([H])(C([H])([H])[H])C([H])([H])[H])c([H])c2N([H])S(=O)(=O)c2c([H])c([H])c(Cl)c([H])c2Cl)c(OC([H])([H])[H])c1[H]


 40 42  0  0  0  0  0  0  0  0999 V2000
    6.6918   47.5805  129.3875 C   0  0  0  0  0  0  0  0  0  0  0  0
    5.5936   48.3886  129.5032 C   0  0  0  0  0  0  0  0  0  0  0  0
    5.6732   49.7536  129.3079 C   0  0  0  0  0  0  0  0  0  0  0  0
    6.8787   50.3252  128.9898 C   0  0  0  0  0  0  0  0  0  0  0  0
    7.9787   49.5010  128.8765 C   0  0  0  0  0  0  0  0  0  0  0  0
    7.9419   48.1430  129.0621 C   0  0  0  0  0  0  0  0  0  0  0  0
    7.0049   51.7713  128.7695 C   0  0  0  0  0  0  0  0  0  0  0  0
    6.9266   52.5185  129.7933 O   0  0  0  0  0  0  0  0  0  0  0  0
    7.2030   52.3042  127.4906 N   0  0  0  0  0  0  0  0  0  0  0  0
    7.2722   51.7202  126.6504 H   0  0  0  0  0  0  0  0  0  0  0  0
    7.3203   53.7455  127.3316 C   0  0  0  0  0  0  0  0  0  0  0  0
    8.3662   53.9712  126.2533 C   0  0  0  0  0  0  0  0  0  0  0  0
    5.9953   54.3402  126.9625 C   0  0  0  0  0  0  0  0  0  0  0  0
    9.0666   47.2797  128.9626 N   0  0  0  0  0  0  0  0  0  0  0  0
    9.0013   46.4269  128.3406 H   0  0  0  0  0  0  0  0  0  0  0  0
   10.4902   47.6370  129.8462 S   0  0  0  0  0  0  0  0  0  0  0  0
   11.6497   46.7301  129.4496 O   0  0  0  0  0  0  0  0  0  0  0  0
   10.8904   49.0813  129.5196 O   0  0  0  0  0  0  0  0  0  0  0  0
   10.1788   47.5287  131.5608 C   0  0  0  0  0  0  0  0  0  0  0  0
    9.2063   48.2947  132.1364 C   0  0  0  0  0  0  0  0  0  0  0  0
    9.0329   48.1689  133.5217 C   0  0  0  0  0  0  0  0  0  0  0  0
    9.7922   47.3234  134.2864 C   0  0  0  0  0  0  0  0  0  0  0  0
    9.5573   47.1841  136.0079 Cl  0  0  0  0  0  0  0  0  0  0  0  0
   10.7561   46.5775  133.6551 C   0  0  0  0  0  0  0  0  0  0  0  0
   10.9714   46.6566  132.3103 C   0  0  0  0  0  0  0  0  0  0  0  0
   12.2125   45.6969  131.4937 Cl  0  0  0  0  0  0  0  0  0  0  0  0
    6.6129   46.2154  129.5799 O   0  0  0  0  0  0  0  0  0  0  0  0
    8.2619   44.5232  130.1232 C   0  0  0  0  0  0  0  0  0  0  0  0
    8.9352   43.8187  131.1089 C   0  0  0  0  0  0  0  0  0  0  0  0
    8.7177   44.0164  132.4627 C   0  0  0  0  0  0  0  0  0  0  0  0
    7.7821   44.9642  132.8234 C   0  0  0  0  0  0  0  0  0  0  0  0
    7.1006   45.6759  131.8598 C   0  0  0  0  0  0  0  0  0  0  0  0
    7.3262   45.4698  130.4894 C   0  0  0  0  0  0  0  0  0  0  0  0
    9.7670   43.6982  128.4059 C   0  0  0  0  0  0  0  0  0  0  0  0
    8.5255   44.2831  128.7724 O   0  0  0  0  0  0  0  0  0  0  0  0
    9.4483   43.2525  133.5107 C   0  0  0  0  0  0  0  0  0  0  0  0
   10.8153   42.9240  133.0346 C   0  0  0  0  0  0  0  0  0  0  0  0
   11.8551   43.4969  133.4156 O   0  0  0  0  0  0  0  0  0  0  0  0
   10.9197   41.8923  132.0893 O   0  0  0  0  0  0  0  0  0  0  0  0
   10.5678   40.9787  132.3298 H   0  0  0  0  0  0  0  0  0  0  0  0
 34 35  1  0  0  0
 35 28  1  0  0  0
 28 29  2  0  0  0
 29 30  1  0  0  0
 30 36  1  0  0  0
 36 37  1  0  0  0
 37 38  2  0  0  0
 37 39  1  0  0  0
 30 31  2  0  0  0
 31 32  1  0  0  0
 32 33  2  0  0  0
 33 27  1  0  0  0
 27  1  1  0  0  0
  1  2  2  0  0  0
  2  3  1  0  0  0
  3  4  2  0  0  0
  4  7  1  0  0  0
  7  8  2  0  0  0
  7  9  1  0  0  0
  9 11  1  0  0  0
 11 12  1  0  0  0
 11 13  1  0  0  0
  4  5  1  0  0  0
  5  6  2  0  0  0
  6 14  1  0  0  0
 14 16  1  0  0  0
 16 17  2  0  0  0
 16 18  2  0  0  0
 16 19  1  0  0  0
 19 20  2  0  0  0
 20 21  1  0  0  0
 21 22  2  0  0  0
 22 23  1  0  0  0
 22 24  1  0  0  0
 24 25  2  0  0  0
 25 26  1  0  0  0
 33 28  1  0  0  0
  6  1  1  0  0  0
 25 19  1  0  0  0
 39 40  1  0  0  0
  9 10  1  0  0  0
 14 15  1  0  0  0
M  END
> <minimizedAffinity>
-0.03124

> <CNNscore>
0.3497930169

> <CNNaffinity>
7.5647149086

> <CNN_VS>
2.6460845470

> <CNNaffinity_variance>
0.4541981220

$$$$
[H]OC(=O)C([H])([H])c1c([H])c([H])c(Oc2c([H])c([H])c(C(=O)N([H])C([H])(C([H])([H])[H])C([H])([H])[H])c([H])c2N([H])S(=O)(=O)c2c([H])c([H])c(Cl)c([H])c2Cl)c(OC([H])([H])[H])c1[H]


 40 42  0  0  0  0  0  0  0  0999 V2000
    9.6766   48.2921  130.3862 C   0  0  0  0  0  0  0  0  0  0  0  0
    9.7103   49.5266  130.9754 C   0  0  0  0  0  0  0  0  0  0  0  0
    8.9110   50.5632  130.5345 C   0  0  0  0  0  0  0  0  0  0  0  0
    8.0578   50.3618  129.4797 C   0  0  0  0  0  0  0  0  0  0  0  0
    8.0328   49.1138  128.8934 C   0  0  0  0  0  0  0  0  0  0  0  0
    8.8092   48.0595  129.3006 C   0  0  0  0  0  0  0  0  0  0  0  0
    7.1881   51.4359  128.9838 C   0  0  0  0  0  0  0  0  0  0  0  0
    6.1179   51.6552  129.6312 O   0  0  0  0  0  0  0  0  0  0  0  0
    7.5215   52.1855  127.8499 N   0  0  0  0  0  0  0  0  0  0  0  0
    8.3814   52.0282  127.3134 H   0  0  0  0  0  0  0  0  0  0  0  0
    6.6214   53.2376  127.4034 C   0  0  0  0  0  0  0  0  0  0  0  0
    6.9858   54.4771  128.2021 C   0  0  0  0  0  0  0  0  0  0  0  0
    6.7652   53.4572  125.9281 C   0  0  0  0  0  0  0  0  0  0  0  0
    8.8069   46.7709  128.7008 N   0  0  0  0  0  0  0  0  0  0  0  0
    9.4431   46.5917  127.8753 H   0  0  0  0  0  0  0  0  0  0  0  0
    7.7810   45.5481  129.3231 S   0  0  0  0  0  0  0  0  0  0  0  0
    6.7041   46.1193  130.2388 O   0  0  0  0  0  0  0  0  0  0  0  0
    7.0803   44.8788  128.1341 O   0  0  0  0  0  0  0  0  0  0  0  0
    8.7231   44.3373  130.1568 C   0  0  0  0  0  0  0  0  0  0  0  0
    8.3179   43.8609  131.3703 C   0  0  0  0  0  0  0  0  0  0  0  0
    9.1403   42.9082  131.9876 C   0  0  0  0  0  0  0  0  0  0  0  0
   10.3033   42.4591  131.4201 C   0  0  0  0  0  0  0  0  0  0  0  0
   11.3093   41.2732  132.2072 Cl  0  0  0  0  0  0  0  0  0  0  0  0
   10.6624   42.9729  130.1990 C   0  0  0  0  0  0  0  0  0  0  0  0
    9.9031   43.9018  129.5496 C   0  0  0  0  0  0  0  0  0  0  0  0
   10.3628   44.5658  127.9761 Cl  0  0  0  0  0  0  0  0  0  0  0  0
   10.4734   47.2543  130.8277 O   0  0  0  0  0  0  0  0  0  0  0  0
   11.4844   45.9177  132.5797 C   0  0  0  0  0  0  0  0  0  0  0  0
   11.3636   45.3568  133.8413 C   0  0  0  0  0  0  0  0  0  0  0  0
   10.2342   45.5045  134.6300 C   0  0  0  0  0  0  0  0  0  0  0  0
    9.1932   46.2491  134.1147 C   0  0  0  0  0  0  0  0  0  0  0  0
    9.2919   46.8154  132.8620 C   0  0  0  0  0  0  0  0  0  0  0  0
   10.4397   46.6611  132.0683 C   0  0  0  0  0  0  0  0  0  0  0  0
   13.0147   44.4249  131.4287 C   0  0  0  0  0  0  0  0  0  0  0  0
   12.6499   45.7375  131.8307 O   0  0  0  0  0  0  0  0  0  0  0  0
   10.1181   44.8965  135.9837 C   0  0  0  0  0  0  0  0  0  0  0  0
   11.0258   43.7269  136.0909 C   0  0  0  0  0  0  0  0  0  0  0  0
   11.5027   43.2957  137.1591 O   0  0  0  0  0  0  0  0  0  0  0  0
   11.3562   43.0769  134.8920 O   0  0  0  0  0  0  0  0  0  0  0  0
   10.6124   42.7001  134.3253 H   0  0  0  0  0  0  0  0  0  0  0  0
 34 35  1  0  0  0
 35 28  1  0  0  0
 28 29  2  0  0  0
 29 30  1  0  0  0
 30 36  1  0  0  0
 36 37  1  0  0  0
 37 38  2  0  0  0
 37 39  1  0  0  0
 30 31  2  0  0  0
 31 32  1  0  0  0
 32 33  2  0  0  0
 33 27  1  0  0  0
 27  1  1  0  0  0
  1  2  2  0  0  0
  2  3  1  0  0  0
  3  4  2  0  0  0
  4  7  1  0  0  0
  7  8  2  0  0  0
  7  9  1  0  0  0
  9 11  1  0  0  0
 11 12  1  0  0  0
 11 13  1  0  0  0
  4  5  1  0  0  0
  5  6  2  0  0  0
  6 14  1  0  0  0
 14 16  1  0  0  0
 16 17  2  0  0  0
 16 18  2  0  0  0
 16 19  1  0  0  0
 19 20  2  0  0  0
 20 21  1  0  0  0
 21 22  2  0  0  0
 22 23  1  0  0  0
 22 24  1  0  0  0
 24 25  2  0  0  0
 25 26  1  0  0  0
 33 28  1  0  0  0
  6  1  1  0  0  0
 25 19  1  0  0  0
 39 40  1  0  0  0
  9 10  1  0  0  0
 14 15  1  0  0  0
M  END
> <minimizedAffinity>
5.35676

> <CNNscore>
0.3041886985

> <CNNaffinity>
7.5895333290

> <CNN_VS>
2.3086502552

> <CNNaffinity_variance>
0.5053260326

$$$$
[H]c1c([H])c([H])c(N([H])c2nc3c([H])nc(N([H])c4c([H])c([H])c(OC([H])([H])[H])c([H])c4[H])nc3n2C([H])(C([H])([H])[H])C([H])([H])[H])c(F)c1[H]


 31 34  0  0  0  0  0  0  0  0999 V2000
    7.6182   48.9702  129.6468 C   0  0  0  0  0  0  0  0  0  0  0  0
    8.3132   50.0324  130.0523 N   0  0  0  0  0  0  0  0  0  0  0  0
    9.4423   50.0108  130.7581 C   0  0  0  0  0  0  0  0  0  0  0  0
    9.9640   48.7840  131.1167 C   0  0  0  0  0  0  0  0  0  0  0  0
   11.0421   48.3863  131.8007 N   0  0  0  0  0  0  0  0  0  0  0  0
   11.0566   47.0470  131.8457 C   0  0  0  0  0  0  0  0  0  0  0  0
    9.9707   46.5627  131.1806 N   0  0  0  0  0  0  0  0  0  0  0  0
    9.2971   47.6473  130.7308 C   0  0  0  0  0  0  0  0  0  0  0  0
    8.1689   47.7637  130.0231 N   0  0  0  0  0  0  0  0  0  0  0  0
    9.5881   45.1734  130.9790 C   0  0  0  0  0  0  0  0  0  0  0  0
   10.1075   44.6312  129.6615 C   0  0  0  0  0  0  0  0  0  0  0  0
    8.1148   44.9558  131.1460 C   0  0  0  0  0  0  0  0  0  0  0  0
    6.4353   48.9930  128.9073 N   0  0  0  0  0  0  0  0  0  0  0  0
    6.4307   49.5706  128.0105 H   0  0  0  0  0  0  0  0  0  0  0  0
    2.9550   46.8028  129.9166 C   0  0  0  0  0  0  0  0  0  0  0  0
    2.9215   48.1729  129.8296 C   0  0  0  0  0  0  0  0  0  0  0  0
    4.0488   48.9174  129.4921 C   0  0  0  0  0  0  0  0  0  0  0  0
    5.2441   48.3299  129.2310 C   0  0  0  0  0  0  0  0  0  0  0  0
    5.2623   46.9111  129.3249 C   0  0  0  0  0  0  0  0  0  0  0  0
    4.1588   46.2030  129.6534 C   0  0  0  0  0  0  0  0  0  0  0  0
    1.0828   45.4420  129.2376 C   0  0  0  0  0  0  0  0  0  0  0  0
    1.8243   46.0746  130.2538 O   0  0  0  0  0  0  0  0  0  0  0  0
   12.0275   46.2362  132.4738 N   0  0  0  0  0  0  0  0  0  0  0  0
   13.0283   46.3706  132.1019 H   0  0  0  0  0  0  0  0  0  0  0  0
   11.8706   45.2953  133.4988 C   0  0  0  0  0  0  0  0  0  0  0  0
   12.6589   44.1867  133.6882 C   0  0  0  0  0  0  0  0  0  0  0  0
   12.4021   43.3128  134.7564 C   0  0  0  0  0  0  0  0  0  0  0  0
   11.3666   43.5383  135.6332 C   0  0  0  0  0  0  0  0  0  0  0  0
   10.5645   44.6453  135.4597 C   0  0  0  0  0  0  0  0  0  0  0  0
   10.8266   45.4756  134.4259 C   0  0  0  0  0  0  0  0  0  0  0  0
   10.0065   46.5644  134.2877 F   0  0  0  0  0  0  0  0  0  0  0  0
 21 22  1  0  0  0
 22 15  1  0  0  0
 15 16  2  0  0  0
 16 17  1  0  0  0
 17 18  2  0  0  0
 18 13  1  0  0  0
 13  1  1  0  0  0
  1  2  2  0  0  0
  2  3  1  0  0  0
  3  4  2  0  0  0
  4  5  1  0  0  0
  5  6  2  0  0  0
  6 23  1  0  0  0
 23 25  1  0  0  0
 25 26  2  0  0  0
 26 27  1  0  0  0
 27 28  2  0  0  0
 28 29  1  0  0  0
 29 30  2  0  0  0
 30 31  1  0  0  0
  6  7  1  0  0  0
  7 10  1  0  0  0
 10 11  1  0  0  0
 10 12  1  0  0  0
  7  8  1  0  0  0
  8  9  2  0  0  0
 18 19  1  0  0  0
 19 20  2  0  0  0
 20 15  1  0  0  0
  9  1  1  0  0  0
  8  4  1  0  0  0
 30 25  1  0  0  0
 13 14  1  0  0  0
 23 24  1  0  0  0
M  END
> <minimizedAffinity>
8.38147

> <CNNscore>
0.5011036992

> <CNNaffinity>
7.9010171890

> <CNN_VS>
3.9592289925

> <CNNaffinity_variance>
1.6313213110

$$$$
[H]c1c([H])c([H])c(N([H])c2nc3c([H])nc(N([H])c4c([H])c([H])c(OC([H])([H])[H])c([H])c4[H])nc3n2C([H])(C([H])([H])[H])C([H])([H])[H])c(F)c1[H]


 31 34  0  0  0  0  0  0  0  0999 V2000
    7.8099   45.9936  132.2406 C   0  0  0  0  0  0  0  0  0  0  0  0
    6.8075   46.6058  131.6111 N   0  0  0  0  0  0  0  0  0  0  0  0
    6.8106   47.0222  130.3462 C   0  0  0  0  0  0  0  0  0  0  0  0
    7.9484   46.8120  129.5932 C   0  0  0  0  0  0  0  0  0  0  0  0
    8.3035   47.0849  128.3331 N   0  0  0  0  0  0  0  0  0  0  0  0
    9.5540   46.6472  128.1312 C   0  0  0  0  0  0  0  0  0  0  0  0
   10.0226   46.0797  129.2777 N   0  0  0  0  0  0  0  0  0  0  0  0
    9.0200   46.1858  130.1808 C   0  0  0  0  0  0  0  0  0  0  0  0
    8.9283   45.8011  131.4579 N   0  0  0  0  0  0  0  0  0  0  0  0
   11.3258   45.4767  129.5126 C   0  0  0  0  0  0  0  0  0  0  0  0
   11.4775   44.1585  128.7785 C   0  0  0  0  0  0  0  0  0  0  0  0
   11.6470   45.3590  130.9717 C   0  0  0  0  0  0  0  0  0  0  0  0
    7.8064   45.5573  133.5659 N   0  0  0  0  0  0  0  0  0  0  0  0
    6.8889   45.6367  134.1040 H   0  0  0  0  0  0  0  0  0  0  0  0
   11.1303   43.7989  135.5121 C   0  0  0  0  0  0  0  0  0  0  0  0
   10.6201   44.9995  135.9411 C   0  0  0  0  0  0  0  0  0  0  0  0
    9.5234   45.5963  135.3247 C   0  0  0  0  0  0  0  0  0  0  0  0
    8.8980   45.0245  134.2645 C   0  0  0  0  0  0  0  0  0  0  0  0
    9.4377   43.7818  133.8326 C   0  0  0  0  0  0  0  0  0  0  0  0
   10.5030   43.2156  134.4423 C   0  0  0  0  0  0  0  0  0  0  0  0
   12.0839   42.7140  137.4438 C   0  0  0  0  0  0  0  0  0  0  0  0
   12.2231   43.2165  136.1358 O   0  0  0  0  0  0  0  0  0  0  0  0
   10.2965   46.7433  126.9336 N   0  0  0  0  0  0  0  0  0  0  0  0
   11.1261   47.4273  126.9775 H   0  0  0  0  0  0  0  0  0  0  0  0
   10.1056   46.0811  125.7148 C   0  0  0  0  0  0  0  0  0  0  0  0
    9.6888   44.7801  125.5733 C   0  0  0  0  0  0  0  0  0  0  0  0
    9.5334   44.2245  124.2935 C   0  0  0  0  0  0  0  0  0  0  0  0
    9.7907   44.9575  123.1584 C   0  0  0  0  0  0  0  0  0  0  0  0
   10.2097   46.2646  123.2799 C   0  0  0  0  0  0  0  0  0  0  0  0
   10.3539   46.7828  124.5198 C   0  0  0  0  0  0  0  0  0  0  0  0
   10.7722   48.0850  124.5980 F   0  0  0  0  0  0  0  0  0  0  0  0
 21 22  1  0  0  0
 22 15  1  0  0  0
 15 16  2  0  0  0
 16 17  1  0  0  0
 17 18  2  0  0  0
 18 13  1  0  0  0
 13  1  1  0  0  0
  1  2  2  0  0  0
  2  3  1  0  0  0
  3  4  2  0  0  0
  4  5  1  0  0  0
  5  6  2  0  0  0
  6 23  1  0  0  0
 23 25  1  0  0  0
 25 26  2  0  0  0
 26 27  1  0  0  0
 27 28  2  0  0  0
 28 29  1  0  0  0
 29 30  2  0  0  0
 30 31  1  0  0  0
  6  7  1  0  0  0
  7 10  1  0  0  0
 10 11  1  0  0  0
 10 12  1  0  0  0
  7  8  1  0  0  0
  8  9  2  0  0  0
 18 19  1  0  0  0
 19 20  2  0  0  0
 20 15  1  0  0  0
  9  1  1  0  0  0
  8  4  1  0  0  0
 30 25  1  0  0  0
 13 14  1  0  0  0
 23 24  1  0  0  0
M  END
> <minimizedAffinity>
33.39423

> <CNNscore>
0.4564951658

> <CNNaffinity>
7.2323698997

> <CNN_VS>
3.3015418053

> <CNNaffinity_variance>
0.8838264346

$$$$
[H]c1c([H])c([H])c(N([H])c2nc3c([H])nc(N([H])c4c([H])c([H])c(OC([H])([H])[H])c([H])c4[H])nc3n2C([H])(C([H])([H])[H])C([H])([H])[H])c(F)c1[H]


 31 34  0  0  0  0  0  0  0  0999 V2000
    9.4732   46.7063  128.0354 C   0  0  0  0  0  0  0  0  0  0  0  0
   10.1318   45.8213  127.2879 N   0  0  0  0  0  0  0  0  0  0  0  0
   10.9988   44.9110  127.7275 C   0  0  0  0  0  0  0  0  0  0  0  0
   11.2578   44.8580  129.0825 C   0  0  0  0  0  0  0  0  0  0  0  0
   12.0418   44.1027  129.8592 N   0  0  0  0  0  0  0  0  0  0  0  0
   11.8974   44.4954  131.1323 C   0  0  0  0  0  0  0  0  0  0  0  0
   11.0050   45.5234  131.1876 N   0  0  0  0  0  0  0  0  0  0  0  0
   10.6123   45.7427  129.9109 C   0  0  0  0  0  0  0  0  0  0  0  0
    9.7571   46.6236  129.3819 N   0  0  0  0  0  0  0  0  0  0  0  0
   10.5491   46.2535  132.3606 C   0  0  0  0  0  0  0  0  0  0  0  0
    9.1153   45.9106  132.7160 C   0  0  0  0  0  0  0  0  0  0  0  0
   10.7699   47.7306  132.2366 C   0  0  0  0  0  0  0  0  0  0  0  0
    8.5648   47.6599  127.5746 N   0  0  0  0  0  0  0  0  0  0  0  0
    8.6728   47.9905  126.5662 H   0  0  0  0  0  0  0  0  0  0  0  0
    5.5210   49.5803  129.8050 C   0  0  0  0  0  0  0  0  0  0  0  0
    5.3061   48.3465  129.2416 C   0  0  0  0  0  0  0  0  0  0  0  0
    6.2916   47.6890  128.5101 C   0  0  0  0  0  0  0  0  0  0  0  0
    7.5199   48.2318  128.3125 C   0  0  0  0  0  0  0  0  0  0  0  0
    7.7268   49.5090  128.9023 C   0  0  0  0  0  0  0  0  0  0  0  0
    6.7594   50.1338  129.6101 C   0  0  0  0  0  0  0  0  0  0  0  0
    4.8199   51.4503  131.1577 C   0  0  0  0  0  0  0  0  0  0  0  0
    4.5299   50.2231  130.5311 O   0  0  0  0  0  0  0  0  0  0  0  0
   12.5509   43.9519  132.2603 N   0  0  0  0  0  0  0  0  0  0  0  0
   13.5863   43.7068  132.1000 H   0  0  0  0  0  0  0  0  0  0  0  0
   12.0453   43.6918  133.5398 C   0  0  0  0  0  0  0  0  0  0  0  0
   12.6624   44.0231  134.7213 C   0  0  0  0  0  0  0  0  0  0  0  0
   12.0545   43.7086  135.9470 C   0  0  0  0  0  0  0  0  0  0  0  0
   10.8387   43.0677  135.9998 C   0  0  0  0  0  0  0  0  0  0  0  0
   10.2039   42.7271  134.8251 C   0  0  0  0  0  0  0  0  0  0  0  0
   10.8040   43.0376  133.6545 C   0  0  0  0  0  0  0  0  0  0  0  0
   10.1409   42.6823  132.5095 F   0  0  0  0  0  0  0  0  0  0  0  0
 21 22  1  0  0  0
 22 15  1  0  0  0
 15 16  2  0  0  0
 16 17  1  0  0  0
 17 18  2  0  0  0
 18 13  1  0  0  0
 13  1  1  0  0  0
  1  2  2  0  0  0
  2  3  1  0  0  0
  3  4  2  0  0  0
  4  5  1  0  0  0
  5  6  2  0  0  0
  6 23  1  0  0  0
 23 25  1  0  0  0
 25 26  2  0  0  0
 26 27  1  0  0  0
 27 28  2  0  0  0
 28 29  1  0  0  0
 29 30  2  0  0  0
 30 31  1  0  0  0
  6  7  1  0  0  0
  7 10  1  0  0  0
 10 11  1  0  0  0
 10 12  1  0  0  0
  7  8  1  0  0  0
  8  9  2  0  0  0
 18 19  1  0  0  0
 19 20  2  0  0  0
 20 15  1  0  0  0
  9  1  1  0  0  0
  8  4  1  0  0  0
 30 25  1  0  0  0
 13 14  1  0  0  0
 23 24  1  0  0  0
M  END
> <minimizedAffinity>
6.82126

> <CNNscore>
0.4350353479

> <CNNaffinity>
7.7636566162

> <CNN_VS>
3.3774650097

> <CNNaffinity_variance>
1.1236701012

$$$$
[H]c1c([H])c([H])c(N([H])c2nc3c([H])nc(N([H])c4c([H])c([H])c(OC([H])([H])[H])c([H])c4[H])nc3n2C([H])(C([H])([H])[H])C([H])([H])[H])c(F)c1[H]


 31 34  0  0  0  0  0  0  0  0999 V2000
    7.3092   50.5718  129.0775 C   0  0  0  0  0  0  0  0  0  0  0  0
    6.9482   49.5250  128.3362 N   0  0  0  0  0  0  0  0  0  0  0  0
    7.2981   48.2568  128.5429 C   0  0  0  0  0  0  0  0  0  0  0  0
    8.1117   47.9722  129.6212 C   0  0  0  0  0  0  0  0  0  0  0  0
    8.6478   46.8546  130.1232 N   0  0  0  0  0  0  0  0  0  0  0  0
    9.3698   47.1698  131.2073 C   0  0  0  0  0  0  0  0  0  0  0  0
    9.3041   48.5145  131.4164 N   0  0  0  0  0  0  0  0  0  0  0  0
    8.5211   49.0057  130.4275 C   0  0  0  0  0  0  0  0  0  0  0  0
    8.1207   50.2494  130.1443 N   0  0  0  0  0  0  0  0  0  0  0  0
    9.9339   49.2898  132.4743 C   0  0  0  0  0  0  0  0  0  0  0  0
    9.7379   48.6502  133.8351 C   0  0  0  0  0  0  0  0  0  0  0  0
    9.5177   50.7294  132.4537 C   0  0  0  0  0  0  0  0  0  0  0  0
    6.9424   51.9004  128.8608 N   0  0  0  0  0  0  0  0  0  0  0  0
    6.4066   52.3929  129.6407 H   0  0  0  0  0  0  0  0  0  0  0  0
    7.7533   53.9898  125.2685 C   0  0  0  0  0  0  0  0  0  0  0  0
    7.3402   54.6611  126.3930 C   0  0  0  0  0  0  0  0  0  0  0  0
    7.0743   54.0003  127.5893 C   0  0  0  0  0  0  0  0  0  0  0  0
    7.2078   52.6550  127.7103 C   0  0  0  0  0  0  0  0  0  0  0  0
    7.6365   51.9745  126.5376 C   0  0  0  0  0  0  0  0  0  0  0  0
    7.8910   52.6311  125.3839 C   0  0  0  0  0  0  0  0  0  0  0  0
    7.2220   54.3953  122.9508 C   0  0  0  0  0  0  0  0  0  0  0  0
    8.0146   54.6613  124.0839 O   0  0  0  0  0  0  0  0  0  0  0  0
   10.0952   46.2754  132.0250 N   0  0  0  0  0  0  0  0  0  0  0  0
   10.6071   46.7407  132.8493 H   0  0  0  0  0  0  0  0  0  0  0  0
   10.2385   44.8871  131.9133 C   0  0  0  0  0  0  0  0  0  0  0  0
    9.2065   43.9874  131.8029 C   0  0  0  0  0  0  0  0  0  0  0  0
    9.4766   42.6139  131.6967 C   0  0  0  0  0  0  0  0  0  0  0  0
   10.7660   42.1352  131.7002 C   0  0  0  0  0  0  0  0  0  0  0  0
   11.8148   43.0222  131.8101 C   0  0  0  0  0  0  0  0  0  0  0  0
   11.5360   44.3408  131.9114 C   0  0  0  0  0  0  0  0  0  0  0  0
   12.6059   45.1897  132.0189 F   0  0  0  0  0  0  0  0  0  0  0  0
 21 22  1  0  0  0
 22 15  1  0  0  0
 15 16  2  0  0  0
 16 17  1  0  0  0
 17 18  2  0  0  0
 18 13  1  0  0  0
 13  1  1  0  0  0
  1  2  2  0  0  0
  2  3  1  0  0  0
  3  4  2  0  0  0
  4  5  1  0  0  0
  5  6  2  0  0  0
  6 23  1  0  0  0
 23 25  1  0  0  0
 25 26  2  0  0  0
 26 27  1  0  0  0
 27 28  2  0  0  0
 28 29  1  0  0  0
 29 30  2  0  0  0
 30 31  1  0  0  0
  6  7  1  0  0  0
  7 10  1  0  0  0
 10 11  1  0  0  0
 10 12  1  0  0  0
  7  8  1  0  0  0
  8  9  2  0  0  0
 18 19  1  0  0  0
 19 20  2  0  0  0
 20 15  1  0  0  0
  9  1  1  0  0  0
  8  4  1  0  0  0
 30 25  1  0  0  0
 13 14  1  0  0  0
 23 24  1  0  0  0
M  END
> <minimizedAffinity>
1.59860

> <CNNscore>
0.4018345475

> <CNNaffinity>
7.0506334305

> <CNN_VS>
2.8331880569

> <CNNaffinity_variance>
0.2802064419

$$$$
[H]c1c([H])c([H])c(N([H])c2nc3c([H])nc(N([H])c4c([H])c([H])c(OC([H])([H])[H])c([H])c4[H])nc3n2C([H])(C([H])([H])[H])C([H])([H])[H])c(F)c1[H]


 31 34  0  0  0  0  0  0  0  0999 V2000
    9.5527   44.0236  131.0596 C   0  0  0  0  0  0  0  0  0  0  0  0
    8.3080   43.5786  130.8911 N   0  0  0  0  0  0  0  0  0  0  0  0
    7.2112   44.3278  130.7946 C   0  0  0  0  0  0  0  0  0  0  0  0
    7.3491   45.6991  130.8734 C   0  0  0  0  0  0  0  0  0  0  0  0
    6.5016   46.7322  130.8195 N   0  0  0  0  0  0  0  0  0  0  0  0
    7.1968   47.8700  130.9541 C   0  0  0  0  0  0  0  0  0  0  0  0
    8.5190   47.5750  131.0982 N   0  0  0  0  0  0  0  0  0  0  0  0
    8.6056   46.2251  131.0470 C   0  0  0  0  0  0  0  0  0  0  0  0
    9.6513   45.3966  131.1339 N   0  0  0  0  0  0  0  0  0  0  0  0
    9.6303   48.4979  131.2726 C   0  0  0  0  0  0  0  0  0  0  0  0
    9.3771   49.4783  132.4014 C   0  0  0  0  0  0  0  0  0  0  0  0
   10.0111   49.1826  129.9950 C   0  0  0  0  0  0  0  0  0  0  0  0
   10.7016   43.2384  131.1605 N   0  0  0  0  0  0  0  0  0  0  0  0
   10.6326   42.3429  131.7359 H   0  0  0  0  0  0  0  0  0  0  0  0
   14.3555   44.1813  129.2401 C   0  0  0  0  0  0  0  0  0  0  0  0
   14.3436   43.6775  130.5175 C   0  0  0  0  0  0  0  0  0  0  0  0
   13.1573   43.3515  131.1697 C   0  0  0  0  0  0  0  0  0  0  0  0
   11.9463   43.5146  130.5790 C   0  0  0  0  0  0  0  0  0  0  0  0
   11.9755   44.0368  129.2567 C   0  0  0  0  0  0  0  0  0  0  0  0
   13.1360   44.3478  128.6374 C   0  0  0  0  0  0  0  0  0  0  0  0
   16.1662   45.7340  128.8811 C   0  0  0  0  0  0  0  0  0  0  0  0
   15.5448   44.5014  128.6031 O   0  0  0  0  0  0  0  0  0  0  0  0
    6.6733   49.1817  130.9515 N   0  0  0  0  0  0  0  0  0  0  0  0
    6.1235   49.4437  131.8387 H   0  0  0  0  0  0  0  0  0  0  0  0
    6.7694   50.1743  129.9686 C   0  0  0  0  0  0  0  0  0  0  0  0
    7.5272   50.0915  128.8261 C   0  0  0  0  0  0  0  0  0  0  0  0
    7.5429   51.1563  127.9115 C   0  0  0  0  0  0  0  0  0  0  0  0
    6.8093   52.2991  128.1300 C   0  0  0  0  0  0  0  0  0  0  0  0
    6.0428   52.4010  129.2706 C   0  0  0  0  0  0  0  0  0  0  0  0
    6.0398   51.3661  130.1399 C   0  0  0  0  0  0  0  0  0  0  0  0
    5.2653   51.5063  131.2613 F   0  0  0  0  0  0  0  0  0  0  0  0
 21 22  1  0  0  0
 22 15  1  0  0  0
 15 16  2  0  0  0
 16 17  1  0  0  0
 17 18  2  0  0  0
 18 13  1  0  0  0
 13  1  1  0  0  0
  1  2  2  0  0  0
  2  3  1  0  0  0
  3  4  2  0  0  0
  4  5  1  0  0  0
  5  6  2  0  0  0
  6 23  1  0  0  0
 23 25  1  0  0  0
 25 26  2  0  0  0
 26 27  1  0  0  0
 27 28  2  0  0  0
 28 29  1  0  0  0
 29 30  2  0  0  0
 30 31  1  0  0  0
  6  7  1  0  0  0
  7 10  1  0  0  0
 10 11  1  0  0  0
 10 12  1  0  0  0
  7  8  1  0  0  0
  8  9  2  0  0  0
 18 19  1  0  0  0
 19 20  2  0  0  0
 20 15  1  0  0  0
  9  1  1  0  0  0
  8  4  1  0  0  0
 30 25  1  0  0  0
 13 14  1  0  0  0
 23 24  1  0  0  0
M  END
> <minimizedAffinity>
16.90593

> <CNNscore>
0.3371590078

> <CNNaffinity>
6.9912352562

> <CNN_VS>
2.3571579456

> <CNNaffinity_variance>
0.9986661077

$$$$
[H]c1c([H])c([H])c(N([H])c2nc3c([H])nc(N([H])c4c([H])c([H])c(OC([H])([H])[H])c([H])c4[H])nc3n2C([H])(C([H])([H])[H])C([H])([H])[H])c(F)c1[H]


 31 34  0  0  0  0  0  0  0  0999 V2000
    7.0940   46.2229  129.0913 C   0  0  0  0  0  0  0  0  0  0  0  0
    7.4325   45.3857  128.1114 N   0  0  0  0  0  0  0  0  0  0  0  0
    8.4078   44.4799  128.1527 C   0  0  0  0  0  0  0  0  0  0  0  0
    9.1546   44.3779  129.3093 C   0  0  0  0  0  0  0  0  0  0  0  0
   10.1777   43.6111  129.7012 N   0  0  0  0  0  0  0  0  0  0  0  0
   10.5163   43.9477  130.9534 C   0  0  0  0  0  0  0  0  0  0  0  0
    9.7014   44.9502  131.3858 N   0  0  0  0  0  0  0  0  0  0  0  0
    8.8586   45.2118  130.3594 C   0  0  0  0  0  0  0  0  0  0  0  0
    7.8609   46.0922  130.2294 N   0  0  0  0  0  0  0  0  0  0  0  0
    9.7110   45.6202  132.6773 C   0  0  0  0  0  0  0  0  0  0  0  0
    8.3445   45.5977  133.3343 C   0  0  0  0  0  0  0  0  0  0  0  0
   10.2859   47.0021  132.6004 C   0  0  0  0  0  0  0  0  0  0  0  0
    6.0720   47.1718  129.0479 N   0  0  0  0  0  0  0  0  0  0  0  0
    5.0729   46.8100  128.9544 H   0  0  0  0  0  0  0  0  0  0  0  0
    6.7098   51.3574  129.0850 C   0  0  0  0  0  0  0  0  0  0  0  0
    5.6230   50.8073  129.7193 C   0  0  0  0  0  0  0  0  0  0  0  0
    5.3934   49.4341  129.7296 C   0  0  0  0  0  0  0  0  0  0  0  0
    6.2308   48.5625  129.1122 C   0  0  0  0  0  0  0  0  0  0  0  0
    7.3512   49.1474  128.4604 C   0  0  0  0  0  0  0  0  0  0  0  0
    7.5600   50.4829  128.4601 C   0  0  0  0  0  0  0  0  0  0  0  0
    7.1629   53.3864  127.8617 C   0  0  0  0  0  0  0  0  0  0  0  0
    6.9257   52.7270  129.0831 O   0  0  0  0  0  0  0  0  0  0  0  0
   11.5479   43.3748  131.7295 N   0  0  0  0  0  0  0  0  0  0  0  0
   12.2448   42.7746  131.1708 H   0  0  0  0  0  0  0  0  0  0  0  0
   11.7861   43.4782  133.1054 C   0  0  0  0  0  0  0  0  0  0  0  0
   12.9105   44.0193  133.6794 C   0  0  0  0  0  0  0  0  0  0  0  0
   13.0355   44.0675  135.0768 C   0  0  0  0  0  0  0  0  0  0  0  0
   12.0483   43.5804  135.9014 C   0  0  0  0  0  0  0  0  0  0  0  0
   10.9127   43.0336  135.3443 C   0  0  0  0  0  0  0  0  0  0  0  0
   10.8096   42.9956  133.9972 C   0  0  0  0  0  0  0  0  0  0  0  0
    9.6657   42.4444  133.4827 F   0  0  0  0  0  0  0  0  0  0  0  0
 21 22  1  0  0  0
 22 15  1  0  0  0
 15 16  2  0  0  0
 16 17  1  0  0  0
 17 18  2  0  0  0
 18 13  1  0  0  0
 13  1  1  0  0  0
  1  2  2  0  0  0
  2  3  1  0  0  0
  3  4  2  0  0  0
  4  5  1  0  0  0
  5  6  2  0  0  0
  6 23  1  0  0  0
 23 25  1  0  0  0
 25 26  2  0  0  0
 26 27  1  0  0  0
 27 28  2  0  0  0
 28 29  1  0  0  0
 29 30  2  0  0  0
 30 31  1  0  0  0
  6  7  1  0  0  0
  7 10  1  0  0  0
 10 11  1  0  0  0
 10 12  1  0  0  0
  7  8  1  0  0  0
  8  9  2  0  0  0
 18 19  1  0  0  0
 19 20  2  0  0  0
 20 15  1  0  0  0
  9  1  1  0  0  0
  8  4  1  0  0  0
 30 25  1  0  0  0
 13 14  1  0  0  0
 23 24  1  0  0  0
M  END
> <minimizedAffinity>
4.59846

> <CNNscore>
0.3330275118

> <CNNaffinity>
7.7094049454

> <CNN_VS>
2.5674438477

> <CNNaffinity_variance>
0.8846090436

$$$$
[H]c1c([H])c([H])c(N([H])c2nc3c([H])nc(N([H])c4c([H])c([H])c(OC([H])([H])[H])c([H])c4[H])nc3n2C([H])(C([H])([H])[H])C([H])([H])[H])c(F)c1[H]


 31 34  0  0  0  0  0  0  0  0999 V2000
    9.5011   45.2566  129.9038 C   0  0  0  0  0  0  0  0  0  0  0  0
    8.7006   44.9626  128.8799 N   0  0  0  0  0  0  0  0  0  0  0  0
    7.8449   45.7931  128.2869 C   0  0  0  0  0  0  0  0  0  0  0  0
    7.7595   47.0877  128.7586 C   0  0  0  0  0  0  0  0  0  0  0  0
    7.0385   48.1629  128.4236 N   0  0  0  0  0  0  0  0  0  0  0  0
    7.3684   49.1760  129.2365 C   0  0  0  0  0  0  0  0  0  0  0  0
    8.3199   48.7554  130.1162 N   0  0  0  0  0  0  0  0  0  0  0  0
    8.5575   47.4577  129.8132 C   0  0  0  0  0  0  0  0  0  0  0  0
    9.3883   46.5569  130.3475 N   0  0  0  0  0  0  0  0  0  0  0  0
    8.9653   49.5196  131.1728 C   0  0  0  0  0  0  0  0  0  0  0  0
    8.3484   50.8958  131.3307 C   0  0  0  0  0  0  0  0  0  0  0  0
   10.4542   49.5754  131.0106 C   0  0  0  0  0  0  0  0  0  0  0  0
   10.3977   44.3863  130.5248 N   0  0  0  0  0  0  0  0  0  0  0  0
   10.9345   43.7094  129.8992 H   0  0  0  0  0  0  0  0  0  0  0  0
   10.9925   44.2496  134.7147 C   0  0  0  0  0  0  0  0  0  0  0  0
   11.8449   43.5911  133.8629 C   0  0  0  0  0  0  0  0  0  0  0  0
   11.6774   43.6257  132.4810 C   0  0  0  0  0  0  0  0  0  0  0  0
   10.6613   44.3118  131.8990 C   0  0  0  0  0  0  0  0  0  0  0  0
    9.7878   44.9884  132.7942 C   0  0  0  0  0  0  0  0  0  0  0  0
    9.9646   44.9451  134.1336 C   0  0  0  0  0  0  0  0  0  0  0  0
   11.7457   43.0611  136.6739 C   0  0  0  0  0  0  0  0  0  0  0  0
   11.1718   44.2062  136.0889 O   0  0  0  0  0  0  0  0  0  0  0  0
    6.8343   50.4832  129.2121 N   0  0  0  0  0  0  0  0  0  0  0  0
    6.1406   50.6959  130.0067 H   0  0  0  0  0  0  0  0  0  0  0  0
    7.0790   51.5259  128.3102 C   0  0  0  0  0  0  0  0  0  0  0  0
    7.5042   51.3722  127.0132 C   0  0  0  0  0  0  0  0  0  0  0  0
    7.7159   52.4983  126.2022 C   0  0  0  0  0  0  0  0  0  0  0  0
    7.5064   53.7722  126.6767 C   0  0  0  0  0  0  0  0  0  0  0  0
    7.0798   53.9469  127.9753 C   0  0  0  0  0  0  0  0  0  0  0  0
    6.8812   52.8513  128.7415 C   0  0  0  0  0  0  0  0  0  0  0  0
    6.4573   53.0672  130.0263 F   0  0  0  0  0  0  0  0  0  0  0  0
 21 22  1  0  0  0
 22 15  1  0  0  0
 15 16  2  0  0  0
 16 17  1  0  0  0
 17 18  2  0  0  0
 18 13  1  0  0  0
 13  1  1  0  0  0
  1  2  2  0  0  0
  2  3  1  0  0  0
  3  4  2  0  0  0
  4  5  1  0  0  0
  5  6  2  0  0  0
  6 23  1  0  0  0
 23 25  1  0  0  0
 25 26  2  0  0  0
 26 27  1  0  0  0
 27 28  2  0  0  0
 28 29  1  0  0  0
 29 30  2  0  0  0
 30 31  1  0  0  0
  6  7  1  0  0  0
  7 10  1  0  0  0
 10 11  1  0  0  0
 10 12  1  0  0  0
  7  8  1  0  0  0
  8  9  2  0  0  0
 18 19  1  0  0  0
 19 20  2  0  0  0
 20 15  1  0  0  0
  9  1  1  0  0  0
  8  4  1  0  0  0
 30 25  1  0  0  0
 13 14  1  0  0  0
 23 24  1  0  0  0
M  END
> <minimizedAffinity>
12.18745

> <CNNscore>
0.3279627860

> <CNNaffinity>
7.1958017349

> <CNN_VS>
2.3599550724

> <CNNaffinity_variance>
0.7535847425

$$$$
[H]c1c([H])c([H])c(N([H])c2nc3c([H])nc(N([H])c4c([H])c([H])c(OC([H])([H])[H])c([H])c4[H])nc3n2C([H])(C([H])([H])[H])C([H])([H])[H])c(F)c1[H]


 31 34  0  0  0  0  0  0  0  0999 V2000
    6.6716   50.5463  129.2857 C   0  0  0  0  0  0  0  0  0  0  0  0
    5.7255   49.7402  128.8051 N   0  0  0  0  0  0  0  0  0  0  0  0
    5.6951   48.4130  128.9104 C   0  0  0  0  0  0  0  0  0  0  0  0
    6.7302   47.7877  129.5763 C   0  0  0  0  0  0  0  0  0  0  0  0
    7.0263   46.5167  129.8682 N   0  0  0  0  0  0  0  0  0  0  0  0
    8.1804   46.4863  130.5487 C   0  0  0  0  0  0  0  0  0  0  0  0
    8.6452   47.7575  130.7034 N   0  0  0  0  0  0  0  0  0  0  0  0
    7.7393   48.5600  130.0970 C   0  0  0  0  0  0  0  0  0  0  0  0
    7.6879   49.8871  129.9436 N   0  0  0  0  0  0  0  0  0  0  0  0
    9.8596   48.1932  131.3760 C   0  0  0  0  0  0  0  0  0  0  0  0
    9.6773   48.2623  132.8798 C   0  0  0  0  0  0  0  0  0  0  0  0
   10.4028   49.4685  130.8065 C   0  0  0  0  0  0  0  0  0  0  0  0
    6.7032   51.9369  129.1752 N   0  0  0  0  0  0  0  0  0  0  0  0
    6.4069   52.5018  130.0301 H   0  0  0  0  0  0  0  0  0  0  0  0
    7.8462   53.9589  125.6351 C   0  0  0  0  0  0  0  0  0  0  0  0
    7.4924   54.6607  126.7612 C   0  0  0  0  0  0  0  0  0  0  0  0
    7.1201   54.0215  127.9409 C   0  0  0  0  0  0  0  0  0  0  0  0
    7.0853   52.6685  128.0430 C   0  0  0  0  0  0  0  0  0  0  0  0
    7.4547   51.9564  126.8688 C   0  0  0  0  0  0  0  0  0  0  0  0
    7.8141   52.5923  125.7315 C   0  0  0  0  0  0  0  0  0  0  0  0
    7.4621   54.4024  123.2954 C   0  0  0  0  0  0  0  0  0  0  0  0
    8.2149   54.6092  124.4673 O   0  0  0  0  0  0  0  0  0  0  0  0
    8.8373   45.3371  131.0411 N   0  0  0  0  0  0  0  0  0  0  0  0
    8.1895   44.6260  131.5235 H   0  0  0  0  0  0  0  0  0  0  0  0
   10.1952   44.9996  130.9892 C   0  0  0  0  0  0  0  0  0  0  0  0
   10.9962   44.7555  132.0780 C   0  0  0  0  0  0  0  0  0  0  0  0
   12.3486   44.4246  131.8986 C   0  0  0  0  0  0  0  0  0  0  0  0
   12.9039   44.3363  130.6434 C   0  0  0  0  0  0  0  0  0  0  0  0
   12.1164   44.5777  129.5386 C   0  0  0  0  0  0  0  0  0  0  0  0
   10.8167   44.8950  129.7304 C   0  0  0  0  0  0  0  0  0  0  0  0
   10.0676   45.1276  128.6071 F   0  0  0  0  0  0  0  0  0  0  0  0
 21 22  1  0  0  0
 22 15  1  0  0  0
 15 16  2  0  0  0
 16 17  1  0  0  0
 17 18  2  0  0  0
 18 13  1  0  0  0
 13  1  1  0  0  0
  1  2  2  0  0  0
  2  3  1  0  0  0
  3  4  2  0  0  0
  4  5  1  0  0  0
  5  6  2  0  0  0
  6 23  1  0  0  0
 23 25  1  0  0  0
 25 26  2  0  0  0
 26 27  1  0  0  0
 27 28  2  0  0  0
 28 29  1  0  0  0
 29 30  2  0  0  0
 30 31  1  0  0  0
  6  7  1  0  0  0
  7 10  1  0  0  0
 10 11  1  0  0  0
 10 12  1  0  0  0
  7  8  1  0  0  0
  8  9  2  0  0  0
 18 19  1  0  0  0
 19 20  2  0  0  0
 20 15  1  0  0  0
  9  1  1  0  0  0
  8  4  1  0  0  0
 30 25  1  0  0  0
 13 14  1  0  0  0
 23 24  1  0  0  0
M  END
> <minimizedAffinity>
1.10771

> <CNNscore>
0.2875010967

> <CNNaffinity>
7.0907034874

> <CNN_VS>
2.0385849476

> <CNNaffinity_variance>
0.0940607116

$$$$
[H]c1c([H])c([H])c(N([H])c2nc3c([H])nc(N([H])c4c([H])c([H])c(OC([H])([H])[H])c([H])c4[H])nc3n2C([H])(C([H])([H])[H])C([H])([H])[H])c(F)c1[H]


 31 34  0  0  0  0  0  0  0  0999 V2000
    8.3948   45.9605  130.0786 C   0  0  0  0  0  0  0  0  0  0  0  0
    7.5640   45.4480  129.1716 N   0  0  0  0  0  0  0  0  0  0  0  0
    7.8954   44.6278  128.1760 C   0  0  0  0  0  0  0  0  0  0  0  0
    9.2193   44.2577  128.0492 C   0  0  0  0  0  0  0  0  0  0  0  0
    9.8986   43.4774  127.2019 N   0  0  0  0  0  0  0  0  0  0  0  0
   11.1912   43.4765  127.5556 C   0  0  0  0  0  0  0  0  0  0  0  0
   11.3584   44.2689  128.6512 N   0  0  0  0  0  0  0  0  0  0  0  0
   10.1295   44.7504  128.9517 C   0  0  0  0  0  0  0  0  0  0  0  0
    9.7071   45.5692  129.9205 N   0  0  0  0  0  0  0  0  0  0  0  0
   12.5899   44.5568  129.3707 C   0  0  0  0  0  0  0  0  0  0  0  0
   13.8162   44.2774  128.5235 C   0  0  0  0  0  0  0  0  0  0  0  0
   12.6472   43.8730  130.7030 C   0  0  0  0  0  0  0  0  0  0  0  0
    8.0473   46.8196  131.1217 N   0  0  0  0  0  0  0  0  0  0  0  0
    7.4140   47.6446  130.8849 H   0  0  0  0  0  0  0  0  0  0  0  0
    9.3576   46.6836  135.1457 C   0  0  0  0  0  0  0  0  0  0  0  0
    8.5156   45.7193  134.6487 C   0  0  0  0  0  0  0  0  0  0  0  0
    8.0756   45.7353  133.3277 C   0  0  0  0  0  0  0  0  0  0  0  0
    8.4540   46.7059  132.4577 C   0  0  0  0  0  0  0  0  0  0  0  0
    9.3259   47.6966  132.9873 C   0  0  0  0  0  0  0  0  0  0  0  0
    9.7443   47.6664  134.2723 C   0  0  0  0  0  0  0  0  0  0  0  0
    9.5380   47.7634  137.2950 C   0  0  0  0  0  0  0  0  0  0  0  0
    9.7876   46.6548  136.4635 O   0  0  0  0  0  0  0  0  0  0  0  0
   12.2385   42.7770  126.9164 N   0  0  0  0  0  0  0  0  0  0  0  0
   13.1705   43.3131  126.8726 H   0  0  0  0  0  0  0  0  0  0  0  0
   12.2321   41.5009  126.3402 C   0  0  0  0  0  0  0  0  0  0  0  0
   11.3190   40.5111  126.6100 C   0  0  0  0  0  0  0  0  0  0  0  0
   11.4164   39.2672  125.9666 C   0  0  0  0  0  0  0  0  0  0  0  0
   12.4165   39.0067  125.0590 C   0  0  0  0  0  0  0  0  0  0  0  0
   13.3422   39.9872  124.7751 C   0  0  0  0  0  0  0  0  0  0  0  0
   13.2329   41.1785  125.4040 C   0  0  0  0  0  0  0  0  0  0  0  0
   14.1723   42.1265  125.0945 F   0  0  0  0  0  0  0  0  0  0  0  0
 21 22  1  0  0  0
 22 15  1  0  0  0
 15 16  2  0  0  0
 16 17  1  0  0  0
 17 18  2  0  0  0
 18 13  1  0  0  0
 13  1  1  0  0  0
  1  2  2  0  0  0
  2  3  1  0  0  0
  3  4  2  0  0  0
  4  5  1  0  0  0
  5  6  2  0  0  0
  6 23  1  0  0  0
 23 25  1  0  0  0
 25 26  2  0  0  0
 26 27  1  0  0  0
 27 28  2  0  0  0
 28 29  1  0  0  0
 29 30  2  0  0  0
 30 31  1  0  0  0
  6  7  1  0  0  0
  7 10  1  0  0  0
 10 11  1  0  0  0
 10 12  1  0  0  0
  7  8  1  0  0  0
  8  9  2  0  0  0
 18 19  1  0  0  0
 19 20  2  0  0  0
 20 15  1  0  0  0
  9  1  1  0  0  0
  8  4  1  0  0  0
 30 25  1  0  0  0
 13 14  1  0  0  0
 23 24  1  0  0  0
M  END
> <minimizedAffinity>
23.26857

> <CNNscore>
0.2837155759

> <CNNaffinity>
6.7807655334

> <CNN_VS>
1.9238088131

> <CNNaffinity_variance>
0.3407796919

$$$$
[H]c1nc(-c2c([H])c([H])c(OC([H])([H])C([H])([H])C([H])([H])N3C([H])([H])C([H])([H])C([H])(C([H])([H])c4c([H])nc([H])n4[H])C([H])([H])C3([H])[H])c([H])c2[H])nc([H])c1[H]


 29 32  0  0  0  0  0  0  0  0999 V2000
    9.9719   42.5936  133.0881 C   0  0  0  0  0  0  0  0  0  0  0  0
    9.2924   43.9452  132.9727 C   0  0  0  0  0  0  0  0  0  0  0  0
    9.6078   44.4672  131.7186 O   0  0  0  0  0  0  0  0  0  0  0  0
    8.1151   48.1557  130.2986 C   0  0  0  0  0  0  0  0  0  0  0  0
    7.4792   47.4626  131.3056 C   0  0  0  0  0  0  0  0  0  0  0  0
    7.9692   46.2458  131.7760 C   0  0  0  0  0  0  0  0  0  0  0  0
    9.1136   45.6893  131.2478 C   0  0  0  0  0  0  0  0  0  0  0  0
    9.7461   46.3868  130.2406 C   0  0  0  0  0  0  0  0  0  0  0  0
    9.2598   47.6010  129.7691 C   0  0  0  0  0  0  0  0  0  0  0  0
    6.5951   51.8381  128.9489 C   0  0  0  0  0  0  0  0  0  0  0  0
    6.4608   51.4504  130.2640 C   0  0  0  0  0  0  0  0  0  0  0  0
    6.9616   50.2648  130.6532 N   0  0  0  0  0  0  0  0  0  0  0  0
    7.5944   49.4289  129.8128 C   0  0  0  0  0  0  0  0  0  0  0  0
    7.7223   49.8105  128.5354 N   0  0  0  0  0  0  0  0  0  0  0  0
    7.2389   50.9947  128.0799 C   0  0  0  0  0  0  0  0  0  0  0  0
   10.5830   42.4860  134.4667 C   0  0  0  0  0  0  0  0  0  0  0  0
   11.4474   43.6102  134.7751 N   0  0  0  0  0  0  0  0  0  0  0  0
   11.6829   43.5887  136.2064 C   0  0  0  0  0  0  0  0  0  0  0  0
   12.9151   42.7195  136.4883 C   0  0  0  0  0  0  0  0  0  0  0  0
   14.1058   43.5407  136.0637 C   0  0  0  0  0  0  0  0  0  0  0  0
   13.8547   44.0845  134.6983 C   0  0  0  0  0  0  0  0  0  0  0  0
   12.6711   43.4332  134.0220 C   0  0  0  0  0  0  0  0  0  0  0  0
   15.3972   42.7640  136.1646 C   0  0  0  0  0  0  0  0  0  0  0  0
   15.7851   42.6867  137.5870 C   0  0  0  0  0  0  0  0  0  0  0  0
   16.4383   43.6220  138.3444 C   0  0  0  0  0  0  0  0  0  0  0  0
   16.5889   43.1484  139.5789 N   0  0  0  0  0  0  0  0  0  0  0  0
   16.0436   41.9285  139.6220 C   0  0  0  0  0  0  0  0  0  0  0  0
   15.5558   41.6527  138.4067 N   0  0  0  0  0  0  0  0  0  0  0  0
   15.0652   40.7527  138.1419 H   0  0  0  0  0  0  0  0  0  0  0  0
 10 11  2  0  0  0
 11 12  1  0  0  0
 12 13  2  0  0  0
 13  4  1  0  0  0
  4  5  2  0  0  0
  5  6  1  0  0  0
  6  7  2  0  0  0
  7  3  1  0  0  0
  3  2  1  0  0  0
  2  1  1  0  0  0
  1 16  1  0  0  0
 16 17  1  0  0  0
 17 18  1  0  0  0
 18 19  1  0  0  0
 19 20  1  0  0  0
 20 23  1  0  0  0
 23 24  1  0  0  0
 24 25  2  0  0  0
 25 26  1  0  0  0
 26 27  2  0  0  0
 27 28  1  0  0  0
 20 21  1  0  0  0
 21 22  1  0  0  0
  7  8  1  0  0  0
  8  9  2  0  0  0
 13 14  1  0  0  0
 14 15  2  0  0  0
 15 10  1  0  0  0
  9  4  1  0  0  0
 22 17  1  0  0  0
 28 24  1  0  0  0
 28 29  1  0  0  0
M  END
> <minimizedAffinity>
19.78044

> <CNNscore>
0.3641554415

> <CNNaffinity>
6.5679297447

> <CNN_VS>
2.3917474747

> <CNNaffinity_variance>
0.8422662616

$$$$
[H]c1nc(-c2c([H])c([H])c(OC([H])([H])C([H])([H])C([H])([H])N3C([H])([H])C([H])([H])C([H])(C([H])([H])c4c([H])nc([H])n4[H])C([H])([H])C3([H])[H])c([H])c2[H])nc([H])c1[H]


 29 32  0  0  0  0  0  0  0  0999 V2000
   12.2835   44.7677  128.7671 C   0  0  0  0  0  0  0  0  0  0  0  0
   10.8359   44.9243  129.1937 C   0  0  0  0  0  0  0  0  0  0  0  0
   10.2945   43.6451  129.3168 O   0  0  0  0  0  0  0  0  0  0  0  0
    7.8058   42.4766  132.5246 C   0  0  0  0  0  0  0  0  0  0  0  0
    7.3007   43.1403  131.4277 C   0  0  0  0  0  0  0  0  0  0  0  0
    8.1192   43.5270  130.3682 C   0  0  0  0  0  0  0  0  0  0  0  0
    9.4704   43.2578  130.3799 C   0  0  0  0  0  0  0  0  0  0  0  0
    9.9707   42.5935  131.4795 C   0  0  0  0  0  0  0  0  0  0  0  0
    9.1568   42.2064  132.5382 C   0  0  0  0  0  0  0  0  0  0  0  0
    5.3021   41.2734  135.6831 C   0  0  0  0  0  0  0  0  0  0  0  0
    5.5133   40.4602  134.5914 C   0  0  0  0  0  0  0  0  0  0  0  0
    6.3215   40.8840  133.6039 N   0  0  0  0  0  0  0  0  0  0  0  0
    6.9410   42.0759  133.6291 C   0  0  0  0  0  0  0  0  0  0  0  0
    6.7324   42.8627  134.6926 N   0  0  0  0  0  0  0  0  0  0  0  0
    5.9282   42.4930  135.7222 C   0  0  0  0  0  0  0  0  0  0  0  0
   13.1420   45.6088  129.6843 C   0  0  0  0  0  0  0  0  0  0  0  0
   12.8429   45.3761  131.0852 N   0  0  0  0  0  0  0  0  0  0  0  0
   13.2782   46.5511  131.8164 C   0  0  0  0  0  0  0  0  0  0  0  0
   12.1215   47.5577  131.8616 C   0  0  0  0  0  0  0  0  0  0  0  0
   11.1346   47.0083  132.8599 C   0  0  0  0  0  0  0  0  0  0  0  0
   10.8816   45.5723  132.5482 C   0  0  0  0  0  0  0  0  0  0  0  0
   11.4141   45.1693  131.1931 C   0  0  0  0  0  0  0  0  0  0  0  0
    9.8708   47.8331  132.9230 C   0  0  0  0  0  0  0  0  0  0  0  0
    8.9099   47.2898  131.9425 C   0  0  0  0  0  0  0  0  0  0  0  0
    8.5999   47.7687  130.6976 C   0  0  0  0  0  0  0  0  0  0  0  0
    7.6821   46.9775  130.1475 N   0  0  0  0  0  0  0  0  0  0  0  0
    7.4017   46.0031  131.0191 C   0  0  0  0  0  0  0  0  0  0  0  0
    8.1521   46.1984  132.1099 N   0  0  0  0  0  0  0  0  0  0  0  0
    8.1423   45.5801  132.9693 H   0  0  0  0  0  0  0  0  0  0  0  0
 10 11  2  0  0  0
 11 12  1  0  0  0
 12 13  2  0  0  0
 13  4  1  0  0  0
  4  5  2  0  0  0
  5  6  1  0  0  0
  6  7  2  0  0  0
  7  3  1  0  0  0
  3  2  1  0  0  0
  2  1  1  0  0  0
  1 16  1  0  0  0
 16 17  1  0  0  0
 17 18  1  0  0  0
 18 19  1  0  0  0
 19 20  1  0  0  0
 20 23  1  0  0  0
 23 24  1  0  0  0
 24 25  2  0  0  0
 25 26  1  0  0  0
 26 27  2  0  0  0
 27 28  1  0  0  0
 20 21  1  0  0  0
 21 22  1  0  0  0
  7  8  1  0  0  0
  8  9  2  0  0  0
 13 14  1  0  0  0
 14 15  2  0  0  0
 15 10  1  0  0  0
  9  4  1  0  0  0
 22 17  1  0  0  0
 28 24  1  0  0  0
 28 29  1  0  0  0
M  END
> <minimizedAffinity>
22.34256

> <CNNscore>
0.2554698586

> <CNNaffinity>
7.0404524803

> <CNN_VS>
1.7986234426

> <CNNaffinity_variance>
0.6974498034

$$$$
[H]c1nc(-c2c([H])c([H])c(OC([H])([H])C([H])([H])C([H])([H])N3C([H])([H])C([H])([H])C([H])(C([H])([H])c4c([H])nc([H])n4[H])C([H])([H])C3([H])[H])c([H])c2[H])nc([H])c1[H]


 29 32  0  0  0  0  0  0  0  0999 V2000
   10.8321   42.7496  132.9717 C   0  0  0  0  0  0  0  0  0  0  0  0
   11.1565   41.9216  131.7424 C   0  0  0  0  0  0  0  0  0  0  0  0
   11.2989   42.8016  130.6700 O   0  0  0  0  0  0  0  0  0  0  0  0
    8.4459   45.7632  129.7014 C   0  0  0  0  0  0  0  0  0  0  0  0
    9.7458   45.8428  129.2512 C   0  0  0  0  0  0  0  0  0  0  0  0
   10.6890   44.8674  129.5692 C   0  0  0  0  0  0  0  0  0  0  0  0
   10.3533   43.7826  130.3493 C   0  0  0  0  0  0  0  0  0  0  0  0
    9.0514   43.7076  130.7970 C   0  0  0  0  0  0  0  0  0  0  0  0
    8.1080   44.6790  130.4816 C   0  0  0  0  0  0  0  0  0  0  0  0
    5.6594   48.7514  128.7020 C   0  0  0  0  0  0  0  0  0  0  0  0
    6.9856   48.8660  128.3473 C   0  0  0  0  0  0  0  0  0  0  0  0
    7.8428   47.8872  128.6868 N   0  0  0  0  0  0  0  0  0  0  0  0
    7.4655   46.7894  129.3633 C   0  0  0  0  0  0  0  0  0  0  0  0
    6.1752   46.6828  129.7058 N   0  0  0  0  0  0  0  0  0  0  0  0
    5.2602   47.6358  129.3928 C   0  0  0  0  0  0  0  0  0  0  0  0
   12.0940   43.4539  133.4158 C   0  0  0  0  0  0  0  0  0  0  0  0
   11.8172   44.5895  134.2760 N   0  0  0  0  0  0  0  0  0  0  0  0
   12.2001   45.7829  133.5453 C   0  0  0  0  0  0  0  0  0  0  0  0
   10.9960   46.2643  132.7258 C   0  0  0  0  0  0  0  0  0  0  0  0
   10.0446   46.8865  133.7158 C   0  0  0  0  0  0  0  0  0  0  0  0
    9.8596   45.9501  134.8612 C   0  0  0  0  0  0  0  0  0  0  0  0
   10.4010   44.5689  134.5759 C   0  0  0  0  0  0  0  0  0  0  0  0
    8.7426   47.2991  133.0708 C   0  0  0  0  0  0  0  0  0  0  0  0
    9.0132   48.4214  132.1504 C   0  0  0  0  0  0  0  0  0  0  0  0
   10.1962   48.7687  131.5545 C   0  0  0  0  0  0  0  0  0  0  0  0
    9.9985   49.8468  130.7997 N   0  0  0  0  0  0  0  0  0  0  0  0
    8.7113   50.1927  130.9037 C   0  0  0  0  0  0  0  0  0  0  0  0
    8.1164   49.3215  131.7272 N   0  0  0  0  0  0  0  0  0  0  0  0
    7.0930   49.3467  131.9976 H   0  0  0  0  0  0  0  0  0  0  0  0
 10 11  2  0  0  0
 11 12  1  0  0  0
 12 13  2  0  0  0
 13  4  1  0  0  0
  4  5  2  0  0  0
  5  6  1  0  0  0
  6  7  2  0  0  0
  7  3  1  0  0  0
  3  2  1  0  0  0
  2  1  1  0  0  0
  1 16  1  0  0  0
 16 17  1  0  0  0
 17 18  1  0  0  0
 18 19  1  0  0  0
 19 20  1  0  0  0
 20 23  1  0  0  0
 23 24  1  0  0  0
 24 25  2  0  0  0
 25 26  1  0  0  0
 26 27  2  0  0  0
 27 28  1  0  0  0
 20 21  1  0  0  0
 21 22  1  0  0  0
  7  8  1  0  0  0
  8  9  2  0  0  0
 13 14  1  0  0  0
 14 15  2  0  0  0
 15 10  1  0  0  0
  9  4  1  0  0  0
 22 17  1  0  0  0
 28 24  1  0  0  0
 28 29  1  0  0  0
M  END
> <minimizedAffinity>
-6.39810

> <CNNscore>
0.2393753529

> <CNNaffinity>
7.3818826675

> <CNN_VS>
1.7670407295

> <CNNaffinity_variance>
0.6989382505

$$$$
[H]c1nc(-c2c([H])c([H])c(OC([H])([H])C([H])([H])C([H])([H])N3C([H])([H])C([H])([H])C([H])(C([H])([H])c4c([H])nc([H])n4[H])C([H])([H])C3([H])[H])c([H])c2[H])nc([H])c1[H]


 29 32  0  0  0  0  0  0  0  0999 V2000
   11.8125   46.0894  128.9318 C   0  0  0  0  0  0  0  0  0  0  0  0
   10.8561   45.5225  127.8994 C   0  0  0  0  0  0  0  0  0  0  0  0
   10.7471   44.1526  128.1366 O   0  0  0  0  0  0  0  0  0  0  0  0
    8.7143   42.5282  131.4650 C   0  0  0  0  0  0  0  0  0  0  0  0
    8.0715   43.3406  130.5563 C   0  0  0  0  0  0  0  0  0  0  0  0
    8.7394   43.8779  129.4576 C   0  0  0  0  0  0  0  0  0  0  0  0
   10.0741   43.6142  129.2395 C   0  0  0  0  0  0  0  0  0  0  0  0
   10.7126   42.8008  130.1514 C   0  0  0  0  0  0  0  0  0  0  0  0
   10.0491   42.2633  131.2486 C   0  0  0  0  0  0  0  0  0  0  0  0
    6.7202   40.9244  134.8032 C   0  0  0  0  0  0  0  0  0  0  0  0
    8.0466   41.2900  134.8729 C   0  0  0  0  0  0  0  0  0  0  0  0
    8.6454   41.7987  133.7818 N   0  0  0  0  0  0  0  0  0  0  0  0
    8.0066   41.9705  132.6123 C   0  0  0  0  0  0  0  0  0  0  0  0
    6.7173   41.6135  132.5498 N   0  0  0  0  0  0  0  0  0  0  0  0
    6.0556   41.0942  133.6155 C   0  0  0  0  0  0  0  0  0  0  0  0
   11.5453   45.4043  130.2527 C   0  0  0  0  0  0  0  0  0  0  0  0
   11.2141   46.3472  131.3050 N   0  0  0  0  0  0  0  0  0  0  0  0
   11.1334   47.6601  130.6931 C   0  0  0  0  0  0  0  0  0  0  0  0
    9.6971   47.8865  130.2044 C   0  0  0  0  0  0  0  0  0  0  0  0
    8.8765   48.1497  131.4413 C   0  0  0  0  0  0  0  0  0  0  0  0
    9.1785   47.0975  132.4536 C   0  0  0  0  0  0  0  0  0  0  0  0
    9.9472   45.9346  131.8714 C   0  0  0  0  0  0  0  0  0  0  0  0
    7.4030   48.2690  131.1313 C   0  0  0  0  0  0  0  0  0  0  0  0
    7.2091   49.4160  130.2221 C   0  0  0  0  0  0  0  0  0  0  0  0
    6.8134   50.6903  130.5302 C   0  0  0  0  0  0  0  0  0  0  0  0
    6.7668   51.4095  129.4114 N   0  0  0  0  0  0  0  0  0  0  0  0
    7.1256   50.6169  128.3963 C   0  0  0  0  0  0  0  0  0  0  0  0
    7.3936   49.4046  128.8957 N   0  0  0  0  0  0  0  0  0  0  0  0
    7.7036   48.5696  128.3233 H   0  0  0  0  0  0  0  0  0  0  0  0
 10 11  2  0  0  0
 11 12  1  0  0  0
 12 13  2  0  0  0
 13  4  1  0  0  0
  4  5  2  0  0  0
  5  6  1  0  0  0
  6  7  2  0  0  0
  7  3  1  0  0  0
  3  2  1  0  0  0
  2  1  1  0  0  0
  1 16  1  0  0  0
 16 17  1  0  0  0
 17 18  1  0  0  0
 18 19  1  0  0  0
 19 20  1  0  0  0
 20 23  1  0  0  0
 23 24  1  0  0  0
 24 25  2  0  0  0
 25 26  1  0  0  0
 26 27  2  0  0  0
 27 28  1  0  0  0
 20 21  1  0  0  0
 21 22  1  0  0  0
  7  8  1  0  0  0
  8  9  2  0  0  0
 13 14  1  0  0  0
 14 15  2  0  0  0
 15 10  1  0  0  0
  9  4  1  0  0  0
 22 17  1  0  0  0
 28 24  1  0  0  0
 28 29  1  0  0  0
M  END
> <minimizedAffinity>
7.89593

> <CNNscore>
0.1593913883

> <CNNaffinity>
7.0467329025

> <CNN_VS>
1.1231884956

> <CNNaffinity_variance>
0.1658668965

$$$$
[H]c1nc(-c2c([H])c([H])c(OC([H])([H])C([H])([H])C([H])([H])N3C([H])([H])C([H])([H])C([H])(C([H])([H])c4c([H])nc([H])n4[H])C([H])([H])C3([H])[H])c([H])c2[H])nc([H])c1[H]


 29 32  0  0  0  0  0  0  0  0999 V2000
   11.8658   43.5977  134.0769 C   0  0  0  0  0  0  0  0  0  0  0  0
   11.0757   44.6076  134.8880 C   0  0  0  0  0  0  0  0  0  0  0  0
   11.4644   45.8791  134.4676 O   0  0  0  0  0  0  0  0  0  0  0  0
    9.1883   48.2405  131.8046 C   0  0  0  0  0  0  0  0  0  0  0  0
   10.4242   47.7454  131.4496 C   0  0  0  0  0  0  0  0  0  0  0  0
   11.1773   46.9663  132.3259 C   0  0  0  0  0  0  0  0  0  0  0  0
   10.7099   46.6616  133.5856 C   0  0  0  0  0  0  0  0  0  0  0  0
    9.4728   47.1592  133.9358 C   0  0  0  0  0  0  0  0  0  0  0  0
    8.7190   47.9368  133.0639 C   0  0  0  0  0  0  0  0  0  0  0  0
    6.9567   50.5605  129.0971 C   0  0  0  0  0  0  0  0  0  0  0  0
    7.7645   49.5341  128.6593 C   0  0  0  0  0  0  0  0  0  0  0  0
    8.4608   48.8173  129.5590 N   0  0  0  0  0  0  0  0  0  0  0  0
    8.4073   49.0554  130.8802 C   0  0  0  0  0  0  0  0  0  0  0  0
    7.6206   50.0544  131.3007 N   0  0  0  0  0  0  0  0  0  0  0  0
    6.8925   50.8147  130.4433 C   0  0  0  0  0  0  0  0  0  0  0  0
   10.9104   42.8837  133.1479 C   0  0  0  0  0  0  0  0  0  0  0  0
   11.4504   42.7376  131.8088 N   0  0  0  0  0  0  0  0  0  0  0  0
   10.4409   42.0668  131.0114 C   0  0  0  0  0  0  0  0  0  0  0  0
    9.5194   43.1262  130.3936 C   0  0  0  0  0  0  0  0  0  0  0  0
   10.3126   43.7669  129.2833 C   0  0  0  0  0  0  0  0  0  0  0  0
   11.6584   44.1405  129.8052 C   0  0  0  0  0  0  0  0  0  0  0  0
   11.7383   44.0666  131.3120 C   0  0  0  0  0  0  0  0  0  0  0  0
    9.5770   44.9270  128.6553 C   0  0  0  0  0  0  0  0  0  0  0  0
    8.4583   45.3046  129.5416 C   0  0  0  0  0  0  0  0  0  0  0  0
    8.2757   44.9946  130.8629 C   0  0  0  0  0  0  0  0  0  0  0  0
    7.1328   45.5351  131.2786 N   0  0  0  0  0  0  0  0  0  0  0  0
    6.5839   46.1838  130.2464 C   0  0  0  0  0  0  0  0  0  0  0  0
    7.3952   46.0401  129.1917 N   0  0  0  0  0  0  0  0  0  0  0  0
    7.2167   46.4484  128.2314 H   0  0  0  0  0  0  0  0  0  0  0  0
 10 11  2  0  0  0
 11 12  1  0  0  0
 12 13  2  0  0  0
 13  4  1  0  0  0
  4  5  2  0  0  0
  5  6  1  0  0  0
  6  7  2  0  0  0
  7  3  1  0  0  0
  3  2  1  0  0  0
  2  1  1  0  0  0
  1 16  1  0  0  0
 16 17  1  0  0  0
 17 18  1  0  0  0
 18 19  1  0  0  0
 19 20  1  0  0  0
 20 23  1  0  0  0
 23 24  1  0  0  0
 24 25  2  0  0  0
 25 26  1  0  0  0
 26 27  2  0  0  0
 27 28  1  0  0  0
 20 21  1  0  0  0
 21 22  1  0  0  0
  7  8  1  0  0  0
  8  9  2  0  0  0
 13 14  1  0  0  0
 14 15  2  0  0  0
 15 10  1  0  0  0
  9  4  1  0  0  0
 22 17  1  0  0  0
 28 24  1  0  0  0
 28 29  1  0  0  0
M  END
> <minimizedAffinity>
-6.04900

> <CNNscore>
0.1536923647

> <CNNaffinity>
7.2530508041

> <CNN_VS>
1.1147385836

> <CNNaffinity_variance>
0.5648187399

$$$$
[H]c1nc(-c2c([H])c([H])c(OC([H])([H])C([H])([H])C([H])([H])N3C([H])([H])C([H])([H])C([H])(C([H])([H])c4c([H])nc([H])n4[H])C([H])([H])C3([H])[H])c([H])c2[H])nc([H])c1[H]


 29 32  0  0  0  0  0  0  0  0999 V2000
    9.4407   48.8031  132.2868 C   0  0  0  0  0  0  0  0  0  0  0  0
    8.7438   49.6633  131.2492 C   0  0  0  0  0  0  0  0  0  0  0  0
    7.6785   48.9228  130.7379 O   0  0  0  0  0  0  0  0  0  0  0  0
    4.4626   50.6495  128.6105 C   0  0  0  0  0  0  0  0  0  0  0  0
    5.3751   51.4271  129.2898 C   0  0  0  0  0  0  0  0  0  0  0  0
    6.4368   50.8603  129.9924 C   0  0  0  0  0  0  0  0  0  0  0  0
    6.6128   49.4944  130.0329 C   0  0  0  0  0  0  0  0  0  0  0  0
    5.6972   48.7210  129.3516 C   0  0  0  0  0  0  0  0  0  0  0  0
    4.6369   49.2833  128.6497 C   0  0  0  0  0  0  0  0  0  0  0  0
    1.3019   52.4246  126.4771 C   0  0  0  0  0  0  0  0  0  0  0  0
    2.5839   52.9226  126.3977 C   0  0  0  0  0  0  0  0  0  0  0  0
    3.5648   52.3246  127.0964 N   0  0  0  0  0  0  0  0  0  0  0  0
    3.3543   51.2521  127.8778 C   0  0  0  0  0  0  0  0  0  0  0  0
    2.1062   50.7718  127.9515 N   0  0  0  0  0  0  0  0  0  0  0  0
    1.0725   51.3301  127.2710 C   0  0  0  0  0  0  0  0  0  0  0  0
    9.9382   47.5482  131.6060 C   0  0  0  0  0  0  0  0  0  0  0  0
    8.8603   46.7813  131.0092 N   0  0  0  0  0  0  0  0  0  0  0  0
    9.2526   46.4822  129.6449 C   0  0  0  0  0  0  0  0  0  0  0  0
   10.0340   45.1622  129.6369 C   0  0  0  0  0  0  0  0  0  0  0  0
    9.0092   44.0743  129.8337 C   0  0  0  0  0  0  0  0  0  0  0  0
    8.1378   44.4354  130.9884 C   0  0  0  0  0  0  0  0  0  0  0  0
    8.6950   45.5806  131.8010 C   0  0  0  0  0  0  0  0  0  0  0  0
    9.6461   42.7119  129.9745 C   0  0  0  0  0  0  0  0  0  0  0  0
   10.8082   42.8315  130.8773 C   0  0  0  0  0  0  0  0  0  0  0  0
   11.0919   42.1043  132.0024 C   0  0  0  0  0  0  0  0  0  0  0  0
   12.2400   42.5373  132.5176 N   0  0  0  0  0  0  0  0  0  0  0  0
   12.6931   43.5271  131.7413 C   0  0  0  0  0  0  0  0  0  0  0  0
   11.8174   43.7018  130.7444 N   0  0  0  0  0  0  0  0  0  0  0  0
   11.9149   44.4201  129.9728 H   0  0  0  0  0  0  0  0  0  0  0  0
 10 11  2  0  0  0
 11 12  1  0  0  0
 12 13  2  0  0  0
 13  4  1  0  0  0
  4  5  2  0  0  0
  5  6  1  0  0  0
  6  7  2  0  0  0
  7  3  1  0  0  0
  3  2  1  0  0  0
  2  1  1  0  0  0
  1 16  1  0  0  0
 16 17  1  0  0  0
 17 18  1  0  0  0
 18 19  1  0  0  0
 19 20  1  0  0  0
 20 23  1  0  0  0
 23 24  1  0  0  0
 24 25  2  0  0  0
 25 26  1  0  0  0
 26 27  2  0  0  0
 27 28  1  0  0  0
 20 21  1  0  0  0
 21 22  1  0  0  0
  7  8  1  0  0  0
  8  9  2  0  0  0
 13 14  1  0  0  0
 14 15  2  0  0  0
 15 10  1  0  0  0
  9  4  1  0  0  0
 22 17  1  0  0  0
 28 24  1  0  0  0
 28 29  1  0  0  0
M  END
> <minimizedAffinity>
9.35704

> <CNNscore>
0.1532341242

> <CNNaffinity>
6.8604216576

> <CNN_VS>
1.0512506962

> <CNNaffinity_variance>
0.2597170472

$$$$
[H]c1nc(-c2c([H])c([H])c(OC([H])([H])C([H])([H])C([H])([H])N3C([H])([H])C([H])([H])C([H])(C([H])([H])c4c([H])nc([H])n4[H])C([H])([H])C3([H])[H])c([H])c2[H])nc([H])c1[H]


 29 32  0  0  0  0  0  0  0  0999 V2000
   11.6295   43.4151  133.1078 C   0  0  0  0  0  0  0  0  0  0  0  0
   11.4860   44.1916  134.4034 C   0  0  0  0  0  0  0  0  0  0  0  0
   11.8220   45.5184  134.1363 O   0  0  0  0  0  0  0  0  0  0  0  0
    9.3929   48.1134  131.8528 C   0  0  0  0  0  0  0  0  0  0  0  0
    9.0543   47.7594  133.1407 C   0  0  0  0  0  0  0  0  0  0  0  0
    9.8535   46.9036  133.8963 C   0  0  0  0  0  0  0  0  0  0  0  0
   11.0175   46.3781  133.3793 C   0  0  0  0  0  0  0  0  0  0  0  0
   11.3519   46.7355  132.0904 C   0  0  0  0  0  0  0  0  0  0  0  0
   10.5567   47.5890  131.3339 C   0  0  0  0  0  0  0  0  0  0  0  0
    6.9966   50.6932  129.5517 C   0  0  0  0  0  0  0  0  0  0  0  0
    8.1471   50.1387  129.0352 C   0  0  0  0  0  0  0  0  0  0  0  0
    8.8838   49.3191  129.8054 N   0  0  0  0  0  0  0  0  0  0  0  0
    8.5497   49.0100  131.0695 C   0  0  0  0  0  0  0  0  0  0  0  0
    7.4303   49.5515  131.5670 N   0  0  0  0  0  0  0  0  0  0  0  0
    6.6433   50.3862  130.8409 C   0  0  0  0  0  0  0  0  0  0  0  0
   10.3419   42.6624  132.8607 C   0  0  0  0  0  0  0  0  0  0  0  0
   10.0889   42.4534  131.4470 N   0  0  0  0  0  0  0  0  0  0  0  0
    8.6751   42.6919  131.2256 C   0  0  0  0  0  0  0  0  0  0  0  0
    8.4707   44.1808  130.9182 C   0  0  0  0  0  0  0  0  0  0  0  0
    8.9696   44.3843  129.5103 C   0  0  0  0  0  0  0  0  0  0  0  0
   10.3168   43.7588  129.3807 C   0  0  0  0  0  0  0  0  0  0  0  0
   10.9171   43.3899  130.7171 C   0  0  0  0  0  0  0  0  0  0  0  0
    8.9495   45.8391  129.1047 C   0  0  0  0  0  0  0  0  0  0  0  0
    7.5787   46.3557  129.2888 C   0  0  0  0  0  0  0  0  0  0  0  0
    6.7332   46.1698  130.3498 C   0  0  0  0  0  0  0  0  0  0  0  0
    5.5916   46.8101  130.1087 N   0  0  0  0  0  0  0  0  0  0  0  0
    5.6945   47.4005  128.9135 C   0  0  0  0  0  0  0  0  0  0  0  0
    6.9061   47.1204  128.4191 N   0  0  0  0  0  0  0  0  0  0  0  0
    7.2697   47.4559  127.4831 H   0  0  0  0  0  0  0  0  0  0  0  0
 10 11  2  0  0  0
 11 12  1  0  0  0
 12 13  2  0  0  0
 13  4  1  0  0  0
  4  5  2  0  0  0
  5  6  1  0  0  0
  6  7  2  0  0  0
  7  3  1  0  0  0
  3  2  1  0  0  0
  2  1  1  0  0  0
  1 16  1  0  0  0
 16 17  1  0  0  0
 17 18  1  0  0  0
 18 19  1  0  0  0
 19 20  1  0  0  0
 20 23  1  0  0  0
 23 24  1  0  0  0
 24 25  2  0  0  0
 25 26  1  0  0  0
 26 27  2  0  0  0
 27 28  1  0  0  0
 20 21  1  0  0  0
 21 22  1  0  0  0
  7  8  1  0  0  0
  8  9  2  0  0  0
 13 14  1  0  0  0
 14 15  2  0  0  0
 15 10  1  0  0  0
  9  4  1  0  0  0
 22 17  1  0  0  0
 28 24  1  0  0  0
 28 29  1  0  0  0
M  END
> <minimizedAffinity>
-5.44883

> <CNNscore>
0.1527719349

> <CNNaffinity>
7.2574586868

> <CNN_VS>
1.1087360382

> <CNNaffinity_variance>
0.4958381653

$$$$
[H]c1nc(-c2c([H])c([H])c(OC([H])([H])C([H])([H])C([H])([H])N3C([H])([H])C([H])([H])C([H])(C([H])([H])c4c([H])nc([H])n4[H])C([H])([H])C3([H])[H])c([H])c2[H])nc([H])c1[H]


 29 32  0  0  0  0  0  0  0  0999 V2000
    8.3522   43.3493  130.5335 C   0  0  0  0  0  0  0  0  0  0  0  0
    8.5944   42.4820  131.7546 C   0  0  0  0  0  0  0  0  0  0  0  0
    9.9630   42.5065  132.0214 O   0  0  0  0  0  0  0  0  0  0  0  0
   11.8736   45.6698  134.0689 C   0  0  0  0  0  0  0  0  0  0  0  0
   12.5970   44.6859  133.4306 C   0  0  0  0  0  0  0  0  0  0  0  0
   11.9695   43.6413  132.7545 C   0  0  0  0  0  0  0  0  0  0  0  0
   10.5955   43.5548  132.6999 C   0  0  0  0  0  0  0  0  0  0  0  0
    9.8764   44.5416  133.3401 C   0  0  0  0  0  0  0  0  0  0  0  0
   10.4994   45.5851  134.0155 C   0  0  0  0  0  0  0  0  0  0  0  0
   13.8407   48.7820  136.1029 C   0  0  0  0  0  0  0  0  0  0  0  0
   14.5041   47.6253  135.7570 C   0  0  0  0  0  0  0  0  0  0  0  0
   13.8370   46.6553  135.1072 N   0  0  0  0  0  0  0  0  0  0  0  0
   12.5395   46.7594  134.7743 C   0  0  0  0  0  0  0  0  0  0  0  0
   11.8992   47.8860  135.1127 N   0  0  0  0  0  0  0  0  0  0  0  0
   12.5158   48.9020  135.7692 C   0  0  0  0  0  0  0  0  0  0  0  0
    9.3582   42.9659  129.4721 C   0  0  0  0  0  0  0  0  0  0  0  0
    9.7058   44.0831  128.6136 N   0  0  0  0  0  0  0  0  0  0  0  0
    8.4911   44.8437  128.3885 C   0  0  0  0  0  0  0  0  0  0  0  0
    8.3571   45.8945  129.4980 C   0  0  0  0  0  0  0  0  0  0  0  0
    9.3701   46.9642  129.1785 C   0  0  0  0  0  0  0  0  0  0  0  0
   10.6837   46.3166  128.8988 C   0  0  0  0  0  0  0  0  0  0  0  0
   10.7122   44.8615  129.3044 C   0  0  0  0  0  0  0  0  0  0  0  0
    9.4458   48.0166  130.2593 C   0  0  0  0  0  0  0  0  0  0  0  0
    8.3804   49.0099  130.0184 C   0  0  0  0  0  0  0  0  0  0  0  0
    7.8376   49.9078  130.8983 C   0  0  0  0  0  0  0  0  0  0  0  0
    6.9027   50.6163  130.2696 N   0  0  0  0  0  0  0  0  0  0  0  0
    6.8401   50.1862  129.0052 C   0  0  0  0  0  0  0  0  0  0  0  0
    7.7418   49.2083  128.8581 N   0  0  0  0  0  0  0  0  0  0  0  0
    7.9173   48.6778  127.9588 H   0  0  0  0  0  0  0  0  0  0  0  0
 10 11  2  0  0  0
 11 12  1  0  0  0
 12 13  2  0  0  0
 13  4  1  0  0  0
  4  5  2  0  0  0
  5  6  1  0  0  0
  6  7  2  0  0  0
  7  3  1  0  0  0
  3  2  1  0  0  0
  2  1  1  0  0  0
  1 16  1  0  0  0
 16 17  1  0  0  0
 17 18  1  0  0  0
 18 19  1  0  0  0
 19 20  1  0  0  0
 20 23  1  0  0  0
 23 24  1  0  0  0
 24 25  2  0  0  0
 25 26  1  0  0  0
 26 27  2  0  0  0
 27 28  1  0  0  0
 20 21  1  0  0  0
 21 22  1  0  0  0
  7  8  1  0  0  0
  8  9  2  0  0  0
 13 14  1  0  0  0
 14 15  2  0  0  0
 15 10  1  0  0  0
  9  4  1  0  0  0
 22 17  1  0  0  0
 28 24  1  0  0  0
 28 29  1  0  0  0
M  END
> <minimizedAffinity>
4.47880

> <CNNscore>
0.1492767483

> <CNNaffinity>
7.2317991257

> <CNN_VS>
1.0795394182

> <CNNaffinity_variance>
0.5293036699

$$$$
[H]c1nc(-c2c([H])c([H])c(OC([H])([H])C([H])([H])C([H])([H])N3C([H])([H])C([H])([H])C([H])(C([H])([H])c4c([H])nc([H])n4[H])C([H])([H])C3([H])[H])c([H])c2[H])nc([H])c1[H]


 29 32  0  0  0  0  0  0  0  0999 V2000
    9.1303   48.1360  132.8032 C   0  0  0  0  0  0  0  0  0  0  0  0
    8.5695   48.4970  131.4404 C   0  0  0  0  0  0  0  0  0  0  0  0
    7.8791   49.7010  131.5768 O   0  0  0  0  0  0  0  0  0  0  0  0
    7.5413   52.5470  128.4728 C   0  0  0  0  0  0  0  0  0  0  0  0
    7.0581   51.2647  128.3280 C   0  0  0  0  0  0  0  0  0  0  0  0
    7.1682   50.3238  129.3501 C   0  0  0  0  0  0  0  0  0  0  0  0
    7.7674   50.6443  130.5487 C   0  0  0  0  0  0  0  0  0  0  0  0
    8.2491   51.9285  130.6885 C   0  0  0  0  0  0  0  0  0  0  0  0
    8.1409   52.8696  129.6707 C   0  0  0  0  0  0  0  0  0  0  0  0
    7.1486   55.3851  125.3933 C   0  0  0  0  0  0  0  0  0  0  0  0
    6.2096   55.2873  126.3966 C   0  0  0  0  0  0  0  0  0  0  0  0
    6.3740   54.3657  127.3618 N   0  0  0  0  0  0  0  0  0  0  0  0
    7.4216   53.5251  127.3970 C   0  0  0  0  0  0  0  0  0  0  0  0
    8.3315   53.6243  126.4194 N   0  0  0  0  0  0  0  0  0  0  0  0
    8.2232   54.5333  125.4167 C   0  0  0  0  0  0  0  0  0  0  0  0
    9.4871   46.6669  132.7953 C   0  0  0  0  0  0  0  0  0  0  0  0
    8.8039   45.9400  131.7413 N   0  0  0  0  0  0  0  0  0  0  0  0
    9.5107   46.2149  130.5046 C   0  0  0  0  0  0  0  0  0  0  0  0
   10.6248   45.1742  130.3341 C   0  0  0  0  0  0  0  0  0  0  0  0
    9.9365   43.8938  129.9352 C   0  0  0  0  0  0  0  0  0  0  0  0
    8.8003   43.6458  130.8682 C   0  0  0  0  0  0  0  0  0  0  0  0
    8.8459   44.5352  132.0886 C   0  0  0  0  0  0  0  0  0  0  0  0
   10.8994   42.7330  129.8513 C   0  0  0  0  0  0  0  0  0  0  0  0
   11.7225   42.7204  131.0769 C   0  0  0  0  0  0  0  0  0  0  0  0
   12.1285   41.6441  131.8199 C   0  0  0  0  0  0  0  0  0  0  0  0
   12.8563   42.0784  132.8460 N   0  0  0  0  0  0  0  0  0  0  0  0
   12.9214   43.4116  132.7704 C   0  0  0  0  0  0  0  0  0  0  0  0
   12.2294   43.7969  131.6916 N   0  0  0  0  0  0  0  0  0  0  0  0
   12.1064   44.8008  131.3788 H   0  0  0  0  0  0  0  0  0  0  0  0
 10 11  2  0  0  0
 11 12  1  0  0  0
 12 13  2  0  0  0
 13  4  1  0  0  0
  4  5  2  0  0  0
  5  6  1  0  0  0
  6  7  2  0  0  0
  7  3  1  0  0  0
  3  2  1  0  0  0
  2  1  1  0  0  0
  1 16  1  0  0  0
 16 17  1  0  0  0
 17 18  1  0  0  0
 18 19  1  0  0  0
 19 20  1  0  0  0
 20 23  1  0  0  0
 23 24  1  0  0  0
 24 25  2  0  0  0
 25 26  1  0  0  0
 26 27  2  0  0  0
 27 28  1  0  0  0
 20 21  1  0  0  0
 21 22  1  0  0  0
  7  8  1  0  0  0
  8  9  2  0  0  0
 13 14  1  0  0  0
 14 15  2  0  0  0
 15 10  1  0  0  0
  9  4  1  0  0  0
 22 17  1  0  0  0
 28 24  1  0  0  0
 28 29  1  0  0  0
M  END
> <minimizedAffinity>
11.85370

> <CNNscore>
0.1392851919

> <CNNaffinity>
6.5485291481

> <CNN_VS>
0.9121131301

> <CNNaffinity_variance>
0.5775552392

$$$$
[H]OC(=O)[C@]1([H])N([H])[C@@]([H])(C([H])([H])C([H])([H])c2c([H])c([H])c([H])c([H])c2[H])C(=O)N([H])[C@]([H])(C(=O)N([H])C([H])([H])[H])C([H])([H])C([H])([H])C(=O)OC([H])([H])C([H])([H])N([H])C(=O)C([H])([H])C1([H])[H]


 39 40  0  0  0  0  0  0  0  0999 V2000
    9.6314   44.1816  132.8175 C   0  0  0  0  0  0  0  0  0  0  0  0
    8.8672   44.5142  131.5785 C   0  0  0  0  0  0  0  0  0  0  0  0
    8.5716   43.3979  130.6395 C   0  0  0  0  0  0  0  0  0  0  0  0
    8.7637   43.8588  129.2156 C   0  0  0  0  0  0  0  0  0  0  0  0
    9.8909   43.5766  128.6826 O   0  0  0  0  0  0  0  0  0  0  0  0
    7.8229   44.5385  128.4979 O   0  0  0  0  0  0  0  0  0  0  0  0
    7.1070   45.6757  128.8304 C   0  0  0  0  0  0  0  0  0  0  0  0
    7.7410   46.9799  128.3461 C   0  0  0  0  0  0  0  0  0  0  0  0
    7.1746   48.0623  129.1026 N   0  0  0  0  0  0  0  0  0  0  0  0
    7.7860   49.3006  129.4001 C   0  0  0  0  0  0  0  0  0  0  0  0
    7.1414   50.3955  129.2472 O   0  0  0  0  0  0  0  0  0  0  0  0
    9.1863   49.4525  129.9016 C   0  0  0  0  0  0  0  0  0  0  0  0
    9.5447   48.3908  130.8893 C   0  0  0  0  0  0  0  0  0  0  0  0
    9.2406   48.7196  132.3356 C   0  0  0  0  0  0  0  0  0  0  0  0
    9.6941   47.6254  133.1440 N   0  0  0  0  0  0  0  0  0  0  0  0
   11.0485   47.2890  133.1924 C   0  0  0  0  0  0  0  0  0  0  0  0
   11.4468   45.9965  132.5686 C   0  0  0  0  0  0  0  0  0  0  0  0
   12.3561   46.0969  131.6712 O   0  0  0  0  0  0  0  0  0  0  0  0
   10.9851   44.7162  132.8162 N   0  0  0  0  0  0  0  0  0  0  0  0
    6.1912   47.9286  129.4800 H   0  0  0  0  0  0  0  0  0  0  0  0
    9.1109   47.5441  133.9736 H   0  0  0  0  0  0  0  0  0  0  0  0
   11.7232   43.9697  133.0483 H   0  0  0  0  0  0  0  0  0  0  0  0
    8.5057   40.7915  134.2185 C   0  0  0  0  0  0  0  0  0  0  0  0
    8.5706   42.1982  133.9136 N   0  0  0  0  0  0  0  0  0  0  0  0
    9.5875   42.7401  133.1148 C   0  0  0  0  0  0  0  0  0  0  0  0
   10.4629   41.9904  132.6530 O   0  0  0  0  0  0  0  0  0  0  0  0
    7.8388   42.8302  134.2999 H   0  0  0  0  0  0  0  0  0  0  0  0
    9.6931   50.0527  132.7267 C   0  0  0  0  0  0  0  0  0  0  0  0
   10.4181   50.3433  133.7056 O   0  0  0  0  0  0  0  0  0  0  0  0
    9.2665   51.1239  131.9202 O   0  0  0  0  0  0  0  0  0  0  0  0
    8.4507   51.6169  132.2576 H   0  0  0  0  0  0  0  0  0  0  0  0
   11.6518   47.3801  134.5989 C   0  0  0  0  0  0  0  0  0  0  0  0
   13.1225   47.1382  134.5837 C   0  0  0  0  0  0  0  0  0  0  0  0
   13.8000   47.7672  135.7617 C   0  0  0  0  0  0  0  0  0  0  0  0
   13.3141   48.8705  136.3939 C   0  0  0  0  0  0  0  0  0  0  0  0
   14.0321   49.3596  137.4786 C   0  0  0  0  0  0  0  0  0  0  0  0
   15.1991   48.7635  137.9162 C   0  0  0  0  0  0  0  0  0  0  0  0
   15.6784   47.6493  137.2678 C   0  0  0  0  0  0  0  0  0  0  0  0
   14.9627   47.1705  136.1950 C   0  0  0  0  0  0  0  0  0  0  0  0
 23 24  1  0  0  0
 24 25  1  0  0  0
 25 26  2  0  0  0
 25  1  1  0  0  0
  1  2  1  0  0  0
  2  3  1  0  0  0
  3  4  1  0  0  0
  4  5  2  0  0  0
  4  6  1  0  0  0
  6  7  1  0  0  0
  7  8  1  0  0  0
  8  9  1  0  0  0
  9 10  1  0  0  0
 10 11  2  0  0  0
 10 12  1  0  0  0
 12 13  1  0  0  0
 13 14  1  0  0  0
 14 28  1  0  0  0
 28 29  2  0  0  0
 28 30  1  0  0  0
 14 15  1  0  0  0
 15 16  1  0  0  0
 16 32  1  0  0  0
 32 33  1  0  0  0
 33 34  1  0  0  0
 34 35  2  0  0  0
 35 36  1  0  0  0
 36 37  2  0  0  0
 37 38  1  0  0  0
 38 39  2  0  0  0
 16 17  1  0  0  0
 17 18  2  0  0  0
 17 19  1  0  0  0
 19  1  1  0  0  0
 39 34  1  0  0  0
 24 27  1  0  0  0
  9 20  1  0  0  0
 30 31  1  0  0  0
 15 21  1  0  0  0
 19 22  1  0  0  0
M  END
> <minimizedAffinity>
15.43161

> <CNNscore>
0.4470186532

> <CNNaffinity>
6.9940843582

> <CNN_VS>
3.1264860630

> <CNNaffinity_variance>
1.1635392904

$$$$
[H]OC(=O)[C@]1([H])N([H])[C@@]([H])(C([H])([H])C([H])([H])c2c([H])c([H])c([H])c([H])c2[H])C(=O)N([H])[C@]([H])(C(=O)N([H])C([H])([H])[H])C([H])([H])C([H])([H])C(=O)OC([H])([H])C([H])([H])N([H])C(=O)C([H])([H])C1([H])[H]


 39 40  0  0  0  0  0  0  0  0999 V2000
   10.7052   45.0614  133.6408 C   0  0  0  0  0  0  0  0  0  0  0  0
    9.9642   44.4877  132.4783 C   0  0  0  0  0  0  0  0  0  0  0  0
   10.2694   43.0802  132.1026 C   0  0  0  0  0  0  0  0  0  0  0  0
   10.3360   42.9515  130.6006 C   0  0  0  0  0  0  0  0  0  0  0  0
   11.5049   42.9998  130.0853 O   0  0  0  0  0  0  0  0  0  0  0  0
    9.2445   42.7918  129.7973 O   0  0  0  0  0  0  0  0  0  0  0  0
    8.0724   43.5262  129.7403 C   0  0  0  0  0  0  0  0  0  0  0  0
    8.0865   44.6504  128.7041 C   0  0  0  0  0  0  0  0  0  0  0  0
    7.0418   45.5795  129.0356 N   0  0  0  0  0  0  0  0  0  0  0  0
    7.0092   46.9604  128.7396 C   0  0  0  0  0  0  0  0  0  0  0  0
    5.9545   47.4938  128.2487 O   0  0  0  0  0  0  0  0  0  0  0  0
    8.1522   47.8988  128.9596 C   0  0  0  0  0  0  0  0  0  0  0  0
    8.8770   47.6083  130.2329 C   0  0  0  0  0  0  0  0  0  0  0  0
    8.3547   48.3301  131.4570 C   0  0  0  0  0  0  0  0  0  0  0  0
    9.1917   47.9819  132.5681 N   0  0  0  0  0  0  0  0  0  0  0  0
   10.5456   48.3236  132.5747 C   0  0  0  0  0  0  0  0  0  0  0  0
   11.5253   47.2069  132.4681 C   0  0  0  0  0  0  0  0  0  0  0  0
   12.3547   47.3177  131.4974 O   0  0  0  0  0  0  0  0  0  0  0  0
   11.6710   46.0805  133.2578 N   0  0  0  0  0  0  0  0  0  0  0  0
    6.1988   45.1971  129.5557 H   0  0  0  0  0  0  0  0  0  0  0  0
    8.6492   48.0010  133.4284 H   0  0  0  0  0  0  0  0  0  0  0  0
   12.6468   45.8996  133.6713 H   0  0  0  0  0  0  0  0  0  0  0  0
   11.5871   42.9357  136.7111 C   0  0  0  0  0  0  0  0  0  0  0  0
   11.0256   43.9557  135.8624 N   0  0  0  0  0  0  0  0  0  0  0  0
   11.2917   44.0086  134.4869 C   0  0  0  0  0  0  0  0  0  0  0  0
   12.0340   43.1533  133.9777 O   0  0  0  0  0  0  0  0  0  0  0  0
   10.4035   44.6752  136.2861 H   0  0  0  0  0  0  0  0  0  0  0  0
    8.1312   49.7559  131.2287 C   0  0  0  0  0  0  0  0  0  0  0  0
    7.0377   50.3159  130.9860 O   0  0  0  0  0  0  0  0  0  0  0  0
    9.2649   50.5875  131.2844 O   0  0  0  0  0  0  0  0  0  0  0  0
    9.6826   50.8043  130.3893 H   0  0  0  0  0  0  0  0  0  0  0  0
   10.9410   49.2351  133.7423 C   0  0  0  0  0  0  0  0  0  0  0  0
   10.9731   48.4921  135.0341 C   0  0  0  0  0  0  0  0  0  0  0  0
   12.3696   48.3443  135.5540 C   0  0  0  0  0  0  0  0  0  0  0  0
   13.2340   47.3973  135.0970 C   0  0  0  0  0  0  0  0  0  0  0  0
   14.5056   47.3623  135.6567 C   0  0  0  0  0  0  0  0  0  0  0  0
   14.8990   48.2468  136.6424 C   0  0  0  0  0  0  0  0  0  0  0  0
   14.0151   49.1985  137.0946 C   0  0  0  0  0  0  0  0  0  0  0  0
   12.7582   49.2275  136.5362 C   0  0  0  0  0  0  0  0  0  0  0  0
 23 24  1  0  0  0
 24 25  1  0  0  0
 25 26  2  0  0  0
 25  1  1  0  0  0
  1  2  1  0  0  0
  2  3  1  0  0  0
  3  4  1  0  0  0
  4  5  2  0  0  0
  4  6  1  0  0  0
  6  7  1  0  0  0
  7  8  1  0  0  0
  8  9  1  0  0  0
  9 10  1  0  0  0
 10 11  2  0  0  0
 10 12  1  0  0  0
 12 13  1  0  0  0
 13 14  1  0  0  0
 14 28  1  0  0  0
 28 29  2  0  0  0
 28 30  1  0  0  0
 14 15  1  0  0  0
 15 16  1  0  0  0
 16 32  1  0  0  0
 32 33  1  0  0  0
 33 34  1  0  0  0
 34 35  2  0  0  0
 35 36  1  0  0  0
 36 37  2  0  0  0
 37 38  1  0  0  0
 38 39  2  0  0  0
 16 17  1  0  0  0
 17 18  2  0  0  0
 17 19  1  0  0  0
 19  1  1  0  0  0
 39 34  1  0  0  0
 24 27  1  0  0  0
  9 20  1  0  0  0
 30 31  1  0  0  0
 15 21  1  0  0  0
 19 22  1  0  0  0
M  END
> <minimizedAffinity>
15.43541

> <CNNscore>
0.4455406368

> <CNNaffinity>
7.0177192688

> <CNN_VS>
3.1266791821

> <CNNaffinity_variance>
0.7989107966

$$$$
[H]OC(=O)[C@]1([H])N([H])[C@@]([H])(C([H])([H])C([H])([H])c2c([H])c([H])c([H])c([H])c2[H])C(=O)N([H])[C@]([H])(C(=O)N([H])C([H])([H])[H])C([H])([H])C([H])([H])C(=O)OC([H])([H])C([H])([H])N([H])C(=O)C([H])([H])C1([H])[H]


 39 40  0  0  0  0  0  0  0  0999 V2000
    8.7794   48.2933  131.0674 C   0  0  0  0  0  0  0  0  0  0  0  0
    9.0474   47.7165  132.4184 C   0  0  0  0  0  0  0  0  0  0  0  0
    9.4866   48.6560  133.4859 C   0  0  0  0  0  0  0  0  0  0  0  0
   10.5816   48.0236  134.3093 C   0  0  0  0  0  0  0  0  0  0  0  0
   11.7778   48.3413  133.9894 O   0  0  0  0  0  0  0  0  0  0  0  0
   10.3602   47.1594  135.3420 O   0  0  0  0  0  0  0  0  0  0  0  0
    9.5854   46.0131  135.3862 C   0  0  0  0  0  0  0  0  0  0  0  0
   10.3539   44.7250  135.0904 C   0  0  0  0  0  0  0  0  0  0  0  0
    9.4039   43.7065  134.7372 N   0  0  0  0  0  0  0  0  0  0  0  0
    9.6285   42.5896  133.9019 C   0  0  0  0  0  0  0  0  0  0  0  0
    9.2352   41.4246  134.2569 O   0  0  0  0  0  0  0  0  0  0  0  0
   10.3179   42.6508  132.5766 C   0  0  0  0  0  0  0  0  0  0  0  0
    9.9353   43.8701  131.8032 C   0  0  0  0  0  0  0  0  0  0  0  0
    8.7272   43.7164  130.9038 C   0  0  0  0  0  0  0  0  0  0  0  0
    8.5365   44.9523  130.2020 N   0  0  0  0  0  0  0  0  0  0  0  0
    9.5081   45.4271  129.3186 C   0  0  0  0  0  0  0  0  0  0  0  0
   10.2489   46.6539  129.7241 C   0  0  0  0  0  0  0  0  0  0  0  0
   11.5234   46.5221  129.7484 O   0  0  0  0  0  0  0  0  0  0  0  0
    9.7669   47.9031  130.0720 N   0  0  0  0  0  0  0  0  0  0  0  0
    8.4269   43.7914  135.1444 H   0  0  0  0  0  0  0  0  0  0  0  0
    7.5477   45.0888  130.0055 H   0  0  0  0  0  0  0  0  0  0  0  0
   10.1684   48.7452  129.5376 H   0  0  0  0  0  0  0  0  0  0  0  0
    7.2961   51.7831  130.4804 C   0  0  0  0  0  0  0  0  0  0  0  0
    7.5175   50.3600  130.4372 N   0  0  0  0  0  0  0  0  0  0  0  0
    8.5747   49.7503  131.1273 C   0  0  0  0  0  0  0  0  0  0  0  0
    9.3485   50.4525  131.7981 O   0  0  0  0  0  0  0  0  0  0  0  0
    6.8713   49.7680  129.8749 H   0  0  0  0  0  0  0  0  0  0  0  0
    8.7696   42.5030  130.0909 C   0  0  0  0  0  0  0  0  0  0  0  0
    9.5901   42.2342  129.1839 O   0  0  0  0  0  0  0  0  0  0  0  0
    7.7821   41.5354  130.3525 O   0  0  0  0  0  0  0  0  0  0  0  0
    6.9758   41.5692  129.7431 H   0  0  0  0  0  0  0  0  0  0  0  0
    8.9999   45.5935  127.8818 C   0  0  0  0  0  0  0  0  0  0  0  0
    8.5802   46.9967  127.6054 C   0  0  0  0  0  0  0  0  0  0  0  0
    7.2886   47.3330  128.2845 C   0  0  0  0  0  0  0  0  0  0  0  0
    6.6286   46.4608  129.0949 C   0  0  0  0  0  0  0  0  0  0  0  0
    5.4392   46.8910  129.6707 C   0  0  0  0  0  0  0  0  0  0  0  0
    4.9269   48.1536  129.4424 C   0  0  0  0  0  0  0  0  0  0  0  0
    5.6044   49.0243  128.6213 C   0  0  0  0  0  0  0  0  0  0  0  0
    6.7811   48.5920  128.0547 C   0  0  0  0  0  0  0  0  0  0  0  0
 23 24  1  0  0  0
 24 25  1  0  0  0
 25 26  2  0  0  0
 25  1  1  0  0  0
  1  2  1  0  0  0
  2  3  1  0  0  0
  3  4  1  0  0  0
  4  5  2  0  0  0
  4  6  1  0  0  0
  6  7  1  0  0  0
  7  8  1  0  0  0
  8  9  1  0  0  0
  9 10  1  0  0  0
 10 11  2  0  0  0
 10 12  1  0  0  0
 12 13  1  0  0  0
 13 14  1  0  0  0
 14 28  1  0  0  0
 28 29  2  0  0  0
 28 30  1  0  0  0
 14 15  1  0  0  0
 15 16  1  0  0  0
 16 32  1  0  0  0
 32 33  1  0  0  0
 33 34  1  0  0  0
 34 35  2  0  0  0
 35 36  1  0  0  0
 36 37  2  0  0  0
 37 38  1  0  0  0
 38 39  2  0  0  0
 16 17  1  0  0  0
 17 18  2  0  0  0
 17 19  1  0  0  0
 19  1  1  0  0  0
 39 34  1  0  0  0
 24 27  1  0  0  0
  9 20  1  0  0  0
 30 31  1  0  0  0
 15 21  1  0  0  0
 19 22  1  0  0  0
M  END
> <minimizedAffinity>
7.47507

> <CNNscore>
0.4454297423

> <CNNaffinity>
7.3765993118

> <CNN_VS>
3.2857568264

> <CNNaffinity_variance>
1.3640511036

$$$$
[H]OC(=O)[C@]1([H])N([H])[C@@]([H])(C([H])([H])C([H])([H])c2c([H])c([H])c([H])c([H])c2[H])C(=O)N([H])[C@]([H])(C(=O)N([H])C([H])([H])[H])C([H])([H])C([H])([H])C(=O)OC([H])([H])C([H])([H])N([H])C(=O)C([H])([H])C1([H])[H]


 39 40  0  0  0  0  0  0  0  0999 V2000
    9.3214   48.2155  132.1554 C   0  0  0  0  0  0  0  0  0  0  0  0
    9.5097   47.7484  130.7496 C   0  0  0  0  0  0  0  0  0  0  0  0
    9.3157   48.7506  129.6665 C   0  0  0  0  0  0  0  0  0  0  0  0
    8.5682   48.1250  128.5146 C   0  0  0  0  0  0  0  0  0  0  0  0
    7.3069   48.3319  128.4866 O   0  0  0  0  0  0  0  0  0  0  0  0
    9.1565   47.3757  127.5375 O   0  0  0  0  0  0  0  0  0  0  0  0
   10.0112   46.2922  127.6468 C   0  0  0  0  0  0  0  0  0  0  0  0
    9.3096   44.9342  127.6133 C   0  0  0  0  0  0  0  0  0  0  0  0
   10.2046   43.9530  128.1619 N   0  0  0  0  0  0  0  0  0  0  0  0
    9.8495   42.7518  128.8150 C   0  0  0  0  0  0  0  0  0  0  0  0
   10.4325   41.6530  128.5140 O   0  0  0  0  0  0  0  0  0  0  0  0
    8.8031   42.6454  129.8776 C   0  0  0  0  0  0  0  0  0  0  0  0
    8.8332   43.8113  130.8108 C   0  0  0  0  0  0  0  0  0  0  0  0
    9.7377   43.6564  132.0150 C   0  0  0  0  0  0  0  0  0  0  0  0
    9.6042   44.8327  132.8242 N   0  0  0  0  0  0  0  0  0  0  0  0
    8.3796   45.1590  133.4103 C   0  0  0  0  0  0  0  0  0  0  0  0
    7.6803   46.3659  132.8882 C   0  0  0  0  0  0  0  0  0  0  0  0
    6.4849   46.1525  132.4786 O   0  0  0  0  0  0  0  0  0  0  0  0
    8.1274   47.6709  132.7846 N   0  0  0  0  0  0  0  0  0  0  0  0
   11.2458   44.1396  128.0690 H   0  0  0  0  0  0  0  0  0  0  0  0
   10.4771   45.0160  133.3136 H   0  0  0  0  0  0  0  0  0  0  0  0
    7.5138   48.4320  133.2321 H   0  0  0  0  0  0  0  0  0  0  0  0
   10.0233   51.7306  133.5244 C   0  0  0  0  0  0  0  0  0  0  0  0
    9.9334   50.2980  133.4001 N   0  0  0  0  0  0  0  0  0  0  0  0
    9.4021   49.6821  132.2581 C   0  0  0  0  0  0  0  0  0  0  0  0
    8.9941   50.3872  131.3210 O   0  0  0  0  0  0  0  0  0  0  0  0
   10.2736   49.7035  134.1844 H   0  0  0  0  0  0  0  0  0  0  0  0
    9.5714   42.3735  132.6943 C   0  0  0  0  0  0  0  0  0  0  0  0
    8.5877   42.0061  133.3767 O   0  0  0  0  0  0  0  0  0  0  0  0
   10.6299   41.4546  132.5716 O   0  0  0  0  0  0  0  0  0  0  0  0
   11.2856   41.4497  133.3414 H   0  0  0  0  0  0  0  0  0  0  0  0
    8.4323   45.2263  134.9411 C   0  0  0  0  0  0  0  0  0  0  0  0
    9.6499   45.9411  135.4190 C   0  0  0  0  0  0  0  0  0  0  0  0
   10.8927   45.4125  134.7721 C   0  0  0  0  0  0  0  0  0  0  0  0
   11.4109   44.1859  135.0548 C   0  0  0  0  0  0  0  0  0  0  0  0
   12.5686   43.8063  134.3862 C   0  0  0  0  0  0  0  0  0  0  0  0
   13.1876   44.6283  133.4644 C   0  0  0  0  0  0  0  0  0  0  0  0
   12.6530   45.8651  133.1888 C   0  0  0  0  0  0  0  0  0  0  0  0
   11.5070   46.2344  133.8541 C   0  0  0  0  0  0  0  0  0  0  0  0
 23 24  1  0  0  0
 24 25  1  0  0  0
 25 26  2  0  0  0
 25  1  1  0  0  0
  1  2  1  0  0  0
  2  3  1  0  0  0
  3  4  1  0  0  0
  4  5  2  0  0  0
  4  6  1  0  0  0
  6  7  1  0  0  0
  7  8  1  0  0  0
  8  9  1  0  0  0
  9 10  1  0  0  0
 10 11  2  0  0  0
 10 12  1  0  0  0
 12 13  1  0  0  0
 13 14  1  0  0  0
 14 28  1  0  0  0
 28 29  2  0  0  0
 28 30  1  0  0  0
 14 15  1  0  0  0
 15 16  1  0  0  0
 16 32  1  0  0  0
 32 33  1  0  0  0
 33 34  1  0  0  0
 34 35  2  0  0  0
 35 36  1  0  0  0
 36 37  2  0  0  0
 37 38  1  0  0  0
 38 39  2  0  0  0
 16 17  1  0  0  0
 17 18  2  0  0  0
 17 19  1  0  0  0
 19  1  1  0  0  0
 39 34  1  0  0  0
 24 27  1  0  0  0
  9 20  1  0  0  0
 30 31  1  0  0  0
 15 21  1  0  0  0
 19 22  1  0  0  0
M  END
> <minimizedAffinity>
9.05449

> <CNNscore>
0.4427848756

> <CNNaffinity>
7.4129190445

> <CNN_VS>
3.2823283672

> <CNNaffinity_variance>
1.7872927189

$$$$
[H]OC(=O)[C@]1([H])N([H])[C@@]([H])(C([H])([H])C([H])([H])c2c([H])c([H])c([H])c([H])c2[H])C(=O)N([H])[C@]([H])(C(=O)N([H])C([H])([H])[H])C([H])([H])C([H])([H])C(=O)OC([H])([H])C([H])([H])N([H])C(=O)C([H])([H])C1([H])[H]


 39 40  0  0  0  0  0  0  0  0999 V2000
    8.1527   46.9671  129.3878 C   0  0  0  0  0  0  0  0  0  0  0  0
    8.4926   47.5132  130.7354 C   0  0  0  0  0  0  0  0  0  0  0  0
    7.8911   48.8213  131.1125 C   0  0  0  0  0  0  0  0  0  0  0  0
    8.9144   49.6723  131.8235 C   0  0  0  0  0  0  0  0  0  0  0  0
    9.5278   50.5311  131.1020 O   0  0  0  0  0  0  0  0  0  0  0  0
    9.2039   49.5699  133.1531 O   0  0  0  0  0  0  0  0  0  0  0  0
    9.5247   48.4531  133.9057 C   0  0  0  0  0  0  0  0  0  0  0  0
   11.0261   48.1966  134.0385 C   0  0  0  0  0  0  0  0  0  0  0  0
   11.2142   46.8292  134.4380 N   0  0  0  0  0  0  0  0  0  0  0  0
   12.3364   46.0140  134.1706 C   0  0  0  0  0  0  0  0  0  0  0  0
   12.8619   45.3086  135.1003 O   0  0  0  0  0  0  0  0  0  0  0  0
   12.9962   45.8965  132.8341 C   0  0  0  0  0  0  0  0  0  0  0  0
   12.0018   45.8766  131.7196 C   0  0  0  0  0  0  0  0  0  0  0  0
   11.4930   44.5057  131.3273 C   0  0  0  0  0  0  0  0  0  0  0  0
   10.5987   44.6653  130.2178 N   0  0  0  0  0  0  0  0  0  0  0  0
   11.0573   45.1733  129.0006 C   0  0  0  0  0  0  0  0  0  0  0  0
   10.5697   46.5239  128.6050 C   0  0  0  0  0  0  0  0  0  0  0  0
   11.4973   47.3739  128.3608 O   0  0  0  0  0  0  0  0  0  0  0  0
    9.2749   46.9892  128.4613 N   0  0  0  0  0  0  0  0  0  0  0  0
   10.4339   46.3748  134.9966 H   0  0  0  0  0  0  0  0  0  0  0  0
    9.8879   43.9378  130.2398 H   0  0  0  0  0  0  0  0  0  0  0  0
    9.0248   47.4486  127.5220 H   0  0  0  0  0  0  0  0  0  0  0  0
    4.4687   47.8435  128.7686 C   0  0  0  0  0  0  0  0  0  0  0  0
    5.6674   47.2415  129.2947 N   0  0  0  0  0  0  0  0  0  0  0  0
    6.9427   47.5972  128.8335 C   0  0  0  0  0  0  0  0  0  0  0  0
    7.0498   48.4567  127.9438 O   0  0  0  0  0  0  0  0  0  0  0  0
    5.5813   46.5196  130.0401 H   0  0  0  0  0  0  0  0  0  0  0  0
   12.5619   43.5222  131.1690 C   0  0  0  0  0  0  0  0  0  0  0  0
   13.4765   43.5372  130.3137 O   0  0  0  0  0  0  0  0  0  0  0  0
   12.5620   42.4422  132.0709 O   0  0  0  0  0  0  0  0  0  0  0  0
   12.1262   41.5966  131.7280 H   0  0  0  0  0  0  0  0  0  0  0  0
   10.8760   44.2049  127.8260 C   0  0  0  0  0  0  0  0  0  0  0  0
    9.5300   43.5648  127.8430 C   0  0  0  0  0  0  0  0  0  0  0  0
    9.1192   43.1745  129.2290 C   0  0  0  0  0  0  0  0  0  0  0  0
    9.6066   42.0733  129.8638 C   0  0  0  0  0  0  0  0  0  0  0  0
    9.1506   41.8178  131.1515 C   0  0  0  0  0  0  0  0  0  0  0  0
    8.2360   42.6382  131.7833 C   0  0  0  0  0  0  0  0  0  0  0  0
    7.7519   43.7474  131.1298 C   0  0  0  0  0  0  0  0  0  0  0  0
    8.2076   43.9943  129.8555 C   0  0  0  0  0  0  0  0  0  0  0  0
 23 24  1  0  0  0
 24 25  1  0  0  0
 25 26  2  0  0  0
 25  1  1  0  0  0
  1  2  1  0  0  0
  2  3  1  0  0  0
  3  4  1  0  0  0
  4  5  2  0  0  0
  4  6  1  0  0  0
  6  7  1  0  0  0
  7  8  1  0  0  0
  8  9  1  0  0  0
  9 10  1  0  0  0
 10 11  2  0  0  0
 10 12  1  0  0  0
 12 13  1  0  0  0
 13 14  1  0  0  0
 14 28  1  0  0  0
 28 29  2  0  0  0
 28 30  1  0  0  0
 14 15  1  0  0  0
 15 16  1  0  0  0
 16 32  1  0  0  0
 32 33  1  0  0  0
 33 34  1  0  0  0
 34 35  2  0  0  0
 35 36  1  0  0  0
 36 37  2  0  0  0
 37 38  1  0  0  0
 38 39  2  0  0  0
 16 17  1  0  0  0
 17 18  2  0  0  0
 17 19  1  0  0  0
 19  1  1  0  0  0
 39 34  1  0  0  0
 24 27  1  0  0  0
  9 20  1  0  0  0
 30 31  1  0  0  0
 15 21  1  0  0  0
 19 22  1  0  0  0
M  END
> <minimizedAffinity>
3.53822

> <CNNscore>
0.4365004599

> <CNNaffinity>
7.2900557518

> <CNN_VS>
3.1821126938

> <CNNaffinity_variance>
0.8682708740

$$$$
[H]OC(=O)[C@]1([H])N([H])[C@@]([H])(C([H])([H])C([H])([H])c2c([H])c([H])c([H])c([H])c2[H])C(=O)N([H])[C@]([H])(C(=O)N([H])C([H])([H])[H])C([H])([H])C([H])([H])C(=O)OC([H])([H])C([H])([H])N([H])C(=O)C([H])([H])C1([H])[H]


 39 40  0  0  0  0  0  0  0  0999 V2000
   10.0437   48.3932  133.1849 C   0  0  0  0  0  0  0  0  0  0  0  0
    9.5877   48.3622  131.7634 C   0  0  0  0  0  0  0  0  0  0  0  0
    9.1279   49.6460  131.1668 C   0  0  0  0  0  0  0  0  0  0  0  0
    7.9017   49.4097  130.3197 C   0  0  0  0  0  0  0  0  0  0  0  0
    6.7781   49.6446  130.8825 O   0  0  0  0  0  0  0  0  0  0  0  0
    7.9372   48.9725  129.0275 O   0  0  0  0  0  0  0  0  0  0  0  0
    8.5967   47.8863  128.4784 C   0  0  0  0  0  0  0  0  0  0  0  0
    7.7495   46.6166  128.3915 C   0  0  0  0  0  0  0  0  0  0  0  0
    8.6350   45.4960  128.2333 N   0  0  0  0  0  0  0  0  0  0  0  0
    8.3973   44.1633  128.6368 C   0  0  0  0  0  0  0  0  0  0  0  0
    8.6455   43.1910  127.8424 O   0  0  0  0  0  0  0  0  0  0  0  0
    7.8558   43.7691  129.9735 C   0  0  0  0  0  0  0  0  0  0  0  0
    8.4241   44.6027  131.0750 C   0  0  0  0  0  0  0  0  0  0  0  0
    9.6993   44.0750  131.6975 C   0  0  0  0  0  0  0  0  0  0  0  0
   10.0717   44.9593  132.7632 N   0  0  0  0  0  0  0  0  0  0  0  0
    9.2426   45.1241  133.8746 C   0  0  0  0  0  0  0  0  0  0  0  0
    8.5779   46.4477  134.0319 C   0  0  0  0  0  0  0  0  0  0  0  0
    7.3009   46.3937  134.1259 O   0  0  0  0  0  0  0  0  0  0  0  0
    9.1324   47.7135  134.0936 N   0  0  0  0  0  0  0  0  0  0  0  0
    9.5687   45.6778  127.7614 H   0  0  0  0  0  0  0  0  0  0  0  0
   11.0837   44.9681  132.8668 H   0  0  0  0  0  0  0  0  0  0  0  0
    8.8653   48.3205  134.9398 H   0  0  0  0  0  0  0  0  0  0  0  0
    9.8175   52.1813  133.7521 C   0  0  0  0  0  0  0  0  0  0  0  0
    9.5188   50.8351  133.3346 N   0  0  0  0  0  0  0  0  0  0  0  0
   10.3718   49.7603  133.6227 C   0  0  0  0  0  0  0  0  0  0  0  0
   11.4191   49.9680  134.2564 O   0  0  0  0  0  0  0  0  0  0  0  0
    8.6419   50.6572  132.8020 H   0  0  0  0  0  0  0  0  0  0  0  0
    9.6312   42.6521  132.0225 C   0  0  0  0  0  0  0  0  0  0  0  0
   10.2752   41.7254  131.4796 O   0  0  0  0  0  0  0  0  0  0  0  0
    8.7461   42.2834  133.0523 O   0  0  0  0  0  0  0  0  0  0  0  0
    7.8387   41.9611  132.7436 H   0  0  0  0  0  0  0  0  0  0  0  0
    9.9083   44.7308  135.1984 C   0  0  0  0  0  0  0  0  0  0  0  0
   11.3536   45.0948  135.2172 C   0  0  0  0  0  0  0  0  0  0  0  0
   12.0370   44.7176  133.9393 C   0  0  0  0  0  0  0  0  0  0  0  0
   12.4020   43.4400  133.6434 C   0  0  0  0  0  0  0  0  0  0  0  0
   13.0276   43.2154  132.4229 C   0  0  0  0  0  0  0  0  0  0  0  0
   13.2798   44.2369  131.5276 C   0  0  0  0  0  0  0  0  0  0  0  0
   12.9055   45.5229  131.8399 C   0  0  0  0  0  0  0  0  0  0  0  0
   12.2867   45.7381  133.0495 C   0  0  0  0  0  0  0  0  0  0  0  0
 23 24  1  0  0  0
 24 25  1  0  0  0
 25 26  2  0  0  0
 25  1  1  0  0  0
  1  2  1  0  0  0
  2  3  1  0  0  0
  3  4  1  0  0  0
  4  5  2  0  0  0
  4  6  1  0  0  0
  6  7  1  0  0  0
  7  8  1  0  0  0
  8  9  1  0  0  0
  9 10  1  0  0  0
 10 11  2  0  0  0
 10 12  1  0  0  0
 12 13  1  0  0  0
 13 14  1  0  0  0
 14 28  1  0  0  0
 28 29  2  0  0  0
 28 30  1  0  0  0
 14 15  1  0  0  0
 15 16  1  0  0  0
 16 32  1  0  0  0
 32 33  1  0  0  0
 33 34  1  0  0  0
 34 35  2  0  0  0
 35 36  1  0  0  0
 36 37  2  0  0  0
 37 38  1  0  0  0
 38 39  2  0  0  0
 16 17  1  0  0  0
 17 18  2  0  0  0
 17 19  1  0  0  0
 19  1  1  0  0  0
 39 34  1  0  0  0
 24 27  1  0  0  0
  9 20  1  0  0  0
 30 31  1  0  0  0
 15 21  1  0  0  0
 19 22  1  0  0  0
M  END
> <minimizedAffinity>
7.93699

> <CNNscore>
0.4361500740

> <CNNaffinity>
7.3364081383

> <CNN_VS>
3.1997749805

> <CNNaffinity_variance>
2.1817419529

$$$$
[H]OC(=O)[C@]1([H])N([H])[C@@]([H])(C([H])([H])C([H])([H])c2c([H])c([H])c([H])c([H])c2[H])C(=O)N([H])[C@]([H])(C(=O)N([H])C([H])([H])[H])C([H])([H])C([H])([H])C(=O)OC([H])([H])C([H])([H])N([H])C(=O)C([H])([H])C1([H])[H]


 39 40  0  0  0  0  0  0  0  0999 V2000
    8.7939   43.3831  133.0433 C   0  0  0  0  0  0  0  0  0  0  0  0
    8.9701   42.9554  131.6235 C   0  0  0  0  0  0  0  0  0  0  0  0
    8.9369   41.4941  131.3426 C   0  0  0  0  0  0  0  0  0  0  0  0
   10.0021   41.1397  130.3344 C   0  0  0  0  0  0  0  0  0  0  0  0
   11.1000   40.6925  130.8131 O   0  0  0  0  0  0  0  0  0  0  0  0
    9.8517   41.2703  128.9844 O   0  0  0  0  0  0  0  0  0  0  0  0
    9.4303   42.3602  128.2422 C   0  0  0  0  0  0  0  0  0  0  0  0
   10.5657   43.2464  127.7293 C   0  0  0  0  0  0  0  0  0  0  0  0
   10.0130   44.5251  127.3770 N   0  0  0  0  0  0  0  0  0  0  0  0
   10.6818   45.7694  127.3838 C   0  0  0  0  0  0  0  0  0  0  0  0
   10.5713   46.5705  126.3919 O   0  0  0  0  0  0  0  0  0  0  0  0
   11.5485   46.2567  128.5004 C   0  0  0  0  0  0  0  0  0  0  0  0
   10.9843   45.9083  129.8389 C   0  0  0  0  0  0  0  0  0  0  0  0
   10.0437   46.9342  130.4345 C   0  0  0  0  0  0  0  0  0  0  0  0
    9.6436   46.4695  131.7308 N   0  0  0  0  0  0  0  0  0  0  0  0
   10.5846   46.3005  132.7486 C   0  0  0  0  0  0  0  0  0  0  0  0
   10.8726   44.9037  133.1779 C   0  0  0  0  0  0  0  0  0  0  0  0
   12.1088   44.5718  133.1141 O   0  0  0  0  0  0  0  0  0  0  0  0
   10.0095   43.9233  133.6337 N   0  0  0  0  0  0  0  0  0  0  0  0
    8.9952   44.5477  127.0753 H   0  0  0  0  0  0  0  0  0  0  0  0
    8.7062   46.8030  131.9430 H   0  0  0  0  0  0  0  0  0  0  0  0
   10.2489   43.4649  134.5762 H   0  0  0  0  0  0  0  0  0  0  0  0
    6.2096   40.9612  134.5192 C   0  0  0  0  0  0  0  0  0  0  0  0
    6.8278   41.9965  133.7307 N   0  0  0  0  0  0  0  0  0  0  0  0
    8.1856   42.3206  133.8614 C   0  0  0  0  0  0  0  0  0  0  0  0
    8.8828   41.7005  134.6806 O   0  0  0  0  0  0  0  0  0  0  0  0
    6.2460   42.5194  133.0434 H   0  0  0  0  0  0  0  0  0  0  0  0
   10.5631   48.2979  130.3607 C   0  0  0  0  0  0  0  0  0  0  0  0
   11.4514   48.8041  131.0840 O   0  0  0  0  0  0  0  0  0  0  0  0
   10.0041   49.1318  129.3748 O   0  0  0  0  0  0  0  0  0  0  0  0
    9.2628   49.7397  129.6966 H   0  0  0  0  0  0  0  0  0  0  0  0
   10.3105   47.1645  133.9850 C   0  0  0  0  0  0  0  0  0  0  0  0
    8.9136   47.6846  133.9945 C   0  0  0  0  0  0  0  0  0  0  0  0
    8.7323   48.8042  133.0168 C   0  0  0  0  0  0  0  0  0  0  0  0
    9.4845   49.9385  133.0414 C   0  0  0  0  0  0  0  0  0  0  0  0
    9.2230   50.9055  132.0781 C   0  0  0  0  0  0  0  0  0  0  0  0
    8.2400   50.7423  131.1212 C   0  0  0  0  0  0  0  0  0  0  0  0
    7.4876   49.5911  131.1084 C   0  0  0  0  0  0  0  0  0  0  0  0
    7.7518   48.6381  132.0646 C   0  0  0  0  0  0  0  0  0  0  0  0
 23 24  1  0  0  0
 24 25  1  0  0  0
 25 26  2  0  0  0
 25  1  1  0  0  0
  1  2  1  0  0  0
  2  3  1  0  0  0
  3  4  1  0  0  0
  4  5  2  0  0  0
  4  6  1  0  0  0
  6  7  1  0  0  0
  7  8  1  0  0  0
  8  9  1  0  0  0
  9 10  1  0  0  0
 10 11  2  0  0  0
 10 12  1  0  0  0
 12 13  1  0  0  0
 13 14  1  0  0  0
 14 28  1  0  0  0
 28 29  2  0  0  0
 28 30  1  0  0  0
 14 15  1  0  0  0
 15 16  1  0  0  0
 16 32  1  0  0  0
 32 33  1  0  0  0
 33 34  1  0  0  0
 34 35  2  0  0  0
 35 36  1  0  0  0
 36 37  2  0  0  0
 37 38  1  0  0  0
 38 39  2  0  0  0
 16 17  1  0  0  0
 17 18  2  0  0  0
 17 19  1  0  0  0
 19  1  1  0  0  0
 39 34  1  0  0  0
 24 27  1  0  0  0
  9 20  1  0  0  0
 30 31  1  0  0  0
 15 21  1  0  0  0
 19 22  1  0  0  0
M  END
> <minimizedAffinity>
19.10632

> <CNNscore>
0.4358602464

> <CNNaffinity>
7.0503478050

> <CNN_VS>
3.0729663372

> <CNNaffinity_variance>
0.9472810030

$$$$
[H]OC(=O)[C@]1([H])N([H])[C@@]([H])(C([H])([H])C([H])([H])c2c([H])c([H])c([H])c([H])c2[H])C(=O)N([H])[C@]([H])(C(=O)N([H])C([H])([H])[H])C([H])([H])C([H])([H])C(=O)OC([H])([H])C([H])([H])N([H])C(=O)C([H])([H])C1([H])[H]


 39 40  0  0  0  0  0  0  0  0999 V2000
   10.8892   45.7875  132.7449 C   0  0  0  0  0  0  0  0  0  0  0  0
   10.2090   45.1527  131.5770 C   0  0  0  0  0  0  0  0  0  0  0  0
   10.7766   43.8736  131.0701 C   0  0  0  0  0  0  0  0  0  0  0  0
   10.7683   43.8692  129.5612 C   0  0  0  0  0  0  0  0  0  0  0  0
   11.8643   44.2031  128.9939 O   0  0  0  0  0  0  0  0  0  0  0  0
    9.6834   43.5372  128.8029 O   0  0  0  0  0  0  0  0  0  0  0  0
    8.3824   44.0060  128.8663 C   0  0  0  0  0  0  0  0  0  0  0  0
    8.0917   45.1779  127.9284 C   0  0  0  0  0  0  0  0  0  0  0  0
    6.9000   45.8360  128.3883 N   0  0  0  0  0  0  0  0  0  0  0  0
    6.5593   47.1954  128.2109 C   0  0  0  0  0  0  0  0  0  0  0  0
    5.3859   47.5242  127.8198 O   0  0  0  0  0  0  0  0  0  0  0  0
    7.4925   48.3386  128.4512 C   0  0  0  0  0  0  0  0  0  0  0  0
    8.3453   48.1201  129.6579 C   0  0  0  0  0  0  0  0  0  0  0  0
    7.7662   48.6244  130.9627 C   0  0  0  0  0  0  0  0  0  0  0  0
    8.7297   48.3852  131.9974 N   0  0  0  0  0  0  0  0  0  0  0  0
    9.9793   49.0074  131.9648 C   0  0  0  0  0  0  0  0  0  0  0  0
   11.1619   48.1367  131.7163 C   0  0  0  0  0  0  0  0  0  0  0  0
   11.8831   48.4912  130.7180 O   0  0  0  0  0  0  0  0  0  0  0  0
   11.5926   47.0143  132.4007 N   0  0  0  0  0  0  0  0  0  0  0  0
    6.1923   45.2460  128.9161 H   0  0  0  0  0  0  0  0  0  0  0  0
    8.2537   48.2265  132.8824 H   0  0  0  0  0  0  0  0  0  0  0  0
   12.6100   47.0174  132.7482 H   0  0  0  0  0  0  0  0  0  0  0  0
   12.0755   43.2156  135.3336 C   0  0  0  0  0  0  0  0  0  0  0  0
   11.2644   44.1597  134.6077 N   0  0  0  0  0  0  0  0  0  0  0  0
   11.7383   44.8271  133.4695 C   0  0  0  0  0  0  0  0  0  0  0  0
   12.8922   44.6030  133.0693 O   0  0  0  0  0  0  0  0  0  0  0  0
   10.2966   44.3510  134.9410 H   0  0  0  0  0  0  0  0  0  0  0  0
    7.2343   49.9819  130.8660 C   0  0  0  0  0  0  0  0  0  0  0  0
    6.0285   50.3141  130.8051 O   0  0  0  0  0  0  0  0  0  0  0  0
    8.1768   51.0263  130.8347 O   0  0  0  0  0  0  0  0  0  0  0  0
    8.4139   51.3629  129.9111 H   0  0  0  0  0  0  0  0  0  0  0  0
   10.2520   49.8969  133.1834 C   0  0  0  0  0  0  0  0  0  0  0  0
   10.8665   49.1259  134.3013 C   0  0  0  0  0  0  0  0  0  0  0  0
    9.9948   47.9881  134.7348 C   0  0  0  0  0  0  0  0  0  0  0  0
   10.3761   47.0782  135.6728 C   0  0  0  0  0  0  0  0  0  0  0  0
    9.4768   46.0682  135.9931 C   0  0  0  0  0  0  0  0  0  0  0  0
    8.2358   45.9722  135.3936 C   0  0  0  0  0  0  0  0  0  0  0  0
    7.8639   46.8985  134.4475 C   0  0  0  0  0  0  0  0  0  0  0  0
    8.7589   47.8955  134.1353 C   0  0  0  0  0  0  0  0  0  0  0  0
 23 24  1  0  0  0
 24 25  1  0  0  0
 25 26  2  0  0  0
 25  1  1  0  0  0
  1  2  1  0  0  0
  2  3  1  0  0  0
  3  4  1  0  0  0
  4  5  2  0  0  0
  4  6  1  0  0  0
  6  7  1  0  0  0
  7  8  1  0  0  0
  8  9  1  0  0  0
  9 10  1  0  0  0
 10 11  2  0  0  0
 10 12  1  0  0  0
 12 13  1  0  0  0
 13 14  1  0  0  0
 14 28  1  0  0  0
 28 29  2  0  0  0
 28 30  1  0  0  0
 14 15  1  0  0  0
 15 16  1  0  0  0
 16 32  1  0  0  0
 32 33  1  0  0  0
 33 34  1  0  0  0
 34 35  2  0  0  0
 35 36  1  0  0  0
 36 37  2  0  0  0
 37 38  1  0  0  0
 38 39  2  0  0  0
 16 17  1  0  0  0
 17 18  2  0  0  0
 17 19  1  0  0  0
 19  1  1  0  0  0
 39 34  1  0  0  0
 24 27  1  0  0  0
  9 20  1  0  0  0
 30 31  1  0  0  0
 15 21  1  0  0  0
 19 22  1  0  0  0
M  END
> <minimizedAffinity>
10.21248

> <CNNscore>
0.4335840046

> <CNNaffinity>
7.0443634987

> <CNN_VS>
3.0543234348

> <CNNaffinity_variance>
0.7692028284

$$$$
[H]OC(=O)[C@]1([H])N([H])[C@@]([H])(C([H])([H])C([H])([H])c2c([H])c([H])c([H])c([H])c2[H])C(=O)N([H])[C@]([H])(C(=O)N([H])C([H])([H])[H])C([H])([H])C([H])([H])C(=O)OC([H])([H])C([H])([H])N([H])C(=O)C([H])([H])C1([H])[H]


 39 40  0  0  0  0  0  0  0  0999 V2000
    9.5347   44.7234  132.0764 C   0  0  0  0  0  0  0  0  0  0  0  0
    8.5209   45.1016  131.0475 C   0  0  0  0  0  0  0  0  0  0  0  0
    8.0937   44.0446  130.0906 C   0  0  0  0  0  0  0  0  0  0  0  0
    7.9719   44.6254  128.7032 C   0  0  0  0  0  0  0  0  0  0  0  0
    8.9798   44.4572  127.9349 O   0  0  0  0  0  0  0  0  0  0  0  0
    6.8746   45.2974  128.2487 O   0  0  0  0  0  0  0  0  0  0  0  0
    6.1886   46.3578  128.8155 C   0  0  0  0  0  0  0  0  0  0  0  0
    6.6500   47.7331  128.3325 C   0  0  0  0  0  0  0  0  0  0  0  0
    6.1985   48.7158  129.2787 N   0  0  0  0  0  0  0  0  0  0  0  0
    6.7991   49.9636  129.5576 C   0  0  0  0  0  0  0  0  0  0  0  0
    6.0865   51.0240  129.6327 O   0  0  0  0  0  0  0  0  0  0  0  0
    8.2632   50.1649  129.7837 C   0  0  0  0  0  0  0  0  0  0  0  0
    8.8633   49.0549  130.5833 C   0  0  0  0  0  0  0  0  0  0  0  0
    8.8433   49.2511  132.0844 C   0  0  0  0  0  0  0  0  0  0  0  0
    9.5015   48.1287  132.6871 N   0  0  0  0  0  0  0  0  0  0  0  0
   10.8518   47.8761  132.4368 C   0  0  0  0  0  0  0  0  0  0  0  0
   11.1755   46.6635  131.6348 C   0  0  0  0  0  0  0  0  0  0  0  0
   11.8786   46.8904  130.5876 O   0  0  0  0  0  0  0  0  0  0  0  0
   10.8337   45.3412  131.8546 N   0  0  0  0  0  0  0  0  0  0  0  0
    5.3192   48.4912  129.8299 H   0  0  0  0  0  0  0  0  0  0  0  0
    9.1028   47.9468  133.6052 H   0  0  0  0  0  0  0  0  0  0  0  0
   11.6374   44.6273  131.8693 H   0  0  0  0  0  0  0  0  0  0  0  0
   10.8027   41.1073  131.8793 C   0  0  0  0  0  0  0  0  0  0  0  0
   10.6973   42.5359  131.7246 N   0  0  0  0  0  0  0  0  0  0  0  0
    9.6191   43.2634  132.2480 C   0  0  0  0  0  0  0  0  0  0  0  0
    8.7234   42.6642  132.8647 O   0  0  0  0  0  0  0  0  0  0  0  0
   11.4461   43.0417  131.2071 H   0  0  0  0  0  0  0  0  0  0  0  0
    9.3029   50.5760  132.4945 C   0  0  0  0  0  0  0  0  0  0  0  0
    9.1216   51.6559  131.8869 O   0  0  0  0  0  0  0  0  0  0  0  0
   10.0287   50.6457  133.6980 O   0  0  0  0  0  0  0  0  0  0  0  0
   11.0344   50.6464  133.5932 H   0  0  0  0  0  0  0  0  0  0  0  0
   11.7225   47.8964  133.6986 C   0  0  0  0  0  0  0  0  0  0  0  0
   11.0217   47.2802  134.8608 C   0  0  0  0  0  0  0  0  0  0  0  0
   11.2509   45.8019  134.9262 C   0  0  0  0  0  0  0  0  0  0  0  0
   10.3888   44.9448  135.5387 C   0  0  0  0  0  0  0  0  0  0  0  0
   10.7102   43.5928  135.5304 C   0  0  0  0  0  0  0  0  0  0  0  0
   11.8580   43.1143  134.9284 C   0  0  0  0  0  0  0  0  0  0  0  0
   12.7201   43.9918  134.3134 C   0  0  0  0  0  0  0  0  0  0  0  0
   12.3956   45.3286  134.3253 C   0  0  0  0  0  0  0  0  0  0  0  0
 23 24  1  0  0  0
 24 25  1  0  0  0
 25 26  2  0  0  0
 25  1  1  0  0  0
  1  2  1  0  0  0
  2  3  1  0  0  0
  3  4  1  0  0  0
  4  5  2  0  0  0
  4  6  1  0  0  0
  6  7  1  0  0  0
  7  8  1  0  0  0
  8  9  1  0  0  0
  9 10  1  0  0  0
 10 11  2  0  0  0
 10 12  1  0  0  0
 12 13  1  0  0  0
 13 14  1  0  0  0
 14 28  1  0  0  0
 28 29  2  0  0  0
 28 30  1  0  0  0
 14 15  1  0  0  0
 15 16  1  0  0  0
 16 32  1  0  0  0
 32 33  1  0  0  0
 33 34  1  0  0  0
 34 35  2  0  0  0
 35 36  1  0  0  0
 36 37  2  0  0  0
 37 38  1  0  0  0
 38 39  2  0  0  0
 16 17  1  0  0  0
 17 18  2  0  0  0
 17 19  1  0  0  0
 19  1  1  0  0  0
 39 34  1  0  0  0
 24 27  1  0  0  0
  9 20  1  0  0  0
 30 31  1  0  0  0
 15 21  1  0  0  0
 19 22  1  0  0  0
M  END
> <minimizedAffinity>
10.34325

> <CNNscore>
0.4322061539

> <CNNaffinity>
7.2763223648

> <CNN_VS>
3.1448712349

> <CNNaffinity_variance>
1.5356895924

$$$$
[H]c1nc2n(n1)C([H])(c1sc([H])c([H])c1[H])C([H])([H])C([H])(c1c([H])c([H])c(Cl)c(Cl)c1[H])N2[H]


 23 26  0  0  0  0  0  0  0  0999 V2000
    8.5822   46.5843  131.1938 C   0  0  0  0  0  0  0  0  0  0  0  0
    9.0432   47.1479  129.8947 C   0  0  0  0  0  0  0  0  0  0  0  0
    7.9766   47.9114  129.1994 C   0  0  0  0  0  0  0  0  0  0  0  0
    6.6636   47.3632  129.3269 N   0  0  0  0  0  0  0  0  0  0  0  0
    5.5337   47.7048  128.7424 N   0  0  0  0  0  0  0  0  0  0  0  0
    4.5296   46.9185  129.1502 C   0  0  0  0  0  0  0  0  0  0  0  0
    5.0859   46.0617  130.0240 N   0  0  0  0  0  0  0  0  0  0  0  0
    6.3975   46.3092  130.1546 C   0  0  0  0  0  0  0  0  0  0  0  0
    7.4440   45.7285  130.9223 N   0  0  0  0  0  0  0  0  0  0  0  0
    7.3294   44.7500  131.2330 H   0  0  0  0  0  0  0  0  0  0  0  0
   12.8591   43.6395  134.1912 Cl  0  0  0  0  0  0  0  0  0  0  0  0
   11.6163   44.5131  133.3275 C   0  0  0  0  0  0  0  0  0  0  0  0
   11.3722   45.8316  133.6332 C   0  0  0  0  0  0  0  0  0  0  0  0
   10.3702   46.5067  132.9245 C   0  0  0  0  0  0  0  0  0  0  0  0
    9.6381   45.8908  131.9471 C   0  0  0  0  0  0  0  0  0  0  0  0
    9.9004   44.5702  131.6584 C   0  0  0  0  0  0  0  0  0  0  0  0
   10.8958   43.8644  132.3477 C   0  0  0  0  0  0  0  0  0  0  0  0
   11.2404   42.1856  131.9918 Cl  0  0  0  0  0  0  0  0  0  0  0  0
    7.9367   49.3603  129.6238 C   0  0  0  0  0  0  0  0  0  0  0  0
    8.5665   49.9312  130.6926 C   0  0  0  0  0  0  0  0  0  0  0  0
    8.3923   51.2433  130.8874 C   0  0  0  0  0  0  0  0  0  0  0  0
    7.5928   51.9094  129.9944 C   0  0  0  0  0  0  0  0  0  0  0  0
    7.1149   50.6781  128.9171 S   0  0  0  0  0  0  0  0  0  0  0  0
 11 12  1  0  0  0
 12 13  2  0  0  0
 13 14  1  0  0  0
 14 15  2  0  0  0
 15  1  1  0  0  0
  1  2  1  0  0  0
  2  3  1  0  0  0
  3 19  1  0  0  0
 19 20  2  0  0  0
 20 21  1  0  0  0
 21 22  2  0  0  0
 22 23  1  0  0  0
  3  4  1  0  0  0
  4  5  1  0  0  0
  5  6  2  0  0  0
  6  7  1  0  0  0
  7  8  2  0  0  0
  8  9  1  0  0  0
 15 16  1  0  0  0
 16 17  2  0  0  0
 17 18  1  0  0  0
 17 12  1  0  0  0
  9  1  1  0  0  0
 23 19  1  0  0  0
  8  4  1  0  0  0
  9 10  1  0  0  0
M  END
> <minimizedAffinity>
0.80418

> <CNNscore>
0.5709391832

> <CNNaffinity>
7.5104050636

> <CNN_VS>
4.2879843712

> <CNNaffinity_variance>
0.9966958165

$$$$
[H]c1nc2n(n1)C([H])(c1sc([H])c([H])c1[H])C([H])([H])C([H])(c1c([H])c([H])c(Cl)c(Cl)c1[H])N2[H]


 23 26  0  0  0  0  0  0  0  0999 V2000
    9.1145   44.3249  131.3896 C   0  0  0  0  0  0  0  0  0  0  0  0
    9.3333   43.9707  129.9598 C   0  0  0  0  0  0  0  0  0  0  0  0
   10.1007   45.0117  129.2307 C   0  0  0  0  0  0  0  0  0  0  0  0
    9.7980   46.3562  129.6066 N   0  0  0  0  0  0  0  0  0  0  0  0
   10.1883   47.4996  129.0818 N   0  0  0  0  0  0  0  0  0  0  0  0
    9.6624   48.5344  129.7492 C   0  0  0  0  0  0  0  0  0  0  0  0
    8.9187   47.9833  130.7241 N   0  0  0  0  0  0  0  0  0  0  0  0
    8.9813   46.6450  130.6633 C   0  0  0  0  0  0  0  0  0  0  0  0
    8.4083   45.5905  131.4257 N   0  0  0  0  0  0  0  0  0  0  0  0
    7.5398   45.7890  131.9485 H   0  0  0  0  0  0  0  0  0  0  0  0
    6.4259   40.0520  134.6241 Cl  0  0  0  0  0  0  0  0  0  0  0  0
    7.1949   41.2976  133.6698 C   0  0  0  0  0  0  0  0  0  0  0  0
    6.5614   41.7887  132.5523 C   0  0  0  0  0  0  0  0  0  0  0  0
    7.2016   42.7869  131.8067 C   0  0  0  0  0  0  0  0  0  0  0  0
    8.4280   43.2776  132.1613 C   0  0  0  0  0  0  0  0  0  0  0  0
    9.0428   42.7705  133.2842 C   0  0  0  0  0  0  0  0  0  0  0  0
    8.4310   41.7716  134.0534 C   0  0  0  0  0  0  0  0  0  0  0  0
    9.2005   41.1173  135.4831 Cl  0  0  0  0  0  0  0  0  0  0  0  0
   11.5932   44.8065  129.3374 C   0  0  0  0  0  0  0  0  0  0  0  0
   12.5018   44.7670  128.3187 C   0  0  0  0  0  0  0  0  0  0  0  0
   13.7857   44.5705  128.6395 C   0  0  0  0  0  0  0  0  0  0  0  0
   14.0847   44.4245  129.9697 C   0  0  0  0  0  0  0  0  0  0  0  0
   12.5617   44.5671  130.7216 S   0  0  0  0  0  0  0  0  0  0  0  0
 11 12  1  0  0  0
 12 13  2  0  0  0
 13 14  1  0  0  0
 14 15  2  0  0  0
 15  1  1  0  0  0
  1  2  1  0  0  0
  2  3  1  0  0  0
  3 19  1  0  0  0
 19 20  2  0  0  0
 20 21  1  0  0  0
 21 22  2  0  0  0
 22 23  1  0  0  0
  3  4  1  0  0  0
  4  5  1  0  0  0
  5  6  2  0  0  0
  6  7  1  0  0  0
  7  8  2  0  0  0
  8  9  1  0  0  0
 15 16  1  0  0  0
 16 17  2  0  0  0
 17 18  1  0  0  0
 17 12  1  0  0  0
  9  1  1  0  0  0
 23 19  1  0  0  0
  8  4  1  0  0  0
  9 10  1  0  0  0
M  END
> <minimizedAffinity>
15.04830

> <CNNscore>
0.4267340302

> <CNNaffinity>
7.1118326187

> <CNN_VS>
3.0348610878

> <CNNaffinity_variance>
3.2573916912

$$$$
[H]c1nc2n(n1)C([H])(c1sc([H])c([H])c1[H])C([H])([H])C([H])(c1c([H])c([H])c(Cl)c(Cl)c1[H])N2[H]


 23 26  0  0  0  0  0  0  0  0999 V2000
    9.3921   45.3601  132.3544 C   0  0  0  0  0  0  0  0  0  0  0  0
    8.2780   45.5860  131.3923 C   0  0  0  0  0  0  0  0  0  0  0  0
    8.4299   46.8567  130.6398 C   0  0  0  0  0  0  0  0  0  0  0  0
    8.9664   47.9434  131.3961 N   0  0  0  0  0  0  0  0  0  0  0  0
    9.1067   49.2154  131.0844 N   0  0  0  0  0  0  0  0  0  0  0  0
    9.6596   49.8959  132.0964 C   0  0  0  0  0  0  0  0  0  0  0  0
    9.8610   48.9852  133.0645 N   0  0  0  0  0  0  0  0  0  0  0  0
    9.4451   47.7745  132.6647 C   0  0  0  0  0  0  0  0  0  0  0  0
    9.4201   46.4865  133.2665 N   0  0  0  0  0  0  0  0  0  0  0  0
    9.4234   46.4353  134.2982 H   0  0  0  0  0  0  0  0  0  0  0  0
    8.9443   40.0919  135.1816 Cl  0  0  0  0  0  0  0  0  0  0  0  0
    9.0925   41.6287  134.3632 C   0  0  0  0  0  0  0  0  0  0  0  0
   10.2839   42.3141  134.4106 C   0  0  0  0  0  0  0  0  0  0  0  0
   10.3737   43.5434  133.7452 C   0  0  0  0  0  0  0  0  0  0  0  0
    9.3153   44.0707  133.0579 C   0  0  0  0  0  0  0  0  0  0  0  0
    8.1326   43.3663  133.0244 C   0  0  0  0  0  0  0  0  0  0  0  0
    8.0077   42.1334  133.6788 C   0  0  0  0  0  0  0  0  0  0  0  0
    6.5108   41.2268  133.6450 Cl  0  0  0  0  0  0  0  0  0  0  0  0
    9.2561   46.6880  129.3869 C   0  0  0  0  0  0  0  0  0  0  0  0
    9.3661   47.5581  128.3401 C   0  0  0  0  0  0  0  0  0  0  0  0
   10.1587   47.2065  127.3213 C   0  0  0  0  0  0  0  0  0  0  0  0
   10.7979   45.9967  127.4124 C   0  0  0  0  0  0  0  0  0  0  0  0
   10.2677   45.3967  128.9171 S   0  0  0  0  0  0  0  0  0  0  0  0
 11 12  1  0  0  0
 12 13  2  0  0  0
 13 14  1  0  0  0
 14 15  2  0  0  0
 15  1  1  0  0  0
  1  2  1  0  0  0
  2  3  1  0  0  0
  3 19  1  0  0  0
 19 20  2  0  0  0
 20 21  1  0  0  0
 21 22  2  0  0  0
 22 23  1  0  0  0
  3  4  1  0  0  0
  4  5  1  0  0  0
  5  6  2  0  0  0
  6  7  1  0  0  0
  7  8  2  0  0  0
  8  9  1  0  0  0
 15 16  1  0  0  0
 16 17  2  0  0  0
 17 18  1  0  0  0
 17 12  1  0  0  0
  9  1  1  0  0  0
 23 19  1  0  0  0
  8  4  1  0  0  0
  9 10  1  0  0  0
M  END
> <minimizedAffinity>
10.91889

> <CNNscore>
0.3716421127

> <CNNaffinity>
7.1611623764

> <CNN_VS>
2.6613895893

> <CNNaffinity_variance>
1.9527219534

$$$$
[H]c1nc2n(n1)C([H])(c1sc([H])c([H])c1[H])C([H])([H])C([H])(c1c([H])c([H])c(Cl)c(Cl)c1[H])N2[H]


 23 26  0  0  0  0  0  0  0  0999 V2000
   11.9537   44.7206  132.1706 C   0  0  0  0  0  0  0  0  0  0  0  0
   12.2193   45.9594  131.3880 C   0  0  0  0  0  0  0  0  0  0  0  0
   12.7544   45.6688  130.0340 C   0  0  0  0  0  0  0  0  0  0  0  0
   13.6554   44.5622  129.9678 N   0  0  0  0  0  0  0  0  0  0  0  0
   14.3981   44.1223  128.9730 N   0  0  0  0  0  0  0  0  0  0  0  0
   15.1038   43.0467  129.3445 C   0  0  0  0  0  0  0  0  0  0  0  0
   14.7668   42.8306  130.6279 N   0  0  0  0  0  0  0  0  0  0  0  0
   13.8777   43.7458  131.0407 C   0  0  0  0  0  0  0  0  0  0  0  0
   13.2000   43.9863  132.2673 N   0  0  0  0  0  0  0  0  0  0  0  0
   13.6309   43.6289  133.1354 H   0  0  0  0  0  0  0  0  0  0  0  0
    9.3569   45.7734  137.4712 Cl  0  0  0  0  0  0  0  0  0  0  0  0
   10.1295   45.4618  135.9351 C   0  0  0  0  0  0  0  0  0  0  0  0
   11.4400   45.0458  135.9032 C   0  0  0  0  0  0  0  0  0  0  0  0
   12.0332   44.8036  134.6576 C   0  0  0  0  0  0  0  0  0  0  0  0
   11.3462   44.9698  133.4868 C   0  0  0  0  0  0  0  0  0  0  0  0
   10.0352   45.3870  133.5437 C   0  0  0  0  0  0  0  0  0  0  0  0
    9.4103   45.6385  134.7726 C   0  0  0  0  0  0  0  0  0  0  0  0
    7.7446   46.1694  134.8606 Cl  0  0  0  0  0  0  0  0  0  0  0  0
   11.6591   45.4594  129.0155 C   0  0  0  0  0  0  0  0  0  0  0  0
   10.8710   44.3553  128.8573 C   0  0  0  0  0  0  0  0  0  0  0  0
    9.9555   44.3809  127.8821 C   0  0  0  0  0  0  0  0  0  0  0  0
    9.8835   45.5178  127.1188 C   0  0  0  0  0  0  0  0  0  0  0  0
   11.0969   46.5075  127.7921 S   0  0  0  0  0  0  0  0  0  0  0  0
 11 12  1  0  0  0
 12 13  2  0  0  0
 13 14  1  0  0  0
 14 15  2  0  0  0
 15  1  1  0  0  0
  1  2  1  0  0  0
  2  3  1  0  0  0
  3 19  1  0  0  0
 19 20  2  0  0  0
 20 21  1  0  0  0
 21 22  2  0  0  0
 22 23  1  0  0  0
  3  4  1  0  0  0
  4  5  1  0  0  0
  5  6  2  0  0  0
  6  7  1  0  0  0
  7  8  2  0  0  0
  8  9  1  0  0  0
 15 16  1  0  0  0
 16 17  2  0  0  0
 17 18  1  0  0  0
 17 12  1  0  0  0
  9  1  1  0  0  0
 23 19  1  0  0  0
  8  4  1  0  0  0
  9 10  1  0  0  0
M  END
> <minimizedAffinity>
21.63904

> <CNNscore>
0.3605676293

> <CNNaffinity>
6.4169836044

> <CNN_VS>
2.3137564659

> <CNNaffinity_variance>
1.1126680374

$$$$
[H]c1nc2n(n1)C([H])(c1sc([H])c([H])c1[H])C([H])([H])C([H])(c1c([H])c([H])c(Cl)c(Cl)c1[H])N2[H]


 23 26  0  0  0  0  0  0  0  0999 V2000
    9.0094   46.4192  131.9562 C   0  0  0  0  0  0  0  0  0  0  0  0
    8.0786   45.4386  131.3317 C   0  0  0  0  0  0  0  0  0  0  0  0
    7.8530   45.7125  129.8902 C   0  0  0  0  0  0  0  0  0  0  0  0
    7.7872   47.0969  129.5438 N   0  0  0  0  0  0  0  0  0  0  0  0
    7.4747   47.6796  128.4046 N   0  0  0  0  0  0  0  0  0  0  0  0
    7.5372   49.0123  128.5182 C   0  0  0  0  0  0  0  0  0  0  0  0
    7.9061   49.2403  129.7907 N   0  0  0  0  0  0  0  0  0  0  0  0
    8.0678   48.0824  130.4477 C   0  0  0  0  0  0  0  0  0  0  0  0
    8.4409   47.7406  131.7765 N   0  0  0  0  0  0  0  0  0  0  0  0
    8.2861   48.4434  132.5175 H   0  0  0  0  0  0  0  0  0  0  0  0
   10.3560   45.1308  137.6549 Cl  0  0  0  0  0  0  0  0  0  0  0  0
    9.9523   45.5200  135.9999 C   0  0  0  0  0  0  0  0  0  0  0  0
    9.0675   46.5392  135.7357 C   0  0  0  0  0  0  0  0  0  0  0  0
    8.7627   46.8289  134.3995 C   0  0  0  0  0  0  0  0  0  0  0  0
    9.3187   46.1288  133.3646 C   0  0  0  0  0  0  0  0  0  0  0  0
   10.2019   45.1126  133.6536 C   0  0  0  0  0  0  0  0  0  0  0  0
   10.5296   44.7959  134.9789 C   0  0  0  0  0  0  0  0  0  0  0  0
   11.6504   43.5070  135.3616 Cl  0  0  0  0  0  0  0  0  0  0  0  0
    8.8823   45.0444  129.0098 C   0  0  0  0  0  0  0  0  0  0  0  0
    8.8560   43.7699  128.5201 C   0  0  0  0  0  0  0  0  0  0  0  0
    9.8807   43.3780  127.7543 C   0  0  0  0  0  0  0  0  0  0  0  0
   10.8766   44.2917  127.5233 C   0  0  0  0  0  0  0  0  0  0  0  0
   10.3442   45.6631  128.3842 S   0  0  0  0  0  0  0  0  0  0  0  0
 11 12  1  0  0  0
 12 13  2  0  0  0
 13 14  1  0  0  0
 14 15  2  0  0  0
 15  1  1  0  0  0
  1  2  1  0  0  0
  2  3  1  0  0  0
  3 19  1  0  0  0
 19 20  2  0  0  0
 20 21  1  0  0  0
 21 22  2  0  0  0
 22 23  1  0  0  0
  3  4  1  0  0  0
  4  5  1  0  0  0
  5  6  2  0  0  0
  6  7  1  0  0  0
  7  8  2  0  0  0
  8  9  1  0  0  0
 15 16  1  0  0  0
 16 17  2  0  0  0
 17 18  1  0  0  0
 17 12  1  0  0  0
  9  1  1  0  0  0
 23 19  1  0  0  0
  8  4  1  0  0  0
  9 10  1  0  0  0
M  END
> <minimizedAffinity>
-1.46586

> <CNNscore>
0.3078911901

> <CNNaffinity>
7.3654298782

> <CNN_VS>
2.2677509785

> <CNNaffinity_variance>
1.4135091305

$$$$
[H]c1nc2n(n1)C([H])(c1sc([H])c([H])c1[H])C([H])([H])C([H])(c1c([H])c([H])c(Cl)c(Cl)c1[H])N2[H]


 23 26  0  0  0  0  0  0  0  0999 V2000
    8.7394   45.6924  130.6350 C   0  0  0  0  0  0  0  0  0  0  0  0
    9.6320   46.6311  129.9002 C   0  0  0  0  0  0  0  0  0  0  0  0
    9.0120   47.9661  129.7071 C   0  0  0  0  0  0  0  0  0  0  0  0
    7.6080   47.9453  129.4445 N   0  0  0  0  0  0  0  0  0  0  0  0
    6.7872   48.9171  129.1027 N   0  0  0  0  0  0  0  0  0  0  0  0
    5.5393   48.4559  128.9517 C   0  0  0  0  0  0  0  0  0  0  0  0
    5.6157   47.1401  129.2166 N   0  0  0  0  0  0  0  0  0  0  0  0
    6.8749   46.7949  129.5231 C   0  0  0  0  0  0  0  0  0  0  0  0
    7.5090   45.5727  129.8779 N   0  0  0  0  0  0  0  0  0  0  0  0
    7.0606   44.6914  129.5790 H   0  0  0  0  0  0  0  0  0  0  0  0
   11.3494   40.4331  131.8498 Cl  0  0  0  0  0  0  0  0  0  0  0  0
   10.5756   41.9570  131.4860 C   0  0  0  0  0  0  0  0  0  0  0  0
    9.4363   41.9763  130.7158 C   0  0  0  0  0  0  0  0  0  0  0  0
    8.8376   43.2123  130.4405 C   0  0  0  0  0  0  0  0  0  0  0  0
    9.3548   44.3861  130.9149 C   0  0  0  0  0  0  0  0  0  0  0  0
   10.4962   44.3419  131.6840 C   0  0  0  0  0  0  0  0  0  0  0  0
   11.1212   43.1228  131.9791 C   0  0  0  0  0  0  0  0  0  0  0  0
   12.5725   43.0510  132.9552 Cl  0  0  0  0  0  0  0  0  0  0  0  0
    9.2704   48.8940  130.8705 C   0  0  0  0  0  0  0  0  0  0  0  0
    8.9323   50.2132  130.9727 C   0  0  0  0  0  0  0  0  0  0  0  0
    9.2609   50.8525  132.1011 C   0  0  0  0  0  0  0  0  0  0  0  0
    9.9126   50.1277  133.0657 C   0  0  0  0  0  0  0  0  0  0  0  0
   10.0414   48.5816  132.3602 S   0  0  0  0  0  0  0  0  0  0  0  0
 11 12  1  0  0  0
 12 13  2  0  0  0
 13 14  1  0  0  0
 14 15  2  0  0  0
 15  1  1  0  0  0
  1  2  1  0  0  0
  2  3  1  0  0  0
  3 19  1  0  0  0
 19 20  2  0  0  0
 20 21  1  0  0  0
 21 22  2  0  0  0
 22 23  1  0  0  0
  3  4  1  0  0  0
  4  5  1  0  0  0
  5  6  2  0  0  0
  6  7  1  0  0  0
  7  8  2  0  0  0
  8  9  1  0  0  0
 15 16  1  0  0  0
 16 17  2  0  0  0
 17 18  1  0  0  0
 17 12  1  0  0  0
  9  1  1  0  0  0
 23 19  1  0  0  0
  8  4  1  0  0  0
  9 10  1  0  0  0
M  END
> <minimizedAffinity>
-3.78739

> <CNNscore>
0.2743021846

> <CNNaffinity>
7.1139669418

> <CNN_VS>
1.9513766766

> <CNNaffinity_variance>
0.3199381232

$$$$
[H]c1nc2n(n1)C([H])(c1sc([H])c([H])c1[H])C([H])([H])C([H])(c1c([H])c([H])c(Cl)c(Cl)c1[H])N2[H]


 23 26  0  0  0  0  0  0  0  0999 V2000
    9.9845   44.5083  131.1765 C   0  0  0  0  0  0  0  0  0  0  0  0
   10.6301   45.7425  130.6496 C   0  0  0  0  0  0  0  0  0  0  0  0
   10.1297   46.1107  129.3013 C   0  0  0  0  0  0  0  0  0  0  0  0
    9.8631   45.0058  128.4359 N   0  0  0  0  0  0  0  0  0  0  0  0
    9.5420   44.9776  127.1588 N   0  0  0  0  0  0  0  0  0  0  0  0
    9.3815   43.7175  126.7355 C   0  0  0  0  0  0  0  0  0  0  0  0
    9.6184   42.9509  127.8141 N   0  0  0  0  0  0  0  0  0  0  0  0
    9.9174   43.7134  128.8760 C   0  0  0  0  0  0  0  0  0  0  0  0
   10.2442   43.4392  130.2324 N   0  0  0  0  0  0  0  0  0  0  0  0
   10.6393   42.5114  130.4560 H   0  0  0  0  0  0  0  0  0  0  0  0
   11.7944   43.1553  136.7300 Cl  0  0  0  0  0  0  0  0  0  0  0  0
   11.2506   43.5412  135.1148 C   0  0  0  0  0  0  0  0  0  0  0  0
   10.0014   43.1404  134.7022 C   0  0  0  0  0  0  0  0  0  0  0  0
    9.5922   43.4638  133.4022 C   0  0  0  0  0  0  0  0  0  0  0  0
   10.3980   44.1608  132.5446 C   0  0  0  0  0  0  0  0  0  0  0  0
   11.6445   44.5516  132.9800 C   0  0  0  0  0  0  0  0  0  0  0  0
   12.0861   44.2451  134.2742 C   0  0  0  0  0  0  0  0  0  0  0  0
   13.6679   44.7349  134.8416 Cl  0  0  0  0  0  0  0  0  0  0  0  0
    8.8974   46.9817  129.3633 C   0  0  0  0  0  0  0  0  0  0  0  0
    8.8409   48.3458  129.3277 C   0  0  0  0  0  0  0  0  0  0  0  0
    7.6341   48.9190  129.3983 C   0  0  0  0  0  0  0  0  0  0  0  0
    6.5493   48.0866  129.5009 C   0  0  0  0  0  0  0  0  0  0  0  0
    7.2558   46.5355  129.4948 S   0  0  0  0  0  0  0  0  0  0  0  0
 11 12  1  0  0  0
 12 13  2  0  0  0
 13 14  1  0  0  0
 14 15  2  0  0  0
 15  1  1  0  0  0
  1  2  1  0  0  0
  2  3  1  0  0  0
  3 19  1  0  0  0
 19 20  2  0  0  0
 20 21  1  0  0  0
 21 22  2  0  0  0
 22 23  1  0  0  0
  3  4  1  0  0  0
  4  5  1  0  0  0
  5  6  2  0  0  0
  6  7  1  0  0  0
  7  8  2  0  0  0
  8  9  1  0  0  0
 15 16  1  0  0  0
 16 17  2  0  0  0
 17 18  1  0  0  0
 17 12  1  0  0  0
  9  1  1  0  0  0
 23 19  1  0  0  0
  8  4  1  0  0  0
  9 10  1  0  0  0
M  END
> <minimizedAffinity>
2.35323

> <CNNscore>
0.2676548660

> <CNNaffinity>
6.9854073524

> <CNN_VS>
1.8696782589

> <CNNaffinity_variance>
0.5063674450

$$$$
[H]c1nc2n(n1)C([H])(c1sc([H])c([H])c1[H])C([H])([H])C([H])(c1c([H])c([H])c(Cl)c(Cl)c1[H])N2[H]


 23 26  0  0  0  0  0  0  0  0999 V2000
   10.3318   45.7608  130.7433 C   0  0  0  0  0  0  0  0  0  0  0  0
    8.8547   45.8259  130.5650 C   0  0  0  0  0  0  0  0  0  0  0  0
    8.1920   46.6253  131.6259 C   0  0  0  0  0  0  0  0  0  0  0  0
    8.7595   46.4836  132.9292 N   0  0  0  0  0  0  0  0  0  0  0  0
    8.3469   46.9356  134.0956 N   0  0  0  0  0  0  0  0  0  0  0  0
    9.1848   46.5673  135.0729 C   0  0  0  0  0  0  0  0  0  0  0  0
   10.1492   45.8581  134.4612 N   0  0  0  0  0  0  0  0  0  0  0  0
    9.9164   45.7884  133.1423 C   0  0  0  0  0  0  0  0  0  0  0  0
   10.5920   45.1832  132.0473 N   0  0  0  0  0  0  0  0  0  0  0  0
   11.2151   44.3838  132.2463 H   0  0  0  0  0  0  0  0  0  0  0  0
   13.2932   42.8633  126.4093 Cl  0  0  0  0  0  0  0  0  0  0  0  0
   12.4141   43.7048  127.6634 C   0  0  0  0  0  0  0  0  0  0  0  0
   11.0493   43.8425  127.5641 C   0  0  0  0  0  0  0  0  0  0  0  0
   10.3710   44.5217  128.5843 C   0  0  0  0  0  0  0  0  0  0  0  0
   11.0282   45.0445  129.6637 C   0  0  0  0  0  0  0  0  0  0  0  0
   12.3947   44.8941  129.7415 C   0  0  0  0  0  0  0  0  0  0  0  0
   13.1052   44.2203  128.7389 C   0  0  0  0  0  0  0  0  0  0  0  0
   14.8421   44.0214  128.8240 Cl  0  0  0  0  0  0  0  0  0  0  0  0
    8.1308   48.0953  131.2849 C   0  0  0  0  0  0  0  0  0  0  0  0
    8.9057   49.0993  131.7915 C   0  0  0  0  0  0  0  0  0  0  0  0
    8.6801   50.3413  131.3484 C   0  0  0  0  0  0  0  0  0  0  0  0
    7.6858   50.5046  130.4184 C   0  0  0  0  0  0  0  0  0  0  0  0
    7.1040   48.9177  130.1983 S   0  0  0  0  0  0  0  0  0  0  0  0
 11 12  1  0  0  0
 12 13  2  0  0  0
 13 14  1  0  0  0
 14 15  2  0  0  0
 15  1  1  0  0  0
  1  2  1  0  0  0
  2  3  1  0  0  0
  3 19  1  0  0  0
 19 20  2  0  0  0
 20 21  1  0  0  0
 21 22  2  0  0  0
 22 23  1  0  0  0
  3  4  1  0  0  0
  4  5  1  0  0  0
  5  6  2  0  0  0
  6  7  1  0  0  0
  7  8  2  0  0  0
  8  9  1  0  0  0
 15 16  1  0  0  0
 16 17  2  0  0  0
 17 18  1  0  0  0
 17 12  1  0  0  0
  9  1  1  0  0  0
 23 19  1  0  0  0
  8  4  1  0  0  0
  9 10  1  0  0  0
M  END
> <minimizedAffinity>
2.85601

> <CNNscore>
0.2122032493

> <CNNaffinity>
7.0448698997

> <CNN_VS>
1.4949443340

> <CNNaffinity_variance>
0.9007977247

$$$$
[H]c1nc2n(n1)C([H])(c1sc([H])c([H])c1[H])C([H])([H])C([H])(c1c([H])c([H])c(Cl)c(Cl)c1[H])N2[H]


 23 26  0  0  0  0  0  0  0  0999 V2000
    8.3708   46.4812  129.8746 C   0  0  0  0  0  0  0  0  0  0  0  0
    9.3957   47.4781  129.4578 C   0  0  0  0  0  0  0  0  0  0  0  0
    8.9962   48.8699  129.7851 C   0  0  0  0  0  0  0  0  0  0  0  0
    7.6047   49.1502  129.6244 N   0  0  0  0  0  0  0  0  0  0  0  0
    6.9474   50.2892  129.6988 N   0  0  0  0  0  0  0  0  0  0  0  0
    5.6403   50.1004  129.4781 C   0  0  0  0  0  0  0  0  0  0  0  0
    5.5071   48.7805  129.2603 N   0  0  0  0  0  0  0  0  0  0  0  0
    6.6972   48.1680  129.3434 C   0  0  0  0  0  0  0  0  0  0  0  0
    7.1302   46.8207  129.2058 N   0  0  0  0  0  0  0  0  0  0  0  0
    6.5436   46.1794  128.6475 H   0  0  0  0  0  0  0  0  0  0  0  0
    9.9107   40.7511  129.0127 Cl  0  0  0  0  0  0  0  0  0  0  0  0
    9.4742   42.4263  129.2508 C   0  0  0  0  0  0  0  0  0  0  0  0
   10.0973   43.4047  128.5120 C   0  0  0  0  0  0  0  0  0  0  0  0
    9.7270   44.7389  128.7242 C   0  0  0  0  0  0  0  0  0  0  0  0
    8.7712   45.0856  129.6388 C   0  0  0  0  0  0  0  0  0  0  0  0
    8.1610   44.0887  130.3667 C   0  0  0  0  0  0  0  0  0  0  0  0
    8.5069   42.7435  130.1802 C   0  0  0  0  0  0  0  0  0  0  0  0
    7.7401   41.4655  131.0982 Cl  0  0  0  0  0  0  0  0  0  0  0  0
    9.4107   49.2744  131.1799 C   0  0  0  0  0  0  0  0  0  0  0  0
    9.2712   50.4999  131.7662 C   0  0  0  0  0  0  0  0  0  0  0  0
    9.7123   50.6414  133.0213 C   0  0  0  0  0  0  0  0  0  0  0  0
   10.2704   49.5401  133.6179 C   0  0  0  0  0  0  0  0  0  0  0  0
   10.1577   48.3493  132.4037 S   0  0  0  0  0  0  0  0  0  0  0  0
 11 12  1  0  0  0
 12 13  2  0  0  0
 13 14  1  0  0  0
 14 15  2  0  0  0
 15  1  1  0  0  0
  1  2  1  0  0  0
  2  3  1  0  0  0
  3 19  1  0  0  0
 19 20  2  0  0  0
 20 21  1  0  0  0
 21 22  2  0  0  0
 22 23  1  0  0  0
  3  4  1  0  0  0
  4  5  1  0  0  0
  5  6  2  0  0  0
  6  7  1  0  0  0
  7  8  2  0  0  0
  8  9  1  0  0  0
 15 16  1  0  0  0
 16 17  2  0  0  0
 17 18  1  0  0  0
 17 12  1  0  0  0
  9  1  1  0  0  0
 23 19  1  0  0  0
  8  4  1  0  0  0
  9 10  1  0  0  0
M  END
> <minimizedAffinity>
-0.33104

> <CNNscore>
0.1641312093

> <CNNaffinity>
6.6628928185

> <CNN_VS>
1.0935887098

> <CNNaffinity_variance>
0.1555305719

$$$$
[H]c1nc([H])c2c(c1[H])c1c([H])nc(N([H])c3nnc(N([H])C([H])([H])C4([H])C([H])([H])N([H])C4([H])[H])c([H])c3[H])nc1n2C1([H])C([H])([H])C([H])([H])C([H])([H])C1([H])[H]


 34 39  0  0  0  0  0  0  0  0999 V2000
   12.3552   43.8234  133.8903 C   0  0  0  0  0  0  0  0  0  0  0  0
   11.8529   45.1123  133.9034 C   0  0  0  0  0  0  0  0  0  0  0  0
   11.1993   45.6017  132.7932 C   0  0  0  0  0  0  0  0  0  0  0  0
   10.6199   46.8151  132.5489 C   0  0  0  0  0  0  0  0  0  0  0  0
   10.4579   47.9922  133.2760 C   0  0  0  0  0  0  0  0  0  0  0  0
    9.8154   49.0241  132.7074 N   0  0  0  0  0  0  0  0  0  0  0  0
    9.3089   48.9919  131.4563 C   0  0  0  0  0  0  0  0  0  0  0  0
    9.4514   47.8693  130.7345 N   0  0  0  0  0  0  0  0  0  0  0  0
   10.0944   46.8070  131.2755 C   0  0  0  0  0  0  0  0  0  0  0  0
   10.3637   45.5745  130.7542 N   0  0  0  0  0  0  0  0  0  0  0  0
   11.0264   44.8433  131.6568 C   0  0  0  0  0  0  0  0  0  0  0  0
   11.5399   43.5625  131.6783 C   0  0  0  0  0  0  0  0  0  0  0  0
   12.1694   43.1046  132.7605 N   0  0  0  0  0  0  0  0  0  0  0  0
    9.9969   45.1147  129.4340 C   0  0  0  0  0  0  0  0  0  0  0  0
    9.1765   43.8509  129.4581 C   0  0  0  0  0  0  0  0  0  0  0  0
    9.5972   43.0359  128.2682 C   0  0  0  0  0  0  0  0  0  0  0  0
   10.8324   43.6563  127.6956 C   0  0  0  0  0  0  0  0  0  0  0  0
   11.1687   44.8635  128.5390 C   0  0  0  0  0  0  0  0  0  0  0  0
    8.6334   50.1451  130.9235 N   0  0  0  0  0  0  0  0  0  0  0  0
    9.1065   51.0724  130.9854 H   0  0  0  0  0  0  0  0  0  0  0  0
    7.3557   50.0490  130.3242 C   0  0  0  0  0  0  0  0  0  0  0  0
    6.9730   49.0010  129.5187 C   0  0  0  0  0  0  0  0  0  0  0  0
    5.7113   48.9376  128.9463 C   0  0  0  0  0  0  0  0  0  0  0  0
    4.8080   49.9511  129.1865 C   0  0  0  0  0  0  0  0  0  0  0  0
    5.2296   50.9620  129.9857 N   0  0  0  0  0  0  0  0  0  0  0  0
    6.4366   51.0066  130.5235 N   0  0  0  0  0  0  0  0  0  0  0  0
    3.4983   49.9505  128.6323 N   0  0  0  0  0  0  0  0  0  0  0  0
    2.7398   49.4440  129.1095 H   0  0  0  0  0  0  0  0  0  0  0  0
    3.2311   50.6597  127.4015 C   0  0  0  0  0  0  0  0  0  0  0  0
    2.2106   51.7594  127.5992 C   0  0  0  0  0  0  0  0  0  0  0  0
    2.2025   52.7376  126.4457 C   0  0  0  0  0  0  0  0  0  0  0  0
    0.7414   52.7238  126.4596 N   0  0  0  0  0  0  0  0  0  0  0  0
    0.8248   51.4170  127.1129 C   0  0  0  0  0  0  0  0  0  0  0  0
    0.3632   52.5916  125.4859 H   0  0  0  0  0  0  0  0  0  0  0  0
  1  2  2  0  0  0
  2  3  1  0  0  0
  3  4  1  0  0  0
  4  5  2  0  0  0
  5  6  1  0  0  0
  6  7  2  0  0  0
  7 19  1  0  0  0
 19 21  1  0  0  0
 21 22  2  0  0  0
 22 23  1  0  0  0
 23 24  2  0  0  0
 24 27  1  0  0  0
 27 29  1  0  0  0
 29 30  1  0  0  0
 30 31  1  0  0  0
 31 32  1  0  0  0
 32 33  1  0  0  0
 24 25  1  0  0  0
 25 26  2  0  0  0
  7  8  1  0  0  0
  8  9  2  0  0  0
  9 10  1  0  0  0
 10 14  1  0  0  0
 14 15  1  0  0  0
 15 16  1  0  0  0
 16 17  1  0  0  0
 17 18  1  0  0  0
 10 11  1  0  0  0
 11 12  1  0  0  0
 12 13  2  0  0  0
 13  1  1  0  0  0
 11  3  2  0  0  0
  9  4  1  0  0  0
 18 14  1  0  0  0
 26 21  1  0  0  0
 33 30  1  0  0  0
 19 20  1  0  0  0
 27 28  1  0  0  0
 32 34  1  0  0  0
M  END
> <minimizedAffinity>
-0.22195

> <CNNscore>
0.4542602897

> <CNNaffinity>
7.6624689102

> <CNN_VS>
3.4807553291

> <CNNaffinity_variance>
0.1765047014

$$$$
[H]c1nc([H])c2c(c1[H])c1c([H])nc(N([H])c3nnc(N([H])C([H])([H])C4([H])C([H])([H])N([H])C4([H])[H])c([H])c3[H])nc1n2C1([H])C([H])([H])C([H])([H])C([H])([H])C1([H])[H]


 34 39  0  0  0  0  0  0  0  0999 V2000
    9.9006   51.0955  133.0962 C   0  0  0  0  0  0  0  0  0  0  0  0
    9.1578   50.2691  132.2722 C   0  0  0  0  0  0  0  0  0  0  0  0
    9.3482   48.9051  132.3223 C   0  0  0  0  0  0  0  0  0  0  0  0
    8.7577   47.8854  131.6300 C   0  0  0  0  0  0  0  0  0  0  0  0
    7.7764   47.8041  130.6447 C   0  0  0  0  0  0  0  0  0  0  0  0
    7.4270   46.5971  130.1734 N   0  0  0  0  0  0  0  0  0  0  0  0
    7.9754   45.4399  130.6011 C   0  0  0  0  0  0  0  0  0  0  0  0
    8.9232   45.4906  131.5501 N   0  0  0  0  0  0  0  0  0  0  0  0
    9.3017   46.6913  132.0497 C   0  0  0  0  0  0  0  0  0  0  0  0
   10.2275   47.0025  133.0033 N   0  0  0  0  0  0  0  0  0  0  0  0
   10.2634   48.3284  133.1746 C   0  0  0  0  0  0  0  0  0  0  0  0
   10.9869   49.1821  133.9822 C   0  0  0  0  0  0  0  0  0  0  0  0
   10.7904   50.4992  133.9212 N   0  0  0  0  0  0  0  0  0  0  0  0
   11.0497   46.0585  133.7254 C   0  0  0  0  0  0  0  0  0  0  0  0
   12.0490   45.3542  132.8445 C   0  0  0  0  0  0  0  0  0  0  0  0
   12.1624   43.9455  133.3543 C   0  0  0  0  0  0  0  0  0  0  0  0
   11.0591   43.7196  134.3394 C   0  0  0  0  0  0  0  0  0  0  0  0
   10.2660   45.0016  134.4368 C   0  0  0  0  0  0  0  0  0  0  0  0
    7.5415   44.1878  130.0410 N   0  0  0  0  0  0  0  0  0  0  0  0
    6.5527   43.8915  130.1893 H   0  0  0  0  0  0  0  0  0  0  0  0
    8.4177   43.3592  129.3015 C   0  0  0  0  0  0  0  0  0  0  0  0
    9.1068   42.3027  129.8514 C   0  0  0  0  0  0  0  0  0  0  0  0
    9.9588   41.5096  129.0974 C   0  0  0  0  0  0  0  0  0  0  0  0
   10.1258   41.7815  127.7561 C   0  0  0  0  0  0  0  0  0  0  0  0
    9.4267   42.8315  127.2590 N   0  0  0  0  0  0  0  0  0  0  0  0
    8.6183   43.5776  127.9924 N   0  0  0  0  0  0  0  0  0  0  0  0
   10.9829   41.0100  126.9240 N   0  0  0  0  0  0  0  0  0  0  0  0
   11.8975   41.3872  126.6399 H   0  0  0  0  0  0  0  0  0  0  0  0
   10.5720   39.6981  126.4773 C   0  0  0  0  0  0  0  0  0  0  0  0
   11.6446   39.0282  125.6463 C   0  0  0  0  0  0  0  0  0  0  0  0
   12.7961   39.9627  125.3492 C   0  0  0  0  0  0  0  0  0  0  0  0
   13.7342   38.8837  125.6506 N   0  0  0  0  0  0  0  0  0  0  0  0
   12.6721   38.2714  126.4497 C   0  0  0  0  0  0  0  0  0  0  0  0
   14.4921   39.2223  126.2981 H   0  0  0  0  0  0  0  0  0  0  0  0
  1  2  2  0  0  0
  2  3  1  0  0  0
  3  4  1  0  0  0
  4  5  2  0  0  0
  5  6  1  0  0  0
  6  7  2  0  0  0
  7 19  1  0  0  0
 19 21  1  0  0  0
 21 22  2  0  0  0
 22 23  1  0  0  0
 23 24  2  0  0  0
 24 27  1  0  0  0
 27 29  1  0  0  0
 29 30  1  0  0  0
 30 31  1  0  0  0
 31 32  1  0  0  0
 32 33  1  0  0  0
 24 25  1  0  0  0
 25 26  2  0  0  0
  7  8  1  0  0  0
  8  9  2  0  0  0
  9 10  1  0  0  0
 10 14  1  0  0  0
 14 15  1  0  0  0
 15 16  1  0  0  0
 16 17  1  0  0  0
 17 18  1  0  0  0
 10 11  1  0  0  0
 11 12  1  0  0  0
 12 13  2  0  0  0
 13  1  1  0  0  0
 11  3  2  0  0  0
  9  4  1  0  0  0
 18 14  1  0  0  0
 26 21  1  0  0  0
 33 30  1  0  0  0
 19 20  1  0  0  0
 27 28  1  0  0  0
 32 34  1  0  0  0
M  END
> <minimizedAffinity>
14.80468

> <CNNscore>
0.4374789596

> <CNNaffinity>
7.7601227760

> <CNN_VS>
3.3948905468

> <CNNaffinity_variance>
0.9549977183

$$$$
[H]c1nc([H])c2c(c1[H])c1c([H])nc(N([H])c3nnc(N([H])C([H])([H])C4([H])C([H])([H])N([H])C4([H])[H])c([H])c3[H])nc1n2C1([H])C([H])([H])C([H])([H])C([H])([H])C1([H])[H]


 34 39  0  0  0  0  0  0  0  0999 V2000
    8.7055   49.0050  134.5068 C   0  0  0  0  0  0  0  0  0  0  0  0
    8.2714   48.5214  133.2856 C   0  0  0  0  0  0  0  0  0  0  0  0
    8.8160   47.3618  132.7778 C   0  0  0  0  0  0  0  0  0  0  0  0
    8.5707   46.6819  131.6178 C   0  0  0  0  0  0  0  0  0  0  0  0
    7.7193   46.8662  130.5308 C   0  0  0  0  0  0  0  0  0  0  0  0
    7.7401   45.9722  129.5301 N   0  0  0  0  0  0  0  0  0  0  0  0
    8.5467   44.8897  129.5112 C   0  0  0  0  0  0  0  0  0  0  0  0
    9.3767   44.6891  130.5467 N   0  0  0  0  0  0  0  0  0  0  0  0
    9.3834   45.5705  131.5751 C   0  0  0  0  0  0  0  0  0  0  0  0
   10.1222   45.5877  132.7228 N   0  0  0  0  0  0  0  0  0  0  0  0
    9.7896   46.6585  133.4517 C   0  0  0  0  0  0  0  0  0  0  0  0
   10.1989   47.1693  134.6666 C   0  0  0  0  0  0  0  0  0  0  0  0
    9.6617   48.2922  135.1435 N   0  0  0  0  0  0  0  0  0  0  0  0
   11.1139   44.6089  133.1064 C   0  0  0  0  0  0  0  0  0  0  0  0
   10.5144   43.3844  133.7484 C   0  0  0  0  0  0  0  0  0  0  0  0
   11.4700   42.9426  134.8203 C   0  0  0  0  0  0  0  0  0  0  0  0
   12.4832   44.0266  135.0126 C   0  0  0  0  0  0  0  0  0  0  0  0
   12.1480   45.1397  134.0478 C   0  0  0  0  0  0  0  0  0  0  0  0
    8.5047   43.9805  128.3969 N   0  0  0  0  0  0  0  0  0  0  0  0
    7.5750   43.6590  128.0508 H   0  0  0  0  0  0  0  0  0  0  0  0
    9.6845   43.5185  127.7678 C   0  0  0  0  0  0  0  0  0  0  0  0
   10.8429   44.2575  127.6929 C   0  0  0  0  0  0  0  0  0  0  0  0
   11.9829   43.7742  127.0682 C   0  0  0  0  0  0  0  0  0  0  0  0
   11.9629   42.5168  126.5029 C   0  0  0  0  0  0  0  0  0  0  0  0
   10.8002   41.8264  126.6015 N   0  0  0  0  0  0  0  0  0  0  0  0
    9.7222   42.3025  127.2009 N   0  0  0  0  0  0  0  0  0  0  0  0
   13.0949   41.9590  125.8471 N   0  0  0  0  0  0  0  0  0  0  0  0
   13.7486   42.5726  125.3416 H   0  0  0  0  0  0  0  0  0  0  0  0
   13.3283   40.5331  125.8898 C   0  0  0  0  0  0  0  0  0  0  0  0
   12.0386   39.7508  125.7682 C   0  0  0  0  0  0  0  0  0  0  0  0
   11.8513   39.1813  124.3797 C   0  0  0  0  0  0  0  0  0  0  0  0
   11.4158   37.9174  124.9696 N   0  0  0  0  0  0  0  0  0  0  0  0
   12.1482   38.3033  126.1763 C   0  0  0  0  0  0  0  0  0  0  0  0
   11.9128   37.1070  124.5170 H   0  0  0  0  0  0  0  0  0  0  0  0
  1  2  2  0  0  0
  2  3  1  0  0  0
  3  4  1  0  0  0
  4  5  2  0  0  0
  5  6  1  0  0  0
  6  7  2  0  0  0
  7 19  1  0  0  0
 19 21  1  0  0  0
 21 22  2  0  0  0
 22 23  1  0  0  0
 23 24  2  0  0  0
 24 27  1  0  0  0
 27 29  1  0  0  0
 29 30  1  0  0  0
 30 31  1  0  0  0
 31 32  1  0  0  0
 32 33  1  0  0  0
 24 25  1  0  0  0
 25 26  2  0  0  0
  7  8  1  0  0  0
  8  9  2  0  0  0
  9 10  1  0  0  0
 10 14  1  0  0  0
 14 15  1  0  0  0
 15 16  1  0  0  0
 16 17  1  0  0  0
 17 18  1  0  0  0
 10 11  1  0  0  0
 11 12  1  0  0  0
 12 13  2  0  0  0
 13  1  1  0  0  0
 11  3  2  0  0  0
  9  4  1  0  0  0
 18 14  1  0  0  0
 26 21  1  0  0  0
 33 30  1  0  0  0
 19 20  1  0  0  0
 27 28  1  0  0  0
 32 34  1  0  0  0
M  END
> <minimizedAffinity>
24.64090

> <CNNscore>
0.3533001542

> <CNNaffinity>
7.4234018326

> <CNN_VS>
2.6226890087

> <CNNaffinity_variance>
0.6838589907

$$$$
[H]c1nc([H])c2c(c1[H])c1c([H])nc(N([H])c3nnc(N([H])C([H])([H])C4([H])C([H])([H])N([H])C4([H])[H])c([H])c3[H])nc1n2C1([H])C([H])([H])C([H])([H])C([H])([H])C1([H])[H]


 34 39  0  0  0  0  0  0  0  0999 V2000
   10.2195   49.8441  134.3923 C   0  0  0  0  0  0  0  0  0  0  0  0
    9.7690   49.6112  133.1053 C   0  0  0  0  0  0  0  0  0  0  0  0
    9.8473   48.3421  132.5738 C   0  0  0  0  0  0  0  0  0  0  0  0
    9.4805   47.8511  131.3521 C   0  0  0  0  0  0  0  0  0  0  0  0
    8.9092   48.3955  130.2043 C   0  0  0  0  0  0  0  0  0  0  0  0
    8.6780   47.5959  129.1515 N   0  0  0  0  0  0  0  0  0  0  0  0
    8.9688   46.2777  129.1356 C   0  0  0  0  0  0  0  0  0  0  0  0
    9.5200   45.7284  130.2293 N   0  0  0  0  0  0  0  0  0  0  0  0
    9.7679   46.5045  131.3113 C   0  0  0  0  0  0  0  0  0  0  0  0
   10.3125   46.1886  132.5225 N   0  0  0  0  0  0  0  0  0  0  0  0
   10.3647   47.2842  133.2876 C   0  0  0  0  0  0  0  0  0  0  0  0
   10.8046   47.5522  134.5679 C   0  0  0  0  0  0  0  0  0  0  0  0
   10.7217   48.7856  135.0670 N   0  0  0  0  0  0  0  0  0  0  0  0
   10.7673   44.8791  132.9310 C   0  0  0  0  0  0  0  0  0  0  0  0
   12.1160   44.5208  132.3625 C   0  0  0  0  0  0  0  0  0  0  0  0
   12.0853   43.0488  132.0630 C   0  0  0  0  0  0  0  0  0  0  0  0
   10.6691   42.5814  132.1838 C   0  0  0  0  0  0  0  0  0  0  0  0
    9.8262   43.7758  132.5645 C   0  0  0  0  0  0  0  0  0  0  0  0
    8.6875   45.4928  127.9631 N   0  0  0  0  0  0  0  0  0  0  0  0
    8.0650   45.8969  127.2306 H   0  0  0  0  0  0  0  0  0  0  0  0
    9.2314   44.1991  127.7847 C   0  0  0  0  0  0  0  0  0  0  0  0
   10.4306   43.7993  128.3284 C   0  0  0  0  0  0  0  0  0  0  0  0
   10.9355   42.5224  128.1337 C   0  0  0  0  0  0  0  0  0  0  0  0
   10.2206   41.6209  127.3740 C   0  0  0  0  0  0  0  0  0  0  0  0
    9.0455   42.0597  126.8592 N   0  0  0  0  0  0  0  0  0  0  0  0
    8.5787   43.2811  127.0548 N   0  0  0  0  0  0  0  0  0  0  0  0
   10.6785   40.2961  127.1337 N   0  0  0  0  0  0  0  0  0  0  0  0
   11.6102   40.0080  127.4630 H   0  0  0  0  0  0  0  0  0  0  0  0
    9.8380   39.3548  126.4289 C   0  0  0  0  0  0  0  0  0  0  0  0
    9.9323   39.5339  124.9292 C   0  0  0  0  0  0  0  0  0  0  0  0
   10.8293   38.4968  124.2909 C   0  0  0  0  0  0  0  0  0  0  0  0
    9.8479   38.3227  123.2225 N   0  0  0  0  0  0  0  0  0  0  0  0
    8.8423   38.8418  124.1502 C   0  0  0  0  0  0  0  0  0  0  0  0
    9.6590   37.3003  123.0564 H   0  0  0  0  0  0  0  0  0  0  0  0
  1  2  2  0  0  0
  2  3  1  0  0  0
  3  4  1  0  0  0
  4  5  2  0  0  0
  5  6  1  0  0  0
  6  7  2  0  0  0
  7 19  1  0  0  0
 19 21  1  0  0  0
 21 22  2  0  0  0
 22 23  1  0  0  0
 23 24  2  0  0  0
 24 27  1  0  0  0
 27 29  1  0  0  0
 29 30  1  0  0  0
 30 31  1  0  0  0
 31 32  1  0  0  0
 32 33  1  0  0  0
 24 25  1  0  0  0
 25 26  2  0  0  0
  7  8  1  0  0  0
  8  9  2  0  0  0
  9 10  1  0  0  0
 10 14  1  0  0  0
 14 15  1  0  0  0
 15 16  1  0  0  0
 16 17  1  0  0  0
 17 18  1  0  0  0
 10 11  1  0  0  0
 11 12  1  0  0  0
 12 13  2  0  0  0
 13  1  1  0  0  0
 11  3  2  0  0  0
  9  4  1  0  0  0
 18 14  1  0  0  0
 26 21  1  0  0  0
 33 30  1  0  0  0
 19 20  1  0  0  0
 27 28  1  0  0  0
 32 34  1  0  0  0
M  END
> <minimizedAffinity>
20.21938

> <CNNscore>
0.3289834261

> <CNNaffinity>
7.4024338722

> <CNN_VS>
2.4352779388

> <CNNaffinity_variance>
0.2275640517

$$$$
[H]c1nc([H])c2c(c1[H])c1c([H])nc(N([H])c3nnc(N([H])C([H])([H])C4([H])C([H])([H])N([H])C4([H])[H])c([H])c3[H])nc1n2C1([H])C([H])([H])C([H])([H])C([H])([H])C1([H])[H]


 34 39  0  0  0  0  0  0  0  0999 V2000
    9.1966   52.4342  132.4960 C   0  0  0  0  0  0  0  0  0  0  0  0
    8.7358   51.6480  131.4552 C   0  0  0  0  0  0  0  0  0  0  0  0
    8.8682   50.2780  131.5240 C   0  0  0  0  0  0  0  0  0  0  0  0
    8.5052   49.2912  130.6509 C   0  0  0  0  0  0  0  0  0  0  0  0
    7.8873   49.2603  129.4028 C   0  0  0  0  0  0  0  0  0  0  0  0
    7.6780   48.0744  128.8105 N   0  0  0  0  0  0  0  0  0  0  0  0
    8.0342   46.8924  129.3569 C   0  0  0  0  0  0  0  0  0  0  0  0
    8.6312   46.8945  130.5590 N   0  0  0  0  0  0  0  0  0  0  0  0
    8.8589   48.0726  131.1873 C   0  0  0  0  0  0  0  0  0  0  0  0
    9.4398   48.3356  132.3942 N   0  0  0  0  0  0  0  0  0  0  0  0
    9.4504   49.6561  132.6061 C   0  0  0  0  0  0  0  0  0  0  0  0
    9.8988   50.4705  133.6259 C   0  0  0  0  0  0  0  0  0  0  0  0
    9.7629   51.7941  133.5435 N   0  0  0  0  0  0  0  0  0  0  0  0
    9.9667   47.3522  133.3129 C   0  0  0  0  0  0  0  0  0  0  0  0
   10.2269   46.0185  132.6614 C   0  0  0  0  0  0  0  0  0  0  0  0
    9.8884   44.9643  133.6769 C   0  0  0  0  0  0  0  0  0  0  0  0
    9.1781   45.6283  134.8141 C   0  0  0  0  0  0  0  0  0  0  0  0
    9.0846   47.1018  134.4946 C   0  0  0  0  0  0  0  0  0  0  0  0
    7.7720   45.6657  128.6522 N   0  0  0  0  0  0  0  0  0  0  0  0
    7.1119   45.6860  127.8452 H   0  0  0  0  0  0  0  0  0  0  0  0
    8.3838   44.4464  129.0265 C   0  0  0  0  0  0  0  0  0  0  0  0
    9.3309   43.8068  128.2600 C   0  0  0  0  0  0  0  0  0  0  0  0
    9.9112   42.6113  128.6568 C   0  0  0  0  0  0  0  0  0  0  0  0
    9.5333   42.0403  129.8534 C   0  0  0  0  0  0  0  0  0  0  0  0
    8.5976   42.7063  130.5739 N   0  0  0  0  0  0  0  0  0  0  0  0
    8.0543   43.8457  130.1806 N   0  0  0  0  0  0  0  0  0  0  0  0
   10.0869   40.8168  130.3215 N   0  0  0  0  0  0  0  0  0  0  0  0
    9.8480   39.9328  129.8514 H   0  0  0  0  0  0  0  0  0  0  0  0
   10.9839   40.8132  131.4550 C   0  0  0  0  0  0  0  0  0  0  0  0
   11.1458   42.1971  132.0452 C   0  0  0  0  0  0  0  0  0  0  0  0
   12.1436   42.2142  133.1817 C   0  0  0  0  0  0  0  0  0  0  0  0
   12.7182   43.4451  132.6431 N   0  0  0  0  0  0  0  0  0  0  0  0
   12.1673   43.0569  131.3442 C   0  0  0  0  0  0  0  0  0  0  0  0
   13.7678   43.3754  132.5997 H   0  0  0  0  0  0  0  0  0  0  0  0
  1  2  2  0  0  0
  2  3  1  0  0  0
  3  4  1  0  0  0
  4  5  2  0  0  0
  5  6  1  0  0  0
  6  7  2  0  0  0
  7 19  1  0  0  0
 19 21  1  0  0  0
 21 22  2  0  0  0
 22 23  1  0  0  0
 23 24  2  0  0  0
 24 27  1  0  0  0
 27 29  1  0  0  0
 29 30  1  0  0  0
 30 31  1  0  0  0
 31 32  1  0  0  0
 32 33  1  0  0  0
 24 25  1  0  0  0
 25 26  2  0  0  0
  7  8  1  0  0  0
  8  9  2  0  0  0
  9 10  1  0  0  0
 10 14  1  0  0  0
 14 15  1  0  0  0
 15 16  1  0  0  0
 16 17  1  0  0  0
 17 18  1  0  0  0
 10 11  1  0  0  0
 11 12  1  0  0  0
 12 13  2  0  0  0
 13  1  1  0  0  0
 11  3  2  0  0  0
  9  4  1  0  0  0
 18 14  1  0  0  0
 26 21  1  0  0  0
 33 30  1  0  0  0
 19 20  1  0  0  0
 27 28  1  0  0  0
 32 34  1  0  0  0
M  END
> <minimizedAffinity>
9.68037

> <CNNscore>
0.2870973945

> <CNNaffinity>
7.8099174500

> <CNN_VS>
2.2422070503

> <CNNaffinity_variance>
0.7000185251

$$$$
[H]c1nc([H])c2c(c1[H])c1c([H])nc(N([H])c3nnc(N([H])C([H])([H])C4([H])C([H])([H])N([H])C4([H])[H])c([H])c3[H])nc1n2C1([H])C([H])([H])C([H])([H])C([H])([H])C1([H])[H]


 34 39  0  0  0  0  0  0  0  0999 V2000
    8.9292   51.5494  132.3185 C   0  0  0  0  0  0  0  0  0  0  0  0
    8.5443   50.6191  131.3697 C   0  0  0  0  0  0  0  0  0  0  0  0
    8.9931   49.3197  131.4662 C   0  0  0  0  0  0  0  0  0  0  0  0
    8.7676   48.2262  130.6780 C   0  0  0  0  0  0  0  0  0  0  0  0
    8.0347   47.9835  129.5185 C   0  0  0  0  0  0  0  0  0  0  0  0
    8.0354   46.7473  128.9960 N   0  0  0  0  0  0  0  0  0  0  0  0
    8.7122   45.7093  129.5320 C   0  0  0  0  0  0  0  0  0  0  0  0
    9.4263   45.9167  130.6494 N   0  0  0  0  0  0  0  0  0  0  0  0
    9.4492   47.1515  131.2055 C   0  0  0  0  0  0  0  0  0  0  0  0
   10.0887   47.6094  132.3212 N   0  0  0  0  0  0  0  0  0  0  0  0
    9.8216   48.9093  132.4868 C   0  0  0  0  0  0  0  0  0  0  0  0
   10.1856   49.8629  133.4155 C   0  0  0  0  0  0  0  0  0  0  0  0
    9.7426   51.1156  133.3075 N   0  0  0  0  0  0  0  0  0  0  0  0
   10.9276   46.8250  133.1985 C   0  0  0  0  0  0  0  0  0  0  0  0
   11.5725   45.6536  132.5036 C   0  0  0  0  0  0  0  0  0  0  0  0
   11.6157   44.5277  133.4975 C   0  0  0  0  0  0  0  0  0  0  0  0
   10.7703   44.9128  134.6703 C   0  0  0  0  0  0  0  0  0  0  0  0
   10.2080   46.2875  134.3945 C   0  0  0  0  0  0  0  0  0  0  0  0
    8.6583   44.4150  128.9061 N   0  0  0  0  0  0  0  0  0  0  0  0
    7.7556   43.8931  128.9178 H   0  0  0  0  0  0  0  0  0  0  0  0
    9.7910   43.8418  128.2820 C   0  0  0  0  0  0  0  0  0  0  0  0
    9.7585   42.6449  127.6039 C   0  0  0  0  0  0  0  0  0  0  0  0
   10.8885   42.1106  127.0029 C   0  0  0  0  0  0  0  0  0  0  0  0
   12.0838   42.7931  127.0829 C   0  0  0  0  0  0  0  0  0  0  0  0
   12.0672   43.9672  127.7607 N   0  0  0  0  0  0  0  0  0  0  0  0
   10.9803   44.4623  128.3280 N   0  0  0  0  0  0  0  0  0  0  0  0
   13.2806   42.3040  126.4904 N   0  0  0  0  0  0  0  0  0  0  0  0
   13.3956   41.2946  126.3250 H   0  0  0  0  0  0  0  0  0  0  0  0
   14.3344   43.2217  126.1205 C   0  0  0  0  0  0  0  0  0  0  0  0
   15.3710   43.3544  127.2149 C   0  0  0  0  0  0  0  0  0  0  0  0
   14.8600   44.1691  128.3822 C   0  0  0  0  0  0  0  0  0  0  0  0
   15.4402   43.1932  129.3021 N   0  0  0  0  0  0  0  0  0  0  0  0
   15.3737   42.2214  128.2100 C   0  0  0  0  0  0  0  0  0  0  0  0
   14.7415   42.9200  130.0409 H   0  0  0  0  0  0  0  0  0  0  0  0
  1  2  2  0  0  0
  2  3  1  0  0  0
  3  4  1  0  0  0
  4  5  2  0  0  0
  5  6  1  0  0  0
  6  7  2  0  0  0
  7 19  1  0  0  0
 19 21  1  0  0  0
 21 22  2  0  0  0
 22 23  1  0  0  0
 23 24  2  0  0  0
 24 27  1  0  0  0
 27 29  1  0  0  0
 29 30  1  0  0  0
 30 31  1  0  0  0
 31 32  1  0  0  0
 32 33  1  0  0  0
 24 25  1  0  0  0
 25 26  2  0  0  0
  7  8  1  0  0  0
  8  9  2  0  0  0
  9 10  1  0  0  0
 10 14  1  0  0  0
 14 15  1  0  0  0
 15 16  1  0  0  0
 16 17  1  0  0  0
 17 18  1  0  0  0
 10 11  1  0  0  0
 11 12  1  0  0  0
 12 13  2  0  0  0
 13  1  1  0  0  0
 11  3  2  0  0  0
  9  4  1  0  0  0
 18 14  1  0  0  0
 26 21  1  0  0  0
 33 30  1  0  0  0
 19 20  1  0  0  0
 27 28  1  0  0  0
 32 34  1  0  0  0
M  END
> <minimizedAffinity>
25.40100

> <CNNscore>
0.2712211311

> <CNNaffinity>
7.6747293472

> <CNN_VS>
2.0815486908

> <CNNaffinity_variance>
0.6558324099

$$$$
[H]c1nc([H])c2c(c1[H])c1c([H])nc(N([H])c3nnc(N([H])C([H])([H])C4([H])C([H])([H])N([H])C4([H])[H])c([H])c3[H])nc1n2C1([H])C([H])([H])C([H])([H])C([H])([H])C1([H])[H]


 34 39  0  0  0  0  0  0  0  0999 V2000
   10.9364   40.3152  132.5148 C   0  0  0  0  0  0  0  0  0  0  0  0
   10.7948   41.5371  133.1478 C   0  0  0  0  0  0  0  0  0  0  0  0
   10.6357   42.6811  132.3961 C   0  0  0  0  0  0  0  0  0  0  0  0
   10.4781   43.9880  132.7638 C   0  0  0  0  0  0  0  0  0  0  0  0
   10.4163   44.6676  133.9781 C   0  0  0  0  0  0  0  0  0  0  0  0
   10.2482   45.9991  133.9698 N   0  0  0  0  0  0  0  0  0  0  0  0
   10.1336   46.7313  132.8413 C   0  0  0  0  0  0  0  0  0  0  0  0
   10.1898   46.1004  131.6580 N   0  0  0  0  0  0  0  0  0  0  0  0
   10.3587   44.7569  131.6270 C   0  0  0  0  0  0  0  0  0  0  0  0
   10.4461   43.8988  130.5691 N   0  0  0  0  0  0  0  0  0  0  0  0
   10.6124   42.6506  131.0195 C   0  0  0  0  0  0  0  0  0  0  0  0
   10.7564   41.4154  130.4211 C   0  0  0  0  0  0  0  0  0  0  0  0
   10.9093   40.3185  131.1631 N   0  0  0  0  0  0  0  0  0  0  0  0
   10.3724   44.2652  129.1730 C   0  0  0  0  0  0  0  0  0  0  0  0
   10.1243   45.7367  128.9633 C   0  0  0  0  0  0  0  0  0  0  0  0
    9.2334   45.8609  127.7598 C   0  0  0  0  0  0  0  0  0  0  0  0
    8.7273   44.4956  127.4157 C   0  0  0  0  0  0  0  0  0  0  0  0
    9.3162   43.5266  128.4138 C   0  0  0  0  0  0  0  0  0  0  0  0
    9.9555   48.1566  132.9234 N   0  0  0  0  0  0  0  0  0  0  0  0
   10.4105   48.6713  133.7079 H   0  0  0  0  0  0  0  0  0  0  0  0
    9.1851   48.8668  131.9730 C   0  0  0  0  0  0  0  0  0  0  0  0
    8.3553   49.9147  132.3003 C   0  0  0  0  0  0  0  0  0  0  0  0
    7.6131   50.5900  131.3430 C   0  0  0  0  0  0  0  0  0  0  0  0
    7.7037   50.2060  130.0219 C   0  0  0  0  0  0  0  0  0  0  0  0
    8.5334   49.1693  129.7477 N   0  0  0  0  0  0  0  0  0  0  0  0
    9.2341   48.5363  130.6731 N   0  0  0  0  0  0  0  0  0  0  0  0
    6.9715   50.8537  128.9890 N   0  0  0  0  0  0  0  0  0  0  0  0
    5.9565   50.9919  129.0892 H   0  0  0  0  0  0  0  0  0  0  0  0
    7.6502   51.3178  127.8002 C   0  0  0  0  0  0  0  0  0  0  0  0
    6.9573   52.5181  127.1926 C   0  0  0  0  0  0  0  0  0  0  0  0
    7.4849   53.8198  127.7535 C   0  0  0  0  0  0  0  0  0  0  0  0
    7.5044   54.3798  126.4039 N   0  0  0  0  0  0  0  0  0  0  0  0
    7.5724   53.0058  125.9050 C   0  0  0  0  0  0  0  0  0  0  0  0
    8.4246   54.8546  126.2135 H   0  0  0  0  0  0  0  0  0  0  0  0
  1  2  2  0  0  0
  2  3  1  0  0  0
  3  4  1  0  0  0
  4  5  2  0  0  0
  5  6  1  0  0  0
  6  7  2  0  0  0
  7 19  1  0  0  0
 19 21  1  0  0  0
 21 22  2  0  0  0
 22 23  1  0  0  0
 23 24  2  0  0  0
 24 27  1  0  0  0
 27 29  1  0  0  0
 29 30  1  0  0  0
 30 31  1  0  0  0
 31 32  1  0  0  0
 32 33  1  0  0  0
 24 25  1  0  0  0
 25 26  2  0  0  0
  7  8  1  0  0  0
  8  9  2  0  0  0
  9 10  1  0  0  0
 10 14  1  0  0  0
 14 15  1  0  0  0
 15 16  1  0  0  0
 16 17  1  0  0  0
 17 18  1  0  0  0
 10 11  1  0  0  0
 11 12  1  0  0  0
 12 13  2  0  0  0
 13  1  1  0  0  0
 11  3  2  0  0  0
  9  4  1  0  0  0
 18 14  1  0  0  0
 26 21  1  0  0  0
 33 30  1  0  0  0
 19 20  1  0  0  0
 27 28  1  0  0  0
 32 34  1  0  0  0
M  END
> <minimizedAffinity>
12.41946

> <CNNscore>
0.2385776341

> <CNNaffinity>
7.0890259743

> <CNN_VS>
1.6912829876

> <CNNaffinity_variance>
0.5087746382

$$$$
[H]c1nc([H])c2c(c1[H])c1c([H])nc(N([H])c3nnc(N([H])C([H])([H])C4([H])C([H])([H])N([H])C4([H])[H])c([H])c3[H])nc1n2C1([H])C([H])([H])C([H])([H])C([H])([H])C1([H])[H]


 34 39  0  0  0  0  0  0  0  0999 V2000
   10.6646   41.4787  133.2888 C   0  0  0  0  0  0  0  0  0  0  0  0
   10.2539   42.7052  133.7792 C   0  0  0  0  0  0  0  0  0  0  0  0
   10.0285   43.7484  132.9073 C   0  0  0  0  0  0  0  0  0  0  0  0
    9.6259   45.0361  133.1255 C   0  0  0  0  0  0  0  0  0  0  0  0
    9.2954   45.7860  134.2519 C   0  0  0  0  0  0  0  0  0  0  0  0
    8.9305   47.0679  134.0950 N   0  0  0  0  0  0  0  0  0  0  0  0
    8.8629   47.6848  132.8961 C   0  0  0  0  0  0  0  0  0  0  0  0
    9.1763   46.9844  131.7949 N   0  0  0  0  0  0  0  0  0  0  0  0
    9.5492   45.6878  131.9142 C   0  0  0  0  0  0  0  0  0  0  0  0
    9.9103   44.7782  130.9625 N   0  0  0  0  0  0  0  0  0  0  0  0
   10.2000   43.6111  131.5477 C   0  0  0  0  0  0  0  0  0  0  0  0
   10.6102   42.3744  131.0932 C   0  0  0  0  0  0  0  0  0  0  0  0
   10.8237   41.3758  131.9502 N   0  0  0  0  0  0  0  0  0  0  0  0
    9.9749   45.0218  129.5394 C   0  0  0  0  0  0  0  0  0  0  0  0
    9.0152   44.1673  128.7521 C   0  0  0  0  0  0  0  0  0  0  0  0
    9.7031   43.8136  127.4641 C   0  0  0  0  0  0  0  0  0  0  0  0
   11.1416   44.2069  127.5844 C   0  0  0  0  0  0  0  0  0  0  0  0
   11.3356   44.8103  128.9556 C   0  0  0  0  0  0  0  0  0  0  0  0
    8.4616   49.0643  132.8182 N   0  0  0  0  0  0  0  0  0  0  0  0
    8.4326   49.6251  133.6968 H   0  0  0  0  0  0  0  0  0  0  0  0
    8.1095   49.6693  131.5889 C   0  0  0  0  0  0  0  0  0  0  0  0
    6.8423   50.1229  131.3027 C   0  0  0  0  0  0  0  0  0  0  0  0
    6.5306   50.7118  130.0863 C   0  0  0  0  0  0  0  0  0  0  0  0
    7.5142   50.8503  129.1302 C   0  0  0  0  0  0  0  0  0  0  0  0
    8.7465   50.3889  129.4571 N   0  0  0  0  0  0  0  0  0  0  0  0
    9.0265   49.8298  130.6221 N   0  0  0  0  0  0  0  0  0  0  0  0
    7.2650   51.4442  127.8622 N   0  0  0  0  0  0  0  0  0  0  0  0
    7.6079   50.9875  127.0058 H   0  0  0  0  0  0  0  0  0  0  0  0
    6.5315   52.6866  127.7747 C   0  0  0  0  0  0  0  0  0  0  0  0
    7.3526   53.7766  127.1207 C   0  0  0  0  0  0  0  0  0  0  0  0
    8.0336   53.2925  125.8599 C   0  0  0  0  0  0  0  0  0  0  0  0
    7.6528   54.5347  125.1914 N   0  0  0  0  0  0  0  0  0  0  0  0
    6.5762   54.6577  126.1748 C   0  0  0  0  0  0  0  0  0  0  0  0
    7.2286   54.3329  124.2491 H   0  0  0  0  0  0  0  0  0  0  0  0
  1  2  2  0  0  0
  2  3  1  0  0  0
  3  4  1  0  0  0
  4  5  2  0  0  0
  5  6  1  0  0  0
  6  7  2  0  0  0
  7 19  1  0  0  0
 19 21  1  0  0  0
 21 22  2  0  0  0
 22 23  1  0  0  0
 23 24  2  0  0  0
 24 27  1  0  0  0
 27 29  1  0  0  0
 29 30  1  0  0  0
 30 31  1  0  0  0
 31 32  1  0  0  0
 32 33  1  0  0  0
 24 25  1  0  0  0
 25 26  2  0  0  0
  7  8  1  0  0  0
  8  9  2  0  0  0
  9 10  1  0  0  0
 10 14  1  0  0  0
 14 15  1  0  0  0
 15 16  1  0  0  0
 16 17  1  0  0  0
 17 18  1  0  0  0
 10 11  1  0  0  0
 11 12  1  0  0  0
 12 13  2  0  0  0
 13  1  1  0  0  0
 11  3  2  0  0  0
  9  4  1  0  0  0
 18 14  1  0  0  0
 26 21  1  0  0  0
 33 30  1  0  0  0
 19 20  1  0  0  0
 27 28  1  0  0  0
 32 34  1  0  0  0
M  END
> <minimizedAffinity>
2.55732

> <CNNscore>
0.2121886313

> <CNNaffinity>
7.2140021324

> <CNN_VS>
1.5307292938

> <CNNaffinity_variance>
0.2294247448

$$$$
[H]c1nc([H])c2c(c1[H])c1c([H])nc(N([H])c3nnc(N([H])C([H])([H])C4([H])C([H])([H])N([H])C4([H])[H])c([H])c3[H])nc1n2C1([H])C([H])([H])C([H])([H])C([H])([H])C1([H])[H]


 34 39  0  0  0  0  0  0  0  0999 V2000
   12.2886   44.4898  134.6775 C   0  0  0  0  0  0  0  0  0  0  0  0
   11.2760   45.3679  134.3350 C   0  0  0  0  0  0  0  0  0  0  0  0
   10.7044   45.2962  133.0831 C   0  0  0  0  0  0  0  0  0  0  0  0
    9.7081   46.0297  132.5025 C   0  0  0  0  0  0  0  0  0  0  0  0
    8.9034   47.0915  132.9092 C   0  0  0  0  0  0  0  0  0  0  0  0
    7.9955   47.5842  132.0524 N   0  0  0  0  0  0  0  0  0  0  0  0
    7.8109   47.1078  130.8028 C   0  0  0  0  0  0  0  0  0  0  0  0
    8.5735   46.0848  130.3863 N   0  0  0  0  0  0  0  0  0  0  0  0
    9.5006   45.5615  131.2236 C   0  0  0  0  0  0  0  0  0  0  0  0
   10.3836   44.5369  131.0393 N   0  0  0  0  0  0  0  0  0  0  0  0
   11.1108   44.3694  132.1491 C   0  0  0  0  0  0  0  0  0  0  0  0
   12.1228   43.5093  132.5241 C   0  0  0  0  0  0  0  0  0  0  0  0
   12.6649   43.5922  133.7391 N   0  0  0  0  0  0  0  0  0  0  0  0
   10.5240   43.7457  129.8381 C   0  0  0  0  0  0  0  0  0  0  0  0
   11.3145   44.4447  128.7622 C   0  0  0  0  0  0  0  0  0  0  0  0
   10.6924   44.0648  127.4485 C   0  0  0  0  0  0  0  0  0  0  0  0
    9.3923   43.3808  127.7325 C   0  0  0  0  0  0  0  0  0  0  0  0
    9.2187   43.3376  129.2325 C   0  0  0  0  0  0  0  0  0  0  0  0
    6.8136   47.6957  129.9486 N   0  0  0  0  0  0  0  0  0  0  0  0
    6.0215   47.1001  129.6242 H   0  0  0  0  0  0  0  0  0  0  0  0
    6.8837   49.0494  129.5439 C   0  0  0  0  0  0  0  0  0  0  0  0
    6.4512   50.0972  130.3240 C   0  0  0  0  0  0  0  0  0  0  0  0
    6.5345   51.4140  129.8965 C   0  0  0  0  0  0  0  0  0  0  0  0
    7.0652   51.6895  128.6542 C   0  0  0  0  0  0  0  0  0  0  0  0
    7.4777   50.6256  127.9219 N   0  0  0  0  0  0  0  0  0  0  0  0
    7.3910   49.3760  128.3450 N   0  0  0  0  0  0  0  0  0  0  0  0
    7.1807   53.0153  128.1528 N   0  0  0  0  0  0  0  0  0  0  0  0
    7.6385   53.7406  128.7219 H   0  0  0  0  0  0  0  0  0  0  0  0
    6.6569   53.3451  126.8466 C   0  0  0  0  0  0  0  0  0  0  0  0
    7.4800   54.4184  126.1680 C   0  0  0  0  0  0  0  0  0  0  0  0
    8.7628   53.8656  125.5881 C   0  0  0  0  0  0  0  0  0  0  0  0
    8.5380   54.6486  124.3751 N   0  0  0  0  0  0  0  0  0  0  0  0
    7.1171   54.6614  124.7247 C   0  0  0  0  0  0  0  0  0  0  0  0
    8.6702   54.0506  123.5187 H   0  0  0  0  0  0  0  0  0  0  0  0
  1  2  2  0  0  0
  2  3  1  0  0  0
  3  4  1  0  0  0
  4  5  2  0  0  0
  5  6  1  0  0  0
  6  7  2  0  0  0
  7 19  1  0  0  0
 19 21  1  0  0  0
 21 22  2  0  0  0
 22 23  1  0  0  0
 23 24  2  0  0  0
 24 27  1  0  0  0
 27 29  1  0  0  0
 29 30  1  0  0  0
 30 31  1  0  0  0
 31 32  1  0  0  0
 32 33  1  0  0  0
 24 25  1  0  0  0
 25 26  2  0  0  0
  7  8  1  0  0  0
  8  9  2  0  0  0
  9 10  1  0  0  0
 10 14  1  0  0  0
 14 15  1  0  0  0
 15 16  1  0  0  0
 16 17  1  0  0  0
 17 18  1  0  0  0
 10 11  1  0  0  0
 11 12  1  0  0  0
 12 13  2  0  0  0
 13  1  1  0  0  0
 11  3  2  0  0  0
  9  4  1  0  0  0
 18 14  1  0  0  0
 26 21  1  0  0  0
 33 30  1  0  0  0
 19 20  1  0  0  0
 27 28  1  0  0  0
 32 34  1  0  0  0
M  END
> <minimizedAffinity>
-2.38796

> <CNNscore>
0.2078878880

> <CNNaffinity>
7.1737480164

> <CNN_VS>
1.4913352728

> <CNNaffinity_variance>
0.2679404020

$$$$
[H]Oc1c([H])c([H])c(C([H])([H])[C@@]2([H])C(=O)N(C([H])([H])c3c([H])c([H])c([H])c4c(C(=O)N([H])c5c([H])nc(N6C([H])([H])C([H])([H])C([H])(N7C([H])([H])C([H])([H])C7([H])[H])C([H])([H])C6([H])[H])c([H])c5[H])c([H])n(C([H])([H])[H])c34)C([H])([H])[C@]3([H])N(C(=O)N([H])C([H])([H])c4c([H])c([H])c([H])c([H])c4[H])N(C([H])([H])C([H])=C([H])[H])C([H])([H])C(=O)N23)c([H])c1[H]


 66 74  0  0  0  0  0  0  0  0999 V2000
    8.9422   43.7797  134.3828 N   0  0  0  0  0  0  0  0  0  0  0  0
   10.0328   44.0226  135.3099 C   0  0  0  0  0  0  0  0  0  0  0  0
   11.2473   43.6221  134.4896 C   0  0  0  0  0  0  0  0  0  0  0  0
   12.0397   42.8174  135.0121 O   0  0  0  0  0  0  0  0  0  0  0  0
   11.4183   44.1665  133.2168 N   0  0  0  0  0  0  0  0  0  0  0  0
   12.7260   44.2738  132.6354 C   0  0  0  0  0  0  0  0  0  0  0  0
   13.0102   45.7532  132.7491 C   0  0  0  0  0  0  0  0  0  0  0  0
   14.1046   46.1602  133.0995 O   0  0  0  0  0  0  0  0  0  0  0  0
   11.9584   46.6352  132.4318 N   0  0  0  0  0  0  0  0  0  0  0  0
   10.5992   46.1512  132.0875 C   0  0  0  0  0  0  0  0  0  0  0  0
   10.3202   44.7399  132.4848 C   0  0  0  0  0  0  0  0  0  0  0  0
    9.0714   44.4837  133.1652 N   0  0  0  0  0  0  0  0  0  0  0  0
    7.8285   44.9219  132.6118 C   0  0  0  0  0  0  0  0  0  0  0  0
    6.7819   44.7056  133.3109 O   0  0  0  0  0  0  0  0  0  0  0  0
    7.6224   45.5615  131.3833 N   0  0  0  0  0  0  0  0  0  0  0  0
    8.4000   45.7673  130.7558 H   0  0  0  0  0  0  0  0  0  0  0  0
    8.9548   42.3368  134.1945 C   0  0  0  0  0  0  0  0  0  0  0  0
    6.7635   41.3591  133.8273 C   0  0  0  0  0  0  0  0  0  0  0  0
    7.8930   41.8221  133.3633 C   0  0  0  0  0  0  0  0  0  0  0  0
   12.9429   43.7880  131.2652 C   0  0  0  0  0  0  0  0  0  0  0  0
   11.8053   43.6709  130.3495 C   0  0  0  0  0  0  0  0  0  0  0  0
   11.6747   44.5444  129.2683 C   0  0  0  0  0  0  0  0  0  0  0  0
   10.5735   44.4832  128.4414 C   0  0  0  0  0  0  0  0  0  0  0  0
    9.5517   43.5739  128.6293 C   0  0  0  0  0  0  0  0  0  0  0  0
    8.4760   43.5636  127.7616 O   0  0  0  0  0  0  0  0  0  0  0  0
    9.6747   42.7176  129.6876 C   0  0  0  0  0  0  0  0  0  0  0  0
   10.7829   42.7672  130.5330 C   0  0  0  0  0  0  0  0  0  0  0  0
    8.3970   44.2027  126.9781 H   0  0  0  0  0  0  0  0  0  0  0  0
   12.0832   48.0938  132.4430 C   0  0  0  0  0  0  0  0  0  0  0  0
   11.1847   48.6631  131.4339 C   0  0  0  0  0  0  0  0  0  0  0  0
   11.6074   48.9230  130.1564 C   0  0  0  0  0  0  0  0  0  0  0  0
   10.7827   49.5128  129.2139 C   0  0  0  0  0  0  0  0  0  0  0  0
    9.4868   49.8573  129.5519 C   0  0  0  0  0  0  0  0  0  0  0  0
    9.0435   49.5945  130.8544 C   0  0  0  0  0  0  0  0  0  0  0  0
    7.8467   49.7955  131.4564 C   0  0  0  0  0  0  0  0  0  0  0  0
    7.9645   49.3265  132.7334 C   0  0  0  0  0  0  0  0  0  0  0  0
    9.1975   48.8388  132.9576 N   0  0  0  0  0  0  0  0  0  0  0  0
    9.6814   48.2619  134.1871 C   0  0  0  0  0  0  0  0  0  0  0  0
    9.8832   49.0027  131.7903 C   0  0  0  0  0  0  0  0  0  0  0  0
    6.5971   50.4324  130.9153 C   0  0  0  0  0  0  0  0  0  0  0  0
    5.4965   50.1599  131.4403 O   0  0  0  0  0  0  0  0  0  0  0  0
    6.7729   51.3169  129.8352 N   0  0  0  0  0  0  0  0  0  0  0  0
    5.4704   51.7270  130.0378 H   0  0  0  0  0  0  0  0  0  0  0  0
    6.9169   52.1402  128.8337 C   0  0  0  0  0  0  0  0  0  0  0  0
    7.1908   51.6424  127.5430 C   0  0  0  0  0  0  0  0  0  0  0  0
    7.3614   52.4171  126.4565 C   0  0  0  0  0  0  0  0  0  0  0  0
    7.2711   53.7825  126.6025 C   0  0  0  0  0  0  0  0  0  0  0  0
    7.0121   54.3368  127.8086 N   0  0  0  0  0  0  0  0  0  0  0  0
    6.8357   53.5483  128.8940 C   0  0  0  0  0  0  0  0  0  0  0  0
    7.4952   54.6671  125.5005 N   0  0  0  0  0  0  0  0  0  0  0  0
    8.7259   55.4171  125.4509 C   0  0  0  0  0  0  0  0  0  0  0  0
    9.3278   55.5947  124.1060 C   0  0  0  0  0  0  0  0  0  0  0  0
    8.4738   55.1925  122.9558 C   0  0  0  0  0  0  0  0  0  0  0  0
    6.9849   55.3960  123.2173 C   0  0  0  0  0  0  0  0  0  0  0  0
    6.4911   54.8181  124.4850 C   0  0  0  0  0  0  0  0  0  0  0  0
    8.7612   55.8263  121.7183 N   0  0  0  0  0  0  0  0  0  0  0  0
    8.6852   57.2513  121.6764 C   0  0  0  0  0  0  0  0  0  0  0  0
    8.3378   57.1281  120.2064 C   0  0  0  0  0  0  0  0  0  0  0  0
    7.8949   55.7217  120.6050 C   0  0  0  0  0  0  0  0  0  0  0  0
    6.2849   45.9492  130.9438 C   0  0  0  0  0  0  0  0  0  0  0  0
    6.3687   46.8537  129.7386 C   0  0  0  0  0  0  0  0  0  0  0  0
    7.5570   47.0370  129.1125 C   0  0  0  0  0  0  0  0  0  0  0  0
    7.6274   47.9218  128.0073 C   0  0  0  0  0  0  0  0  0  0  0  0
    6.4784   48.5883  127.5832 C   0  0  0  0  0  0  0  0  0  0  0  0
    5.3009   48.3227  128.3105 C   0  0  0  0  0  0  0  0  0  0  0  0
    5.2222   47.4938  129.3438 C   0  0  0  0  0  0  0  0  0  0  0  0
 18 19  2  0  0  0
 19 17  1  0  0  0
 17  1  1  0  0  0
  1  2  1  0  0  0
  2  3  1  0  0  0
  3  4  2  0  0  0
  3  5  1  0  0  0
  5  6  1  0  0  0
  6 20  1  0  0  0
 20 21  1  0  0  0
 21 22  2  0  0  0
 22 23  1  0  0  0
 23 24  2  0  0  0
 24 25  1  0  0  0
 24 26  1  0  0  0
 26 27  2  0  0  0
  6  7  1  0  0  0
  7  8  2  0  0  0
  7  9  1  0  0  0
  9 29  1  0  0  0
 29 30  1  0  0  0
 30 31  2  0  0  0
 31 32  1  0  0  0
 32 33  2  0  0  0
 33 34  1  0  0  0
 34 35  1  0  0  0
 35 40  1  0  0  0
 40 41  2  0  0  0
 40 42  1  0  0  0
 42 44  1  0  0  0
 44 45  2  0  0  0
 45 46  1  0  0  0
 46 47  2  0  0  0
 47 50  1  0  0  0
 50 51  1  0  0  0
 51 52  1  0  0  0
 52 53  1  0  0  0
 53 56  1  0  0  0
 56 57  1  0  0  0
 57 58  1  0  0  0
 58 59  1  0  0  0
 53 54  1  0  0  0
 54 55  1  0  0  0
 47 48  1  0  0  0
 48 49  2  0  0  0
 35 36  2  0  0  0
 36 37  1  0  0  0
 37 38  1  0  0  0
 37 39  1  0  0  0
  9 10  1  0  0  0
 10 11  1  0  0  0
 11 12  1  0  0  0
 12 13  1  0  0  0
 13 14  2  0  0  0
 13 15  1  0  0  0
 15 60  1  0  0  0
 60 61  1  0  0  0
 61 62  2  0  0  0
 62 63  1  0  0  0
 63 64  2  0  0  0
 64 65  1  0  0  0
 65 66  2  0  0  0
 12  1  1  0  0  0
 66 61  1  0  0  0
 11  5  1  0  0  0
 27 21  1  0  0  0
 39 30  1  0  0  0
 39 34  2  0  0  0
 49 44  1  0  0  0
 55 50  1  0  0  0
 59 56  1  0  0  0
 25 28  1  0  0  0
 42 43  1  0  0  0
 15 16  1  0  0  0
M  END
> <minimizedAffinity>
26.14170

> <CNNscore>
0.4131956100

> <CNNaffinity>
8.4618301392

> <CNN_VS>
3.4963910580

> <CNNaffinity_variance>
0.3221143782

$$$$
[H]Oc1c([H])c([H])c(C([H])([H])[C@@]2([H])C(=O)N(C([H])([H])c3c([H])c([H])c([H])c4c(C(=O)N([H])c5c([H])nc(N6C([H])([H])C([H])([H])C([H])(N7C([H])([H])C([H])([H])C7([H])[H])C([H])([H])C6([H])[H])c([H])c5[H])c([H])n(C([H])([H])[H])c34)C([H])([H])[C@]3([H])N(C(=O)N([H])C([H])([H])c4c([H])c([H])c([H])c([H])c4[H])N(C([H])([H])C([H])=C([H])[H])C([H])([H])C(=O)N23)c([H])c1[H]


 66 74  0  0  0  0  0  0  0  0999 V2000
    9.6722   42.6472  132.9306 N   0  0  0  0  0  0  0  0  0  0  0  0
   10.7585   42.5726  133.8911 C   0  0  0  0  0  0  0  0  0  0  0  0
   11.9668   42.9182  133.0371 C   0  0  0  0  0  0  0  0  0  0  0  0
   12.9327   42.1352  133.0845 O   0  0  0  0  0  0  0  0  0  0  0  0
   11.9413   44.0755  132.2590 N   0  0  0  0  0  0  0  0  0  0  0  0
   13.1605   44.7318  131.8817 C   0  0  0  0  0  0  0  0  0  0  0  0
   13.1645   45.9476  132.7783 C   0  0  0  0  0  0  0  0  0  0  0  0
   14.1829   46.3147  133.3389 O   0  0  0  0  0  0  0  0  0  0  0  0
   11.9441   46.6341  132.9343 N   0  0  0  0  0  0  0  0  0  0  0  0
   10.6816   46.1477  132.3263 C   0  0  0  0  0  0  0  0  0  0  0  0
   10.7055   44.7182  131.8981 C   0  0  0  0  0  0  0  0  0  0  0  0
    9.5793   43.8985  132.2823 N   0  0  0  0  0  0  0  0  0  0  0  0
    8.2400   44.3063  131.9940 C   0  0  0  0  0  0  0  0  0  0  0  0
    7.3053   43.5497  132.4241 O   0  0  0  0  0  0  0  0  0  0  0  0
    7.8302   45.4438  131.2876 N   0  0  0  0  0  0  0  0  0  0  0  0
    8.5085   46.1003  130.9007 H   0  0  0  0  0  0  0  0  0  0  0  0
    9.9467   41.5599  132.0033 C   0  0  0  0  0  0  0  0  0  0  0  0
    8.7061   41.9471  129.9532 C   0  0  0  0  0  0  0  0  0  0  0  0
    9.8358   41.9080  130.6070 C   0  0  0  0  0  0  0  0  0  0  0  0
   13.3698   45.1005  130.4742 C   0  0  0  0  0  0  0  0  0  0  0  0
   12.2985   44.8779  129.5001 C   0  0  0  0  0  0  0  0  0  0  0  0
   11.3397   45.8652  129.2654 C   0  0  0  0  0  0  0  0  0  0  0  0
   10.2911   45.6382  128.3998 C   0  0  0  0  0  0  0  0  0  0  0  0
   10.1270   44.4438  127.7271 C   0  0  0  0  0  0  0  0  0  0  0  0
    9.0544   44.2819  126.8708 O   0  0  0  0  0  0  0  0  0  0  0  0
   11.0628   43.4737  127.9550 C   0  0  0  0  0  0  0  0  0  0  0  0
   12.1293   43.6885  128.8278 C   0  0  0  0  0  0  0  0  0  0  0  0
    8.3676   45.0101  126.7079 H   0  0  0  0  0  0  0  0  0  0  0  0
   11.7888   47.8555  133.7262 C   0  0  0  0  0  0  0  0  0  0  0  0
   10.3741   48.2400  133.7485 C   0  0  0  0  0  0  0  0  0  0  0  0
    9.5659   47.9545  134.8178 C   0  0  0  0  0  0  0  0  0  0  0  0
    8.2164   48.2631  134.8237 C   0  0  0  0  0  0  0  0  0  0  0  0
    7.6464   48.8805  133.7254 C   0  0  0  0  0  0  0  0  0  0  0  0
    8.4635   49.1786  132.6275 C   0  0  0  0  0  0  0  0  0  0  0  0
    8.1987   49.7869  131.4464 C   0  0  0  0  0  0  0  0  0  0  0  0
    9.3766   49.8394  130.7576 C   0  0  0  0  0  0  0  0  0  0  0  0
   10.3752   49.2815  131.4644 N   0  0  0  0  0  0  0  0  0  0  0  0
   11.7522   49.1597  131.0548 C   0  0  0  0  0  0  0  0  0  0  0  0
    9.8166   48.8620  132.6355 C   0  0  0  0  0  0  0  0  0  0  0  0
    6.8937   50.3001  130.9045 C   0  0  0  0  0  0  0  0  0  0  0  0
    5.8245   49.9260  131.4317 O   0  0  0  0  0  0  0  0  0  0  0  0
    6.9836   51.1934  129.8211 N   0  0  0  0  0  0  0  0  0  0  0  0
    5.6482   51.4784  130.0237 H   0  0  0  0  0  0  0  0  0  0  0  0
    7.0478   52.0231  128.8165 C   0  0  0  0  0  0  0  0  0  0  0  0
    7.3966   51.5538  127.5331 C   0  0  0  0  0  0  0  0  0  0  0  0
    7.4941   52.3378  126.4443 C   0  0  0  0  0  0  0  0  0  0  0  0
    7.2460   53.6846  126.5802 C   0  0  0  0  0  0  0  0  0  0  0  0
    6.9069   54.2112  127.7788 N   0  0  0  0  0  0  0  0  0  0  0  0
    6.8052   53.4129  128.8665 C   0  0  0  0  0  0  0  0  0  0  0  0
    7.3843   54.5837  125.4759 N   0  0  0  0  0  0  0  0  0  0  0  0
    8.3750   55.6289  125.5510 C   0  0  0  0  0  0  0  0  0  0  0  0
    9.0901   55.9417  124.2888 C   0  0  0  0  0  0  0  0  0  0  0  0
    8.5353   55.3164  123.0578 C   0  0  0  0  0  0  0  0  0  0  0  0
    7.0230   55.1265  123.1138 C   0  0  0  0  0  0  0  0  0  0  0  0
    6.5249   54.4548  124.3326 C   0  0  0  0  0  0  0  0  0  0  0  0
    8.8174   55.9886  121.8394 N   0  0  0  0  0  0  0  0  0  0  0  0
    8.6497   57.4061  121.8167 C   0  0  0  0  0  0  0  0  0  0  0  0
    8.3550   57.2857  120.3350 C   0  0  0  0  0  0  0  0  0  0  0  0
    7.9933   55.8470  120.6986 C   0  0  0  0  0  0  0  0  0  0  0  0
    6.4159   45.7307  131.0644 C   0  0  0  0  0  0  0  0  0  0  0  0
    6.2503   46.7036  129.9227 C   0  0  0  0  0  0  0  0  0  0  0  0
    7.3364   47.1194  129.2261 C   0  0  0  0  0  0  0  0  0  0  0  0
    7.1691   48.0650  128.1834 C   0  0  0  0  0  0  0  0  0  0  0  0
    5.8955   48.5519  127.8917 C   0  0  0  0  0  0  0  0  0  0  0  0
    4.8419   48.0512  128.6825 C   0  0  0  0  0  0  0  0  0  0  0  0
    4.9859   47.1634  129.6582 C   0  0  0  0  0  0  0  0  0  0  0  0
 18 19  2  0  0  0
 19 17  1  0  0  0
 17  1  1  0  0  0
  1  2  1  0  0  0
  2  3  1  0  0  0
  3  4  2  0  0  0
  3  5  1  0  0  0
  5  6  1  0  0  0
  6 20  1  0  0  0
 20 21  1  0  0  0
 21 22  2  0  0  0
 22 23  1  0  0  0
 23 24  2  0  0  0
 24 25  1  0  0  0
 24 26  1  0  0  0
 26 27  2  0  0  0
  6  7  1  0  0  0
  7  8  2  0  0  0
  7  9  1  0  0  0
  9 29  1  0  0  0
 29 30  1  0  0  0
 30 31  2  0  0  0
 31 32  1  0  0  0
 32 33  2  0  0  0
 33 34  1  0  0  0
 34 35  1  0  0  0
 35 40  1  0  0  0
 40 41  2  0  0  0
 40 42  1  0  0  0
 42 44  1  0  0  0
 44 45  2  0  0  0
 45 46  1  0  0  0
 46 47  2  0  0  0
 47 50  1  0  0  0
 50 51  1  0  0  0
 51 52  1  0  0  0
 52 53  1  0  0  0
 53 56  1  0  0  0
 56 57  1  0  0  0
 57 58  1  0  0  0
 58 59  1  0  0  0
 53 54  1  0  0  0
 54 55  1  0  0  0
 47 48  1  0  0  0
 48 49  2  0  0  0
 35 36  2  0  0  0
 36 37  1  0  0  0
 37 38  1  0  0  0
 37 39  1  0  0  0
  9 10  1  0  0  0
 10 11  1  0  0  0
 11 12  1  0  0  0
 12 13  1  0  0  0
 13 14  2  0  0  0
 13 15  1  0  0  0
 15 60  1  0  0  0
 60 61  1  0  0  0
 61 62  2  0  0  0
 62 63  1  0  0  0
 63 64  2  0  0  0
 64 65  1  0  0  0
 65 66  2  0  0  0
 12  1  1  0  0  0
 66 61  1  0  0  0
 11  5  1  0  0  0
 27 21  1  0  0  0
 39 30  1  0  0  0
 39 34  2  0  0  0
 49 44  1  0  0  0
 55 50  1  0  0  0
 59 56  1  0  0  0
 25 28  1  0  0  0
 42 43  1  0  0  0
 15 16  1  0  0  0
M  END
> <minimizedAffinity>
24.40069

> <CNNscore>
0.3501514792

> <CNNaffinity>
8.2549810410

> <CNN_VS>
2.8904938698

> <CNNaffinity_variance>
0.4618577063

$$$$
[H]Oc1c([H])c([H])c(C([H])([H])[C@@]2([H])C(=O)N(C([H])([H])c3c([H])c([H])c([H])c4c(C(=O)N([H])c5c([H])nc(N6C([H])([H])C([H])([H])C([H])(N7C([H])([H])C([H])([H])C7([H])[H])C([H])([H])C6([H])[H])c([H])c5[H])c([H])n(C([H])([H])[H])c34)C([H])([H])[C@]3([H])N(C(=O)N([H])C([H])([H])c4c([H])c([H])c([H])c([H])c4[H])N(C([H])([H])C([H])=C([H])[H])C([H])([H])C(=O)N23)c([H])c1[H]


 66 74  0  0  0  0  0  0  0  0999 V2000
    7.6603   48.2749  128.6106 N   0  0  0  0  0  0  0  0  0  0  0  0
    8.2453   49.5846  128.8348 C   0  0  0  0  0  0  0  0  0  0  0  0
    7.9367   49.8276  130.3026 C   0  0  0  0  0  0  0  0  0  0  0  0
    7.3852   50.9050  130.5915 O   0  0  0  0  0  0  0  0  0  0  0  0
    8.2826   48.8549  131.2405 N   0  0  0  0  0  0  0  0  0  0  0  0
    8.5230   49.2103  132.6100 C   0  0  0  0  0  0  0  0  0  0  0  0
   10.0272   49.1128  132.7103 C   0  0  0  0  0  0  0  0  0  0  0  0
   10.6758   49.9560  133.3058 O   0  0  0  0  0  0  0  0  0  0  0  0
   10.6417   48.0078  132.0887 N   0  0  0  0  0  0  0  0  0  0  0  0
    9.8723   47.0230  131.2898 C   0  0  0  0  0  0  0  0  0  0  0  0
    8.5203   47.4875  130.8608 C   0  0  0  0  0  0  0  0  0  0  0  0
    8.1626   47.2786  129.4765 N   0  0  0  0  0  0  0  0  0  0  0  0
    8.2732   45.9867  128.8748 C   0  0  0  0  0  0  0  0  0  0  0  0
    7.9934   45.9078  127.6313 O   0  0  0  0  0  0  0  0  0  0  0  0
    8.6515   44.7891  129.4941 N   0  0  0  0  0  0  0  0  0  0  0  0
    8.8850   44.7564  130.4867 H   0  0  0  0  0  0  0  0  0  0  0  0
    6.2320   48.4929  128.7837 C   0  0  0  0  0  0  0  0  0  0  0  0
    4.4587   47.1391  129.7404 C   0  0  0  0  0  0  0  0  0  0  0  0
    5.4416   47.2903  128.8939 C   0  0  0  0  0  0  0  0  0  0  0  0
    7.8618   48.4438  133.6758 C   0  0  0  0  0  0  0  0  0  0  0  0
    8.0460   46.9921  133.7450 C   0  0  0  0  0  0  0  0  0  0  0  0
    8.6850   46.4118  134.8423 C   0  0  0  0  0  0  0  0  0  0  0  0
    8.9209   45.0543  134.8841 C   0  0  0  0  0  0  0  0  0  0  0  0
    8.5493   44.2028  133.8629 C   0  0  0  0  0  0  0  0  0  0  0  0
    8.8133   42.8503  133.9686 O   0  0  0  0  0  0  0  0  0  0  0  0
    7.9247   44.7669  132.7858 C   0  0  0  0  0  0  0  0  0  0  0  0
    7.6788   46.1387  132.7290 C   0  0  0  0  0  0  0  0  0  0  0  0
    9.2755   42.4429  134.7741 H   0  0  0  0  0  0  0  0  0  0  0  0
   12.0802   47.7397  132.1345 C   0  0  0  0  0  0  0  0  0  0  0  0
   12.2977   46.3190  132.4242 C   0  0  0  0  0  0  0  0  0  0  0  0
   12.6171   45.4226  131.4381 C   0  0  0  0  0  0  0  0  0  0  0  0
   12.7683   44.0704  131.6932 C   0  0  0  0  0  0  0  0  0  0  0  0
   12.5969   43.5887  132.9781 C   0  0  0  0  0  0  0  0  0  0  0  0
   12.2720   44.4963  133.9943 C   0  0  0  0  0  0  0  0  0  0  0  0
   12.0691   44.3263  135.3228 C   0  0  0  0  0  0  0  0  0  0  0  0
   11.8067   45.5615  135.8424 C   0  0  0  0  0  0  0  0  0  0  0  0
   11.8346   46.5048  134.8845 N   0  0  0  0  0  0  0  0  0  0  0  0
   11.6059   47.9170  135.0641 C   0  0  0  0  0  0  0  0  0  0  0  0
   12.1225   45.8509  133.7229 C   0  0  0  0  0  0  0  0  0  0  0  0
   12.0758   43.0640  136.1392 C   0  0  0  0  0  0  0  0  0  0  0  0
   11.0685   42.3247  136.1284 O   0  0  0  0  0  0  0  0  0  0  0  0
   13.2533   42.8039  136.8642 N   0  0  0  0  0  0  0  0  0  0  0  0
   12.7694   41.5283  137.0753 H   0  0  0  0  0  0  0  0  0  0  0  0
   14.3372   42.5463  137.5428 C   0  0  0  0  0  0  0  0  0  0  0  0
   15.5701   42.3949  136.8751 C   0  0  0  0  0  0  0  0  0  0  0  0
   16.7336   42.1216  137.4926 C   0  0  0  0  0  0  0  0  0  0  0  0
   16.7319   41.9725  138.8607 C   0  0  0  0  0  0  0  0  0  0  0  0
   15.5892   42.1017  139.5724 N   0  0  0  0  0  0  0  0  0  0  0  0
   14.4254   42.3830  138.9422 C   0  0  0  0  0  0  0  0  0  0  0  0
   17.9228   41.6281  139.5750 N   0  0  0  0  0  0  0  0  0  0  0  0
   17.8010   40.9638  140.8492 C   0  0  0  0  0  0  0  0  0  0  0  0
   18.8143   39.9192  141.1398 C   0  0  0  0  0  0  0  0  0  0  0  0
   19.9648   39.8530  140.1983 C   0  0  0  0  0  0  0  0  0  0  0  0
   20.3373   41.2117  139.6139 C   0  0  0  0  0  0  0  0  0  0  0  0
   19.2087   41.9708  139.0353 C   0  0  0  0  0  0  0  0  0  0  0  0
   21.1603   39.2908  140.7184 N   0  0  0  0  0  0  0  0  0  0  0  0
   21.1621   37.8901  140.9944 C   0  0  0  0  0  0  0  0  0  0  0  0
   22.1982   38.1650  142.0656 C   0  0  0  0  0  0  0  0  0  0  0  0
   21.6133   39.5755  142.0277 C   0  0  0  0  0  0  0  0  0  0  0  0
    8.7152   43.5354  128.7481 C   0  0  0  0  0  0  0  0  0  0  0  0
    9.3825   42.4642  129.5757 C   0  0  0  0  0  0  0  0  0  0  0  0
    9.8144   42.7490  130.8286 C   0  0  0  0  0  0  0  0  0  0  0  0
   10.4761   41.7437  131.5775 C   0  0  0  0  0  0  0  0  0  0  0  0
   10.6729   40.4826  131.0161 C   0  0  0  0  0  0  0  0  0  0  0  0
   10.1846   40.3015  129.7066 C   0  0  0  0  0  0  0  0  0  0  0  0
    9.5604   41.2336  128.9977 C   0  0  0  0  0  0  0  0  0  0  0  0
 18 19  2  0  0  0
 19 17  1  0  0  0
 17  1  1  0  0  0
  1  2  1  0  0  0
  2  3  1  0  0  0
  3  4  2  0  0  0
  3  5  1  0  0  0
  5  6  1  0  0  0
  6 20  1  0  0  0
 20 21  1  0  0  0
 21 22  2  0  0  0
 22 23  1  0  0  0
 23 24  2  0  0  0
 24 25  1  0  0  0
 24 26  1  0  0  0
 26 27  2  0  0  0
  6  7  1  0  0  0
  7  8  2  0  0  0
  7  9  1  0  0  0
  9 29  1  0  0  0
 29 30  1  0  0  0
 30 31  2  0  0  0
 31 32  1  0  0  0
 32 33  2  0  0  0
 33 34  1  0  0  0
 34 35  1  0  0  0
 35 40  1  0  0  0
 40 41  2  0  0  0
 40 42  1  0  0  0
 42 44  1  0  0  0
 44 45  2  0  0  0
 45 46  1  0  0  0
 46 47  2  0  0  0
 47 50  1  0  0  0
 50 51  1  0  0  0
 51 52  1  0  0  0
 52 53  1  0  0  0
 53 56  1  0  0  0
 56 57  1  0  0  0
 57 58  1  0  0  0
 58 59  1  0  0  0
 53 54  1  0  0  0
 54 55  1  0  0  0
 47 48  1  0  0  0
 48 49  2  0  0  0
 35 36  2  0  0  0
 36 37  1  0  0  0
 37 38  1  0  0  0
 37 39  1  0  0  0
  9 10  1  0  0  0
 10 11  1  0  0  0
 11 12  1  0  0  0
 12 13  1  0  0  0
 13 14  2  0  0  0
 13 15  1  0  0  0
 15 60  1  0  0  0
 60 61  1  0  0  0
 61 62  2  0  0  0
 62 63  1  0  0  0
 63 64  2  0  0  0
 64 65  1  0  0  0
 65 66  2  0  0  0
 12  1  1  0  0  0
 66 61  1  0  0  0
 11  5  1  0  0  0
 27 21  1  0  0  0
 39 30  1  0  0  0
 39 34  2  0  0  0
 49 44  1  0  0  0
 55 50  1  0  0  0
 59 56  1  0  0  0
 25 28  1  0  0  0
 42 43  1  0  0  0
 15 16  1  0  0  0
M  END
> <minimizedAffinity>
29.51801

> <CNNscore>
0.3343109488

> <CNNaffinity>
8.0904111862

> <CNN_VS>
2.7047131062

> <CNNaffinity_variance>
0.9389454126

$$$$
[H]Oc1c([H])c([H])c(C([H])([H])[C@@]2([H])C(=O)N(C([H])([H])c3c([H])c([H])c([H])c4c(C(=O)N([H])c5c([H])nc(N6C([H])([H])C([H])([H])C([H])(N7C([H])([H])C([H])([H])C7([H])[H])C([H])([H])C6([H])[H])c([H])c5[H])c([H])n(C([H])([H])[H])c34)C([H])([H])[C@]3([H])N(C(=O)N([H])C([H])([H])c4c([H])c([H])c([H])c([H])c4[H])N(C([H])([H])C([H])=C([H])[H])C([H])([H])C(=O)N23)c([H])c1[H]


 66 74  0  0  0  0  0  0  0  0999 V2000
   12.7751   43.6572  132.0910 N   0  0  0  0  0  0  0  0  0  0  0  0
   12.5157   42.4852  131.2742 C   0  0  0  0  0  0  0  0  0  0  0  0
   11.2249   41.9542  131.8747 C   0  0  0  0  0  0  0  0  0  0  0  0
   11.2050   40.7519  132.1945 O   0  0  0  0  0  0  0  0  0  0  0  0
   10.1419   42.8189  132.0325 N   0  0  0  0  0  0  0  0  0  0  0  0
    8.7993   42.3130  132.0669 C   0  0  0  0  0  0  0  0  0  0  0  0
    8.2674   42.7145  130.7112 C   0  0  0  0  0  0  0  0  0  0  0  0
    7.5926   41.9475  130.0459 O   0  0  0  0  0  0  0  0  0  0  0  0
    8.5844   44.0092  130.2550 N   0  0  0  0  0  0  0  0  0  0  0  0
    9.4746   44.9186  131.0169 C   0  0  0  0  0  0  0  0  0  0  0  0
   10.3108   44.2477  132.0553 C   0  0  0  0  0  0  0  0  0  0  0  0
   11.7143   44.5896  132.0902 N   0  0  0  0  0  0  0  0  0  0  0  0
   12.1381   45.9531  132.1566 C   0  0  0  0  0  0  0  0  0  0  0  0
   13.3971   46.1643  132.1219 O   0  0  0  0  0  0  0  0  0  0  0  0
   11.3293   47.0915  132.2594 N   0  0  0  0  0  0  0  0  0  0  0  0
   10.3126   47.0174  132.3014 H   0  0  0  0  0  0  0  0  0  0  0  0
   13.0357   43.1130  133.4151 C   0  0  0  0  0  0  0  0  0  0  0  0
   11.6682   43.5219  135.3786 C   0  0  0  0  0  0  0  0  0  0  0  0
   12.5581   43.9222  134.5106 C   0  0  0  0  0  0  0  0  0  0  0  0
    7.8993   42.7425  133.1468 C   0  0  0  0  0  0  0  0  0  0  0  0
    8.0296   44.0906  133.7053 C   0  0  0  0  0  0  0  0  0  0  0  0
    7.3773   45.1701  133.1068 C   0  0  0  0  0  0  0  0  0  0  0  0
    7.5480   46.4510  133.5866 C   0  0  0  0  0  0  0  0  0  0  0  0
    8.3598   46.7394  134.6654 C   0  0  0  0  0  0  0  0  0  0  0  0
    8.4854   48.0459  135.0982 O   0  0  0  0  0  0  0  0  0  0  0  0
    9.0016   45.6855  135.2536 C   0  0  0  0  0  0  0  0  0  0  0  0
    8.8389   44.3839  134.7797 C   0  0  0  0  0  0  0  0  0  0  0  0
    8.0021   48.8195  134.6549 H   0  0  0  0  0  0  0  0  0  0  0  0
    8.1074   44.5695  128.9894 C   0  0  0  0  0  0  0  0  0  0  0  0
    8.3543   46.0147  128.9775 C   0  0  0  0  0  0  0  0  0  0  0  0
    9.5680   46.5359  128.6124 C   0  0  0  0  0  0  0  0  0  0  0  0
    9.8277   47.8951  128.6528 C   0  0  0  0  0  0  0  0  0  0  0  0
    8.8435   48.7720  129.0708 C   0  0  0  0  0  0  0  0  0  0  0  0
    7.5985   48.2504  129.4445 C   0  0  0  0  0  0  0  0  0  0  0  0
    6.4598   48.8513  129.8657 C   0  0  0  0  0  0  0  0  0  0  0  0
    5.5422   47.8601  130.0659 C   0  0  0  0  0  0  0  0  0  0  0  0
    6.0657   46.6532  129.7875 N   0  0  0  0  0  0  0  0  0  0  0  0
    5.3910   45.3826  129.8831 C   0  0  0  0  0  0  0  0  0  0  0  0
    7.3527   46.8834  129.3998 C   0  0  0  0  0  0  0  0  0  0  0  0
    6.1833   50.3063  130.1237 C   0  0  0  0  0  0  0  0  0  0  0  0
    5.6275   50.6421  131.1912 O   0  0  0  0  0  0  0  0  0  0  0  0
    6.5923   51.2004  129.1172 N   0  0  0  0  0  0  0  0  0  0  0  0
    6.3738   52.2216  130.0200 H   0  0  0  0  0  0  0  0  0  0  0  0
    6.9650   52.0441  128.1947 C   0  0  0  0  0  0  0  0  0  0  0  0
    6.8281   53.4313  128.4083 C   0  0  0  0  0  0  0  0  0  0  0  0
    7.1785   54.3706  127.5112 C   0  0  0  0  0  0  0  0  0  0  0  0
    7.6989   53.9643  126.3038 C   0  0  0  0  0  0  0  0  0  0  0  0
    7.8603   52.6511  126.0234 N   0  0  0  0  0  0  0  0  0  0  0  0
    7.5107   51.7145  126.9351 C   0  0  0  0  0  0  0  0  0  0  0  0
    8.0417   54.9073  125.2840 N   0  0  0  0  0  0  0  0  0  0  0  0
    9.4116   54.9826  124.8397 C   0  0  0  0  0  0  0  0  0  0  0  0
    9.6148   55.2212  123.3890 C   0  0  0  0  0  0  0  0  0  0  0  0
    8.3981   55.5924  122.6170 C   0  0  0  0  0  0  0  0  0  0  0  0
    7.3861   56.3825  123.4404 C   0  0  0  0  0  0  0  0  0  0  0  0
    7.0358   55.7777  124.7429 C   0  0  0  0  0  0  0  0  0  0  0  0
    8.6211   56.3319  121.4256 N   0  0  0  0  0  0  0  0  0  0  0  0
    8.2543   57.7116  121.4300 C   0  0  0  0  0  0  0  0  0  0  0  0
    8.0280   57.5927  119.9362 C   0  0  0  0  0  0  0  0  0  0  0  0
    7.8630   56.1076  120.2528 C   0  0  0  0  0  0  0  0  0  0  0  0
   11.9076   48.4309  132.3234 C   0  0  0  0  0  0  0  0  0  0  0  0
   10.8181   49.4752  132.3167 C   0  0  0  0  0  0  0  0  0  0  0  0
   10.4710   50.0971  133.4701 C   0  0  0  0  0  0  0  0  0  0  0  0
    9.4176   51.0457  133.4546 C   0  0  0  0  0  0  0  0  0  0  0  0
    8.7567   51.3228  132.2586 C   0  0  0  0  0  0  0  0  0  0  0  0
    9.2006   50.6146  131.1239 C   0  0  0  0  0  0  0  0  0  0  0  0
   10.1877   49.7277  131.1255 C   0  0  0  0  0  0  0  0  0  0  0  0
 18 19  2  0  0  0
 19 17  1  0  0  0
 17  1  1  0  0  0
  1  2  1  0  0  0
  2  3  1  0  0  0
  3  4  2  0  0  0
  3  5  1  0  0  0
  5  6  1  0  0  0
  6 20  1  0  0  0
 20 21  1  0  0  0
 21 22  2  0  0  0
 22 23  1  0  0  0
 23 24  2  0  0  0
 24 25  1  0  0  0
 24 26  1  0  0  0
 26 27  2  0  0  0
  6  7  1  0  0  0
  7  8  2  0  0  0
  7  9  1  0  0  0
  9 29  1  0  0  0
 29 30  1  0  0  0
 30 31  2  0  0  0
 31 32  1  0  0  0
 32 33  2  0  0  0
 33 34  1  0  0  0
 34 35  1  0  0  0
 35 40  1  0  0  0
 40 41  2  0  0  0
 40 42  1  0  0  0
 42 44  1  0  0  0
 44 45  2  0  0  0
 45 46  1  0  0  0
 46 47  2  0  0  0
 47 50  1  0  0  0
 50 51  1  0  0  0
 51 52  1  0  0  0
 52 53  1  0  0  0
 53 56  1  0  0  0
 56 57  1  0  0  0
 57 58  1  0  0  0
 58 59  1  0  0  0
 53 54  1  0  0  0
 54 55  1  0  0  0
 47 48  1  0  0  0
 48 49  2  0  0  0
 35 36  2  0  0  0
 36 37  1  0  0  0
 37 38  1  0  0  0
 37 39  1  0  0  0
  9 10  1  0  0  0
 10 11  1  0  0  0
 11 12  1  0  0  0
 12 13  1  0  0  0
 13 14  2  0  0  0
 13 15  1  0  0  0
 15 60  1  0  0  0
 60 61  1  0  0  0
 61 62  2  0  0  0
 62 63  1  0  0  0
 63 64  2  0  0  0
 64 65  1  0  0  0
 65 66  2  0  0  0
 12  1  1  0  0  0
 66 61  1  0  0  0
 11  5  1  0  0  0
 27 21  1  0  0  0
 39 30  1  0  0  0
 39 34  2  0  0  0
 49 44  1  0  0  0
 55 50  1  0  0  0
 59 56  1  0  0  0
 25 28  1  0  0  0
 42 43  1  0  0  0
 15 16  1  0  0  0
M  END
> <minimizedAffinity>
29.24537

> <CNNscore>
0.3338479698

> <CNNaffinity>
8.0863084793

> <CNN_VS>
2.6995975971

> <CNNaffinity_variance>
0.3755696714

$$$$
[H]Oc1c([H])c([H])c(C([H])([H])[C@@]2([H])C(=O)N(C([H])([H])c3c([H])c([H])c([H])c4c(C(=O)N([H])c5c([H])nc(N6C([H])([H])C([H])([H])C([H])(N7C([H])([H])C([H])([H])C7([H])[H])C([H])([H])C6([H])[H])c([H])c5[H])c([H])n(C([H])([H])[H])c34)C([H])([H])[C@]3([H])N(C(=O)N([H])C([H])([H])c4c([H])c([H])c([H])c([H])c4[H])N(C([H])([H])C([H])=C([H])[H])C([H])([H])C(=O)N23)c([H])c1[H]


 66 74  0  0  0  0  0  0  0  0999 V2000
   11.7208   44.2258  127.2548 N   0  0  0  0  0  0  0  0  0  0  0  0
   12.3221   45.0764  128.2663 C   0  0  0  0  0  0  0  0  0  0  0  0
   11.1130   45.7922  128.8445 C   0  0  0  0  0  0  0  0  0  0  0  0
   11.1698   47.0336  128.9068 O   0  0  0  0  0  0  0  0  0  0  0  0
   10.0192   45.0412  129.2747 N   0  0  0  0  0  0  0  0  0  0  0  0
    9.1286   45.5519  130.2775 C   0  0  0  0  0  0  0  0  0  0  0  0
    9.5137   44.7436  131.4943 C   0  0  0  0  0  0  0  0  0  0  0  0
    9.6205   45.2658  132.5907 O   0  0  0  0  0  0  0  0  0  0  0  0
    9.7409   43.3662  131.3043 N   0  0  0  0  0  0  0  0  0  0  0  0
    9.6977   42.7369  129.9619 C   0  0  0  0  0  0  0  0  0  0  0  0
    9.8006   43.6933  128.8208 C   0  0  0  0  0  0  0  0  0  0  0  0
   10.7292   43.3593  127.7653 N   0  0  0  0  0  0  0  0  0  0  0  0
   10.6846   42.0833  127.1225 C   0  0  0  0  0  0  0  0  0  0  0  0
   11.5818   41.8529  126.2433 O   0  0  0  0  0  0  0  0  0  0  0  0
    9.7643   41.0512  127.3428 N   0  0  0  0  0  0  0  0  0  0  0  0
    9.0088   41.1506  128.0211 H   0  0  0  0  0  0  0  0  0  0  0  0
   11.1896   45.1632  126.2768 C   0  0  0  0  0  0  0  0  0  0  0  0
    9.2916   44.7297  124.8270 C   0  0  0  0  0  0  0  0  0  0  0  0
    9.7796   45.0228  126.0023 C   0  0  0  0  0  0  0  0  0  0  0  0
    7.6790   45.5068  130.0383 C   0  0  0  0  0  0  0  0  0  0  0  0
    6.9369   46.7557  129.8492 C   0  0  0  0  0  0  0  0  0  0  0  0
    5.5412   46.7609  129.8818 C   0  0  0  0  0  0  0  0  0  0  0  0
    4.8345   47.9193  129.6391 C   0  0  0  0  0  0  0  0  0  0  0  0
    5.4513   49.1208  129.3525 C   0  0  0  0  0  0  0  0  0  0  0  0
    4.6838   50.2466  129.1213 O   0  0  0  0  0  0  0  0  0  0  0  0
    6.8178   49.1200  129.3181 C   0  0  0  0  0  0  0  0  0  0  0  0
    7.5467   47.9560  129.5616 C   0  0  0  0  0  0  0  0  0  0  0  0
    3.6701   50.2353  129.1519 H   0  0  0  0  0  0  0  0  0  0  0  0
   10.0722   42.4357  132.3849 C   0  0  0  0  0  0  0  0  0  0  0  0
   11.0760   43.0493  133.2598 C   0  0  0  0  0  0  0  0  0  0  0  0
   12.0499   43.8792  132.7690 C   0  0  0  0  0  0  0  0  0  0  0  0
   13.0353   44.4174  133.5787 C   0  0  0  0  0  0  0  0  0  0  0  0
   13.0546   44.1213  134.9293 C   0  0  0  0  0  0  0  0  0  0  0  0
   12.0628   43.2755  135.4423 C   0  0  0  0  0  0  0  0  0  0  0  0
   11.8171   42.8341  136.6992 C   0  0  0  0  0  0  0  0  0  0  0  0
   10.7005   42.0511  136.6304 C   0  0  0  0  0  0  0  0  0  0  0  0
   10.2354   41.9819  135.3707 N   0  0  0  0  0  0  0  0  0  0  0  0
    9.0769   41.2497  134.9229 C   0  0  0  0  0  0  0  0  0  0  0  0
   11.0804   42.7419  134.6170 C   0  0  0  0  0  0  0  0  0  0  0  0
   12.5867   43.0772  137.9675 C   0  0  0  0  0  0  0  0  0  0  0  0
   12.0983   43.8209  138.8448 O   0  0  0  0  0  0  0  0  0  0  0  0
   13.8275   42.4220  138.0721 N   0  0  0  0  0  0  0  0  0  0  0  0
   13.8273   42.7645  139.4093 H   0  0  0  0  0  0  0  0  0  0  0  0
   14.9802   41.8221  138.1865 C   0  0  0  0  0  0  0  0  0  0  0  0
   15.0990   40.6651  138.9841 C   0  0  0  0  0  0  0  0  0  0  0  0
   16.2475   39.9883  139.1645 C   0  0  0  0  0  0  0  0  0  0  0  0
   17.3854   40.4474  138.5415 C   0  0  0  0  0  0  0  0  0  0  0  0
   17.3530   41.5513  137.7608 N   0  0  0  0  0  0  0  0  0  0  0  0
   16.1913   42.2212  137.5807 C   0  0  0  0  0  0  0  0  0  0  0  0
   18.6507   39.8078  138.7333 N   0  0  0  0  0  0  0  0  0  0  0  0
   19.3852   40.0707  139.9461 C   0  0  0  0  0  0  0  0  0  0  0  0
   20.1163   38.9181  140.5290 C   0  0  0  0  0  0  0  0  0  0  0  0
   20.2023   37.7050  139.6716 C   0  0  0  0  0  0  0  0  0  0  0  0
   20.2425   38.0283  138.1815 C   0  0  0  0  0  0  0  0  0  0  0  0
   19.1815   38.9455  137.7149 C   0  0  0  0  0  0  0  0  0  0  0  0
   21.2967   36.8385  139.9309 N   0  0  0  0  0  0  0  0  0  0  0  0
   21.4369   35.6888  139.0962 C   0  0  0  0  0  0  0  0  0  0  0  0
   22.1145   35.0000  140.2637 C   0  0  0  0  0  0  0  0  0  0  0  0
   21.3551   36.0339  141.0927 C   0  0  0  0  0  0  0  0  0  0  0  0
    9.8401   39.7950  126.6021 C   0  0  0  0  0  0  0  0  0  0  0  0
   11.2688   39.3148  126.5256 C   0  0  0  0  0  0  0  0  0  0  0  0
   12.0422   39.6603  125.4672 C   0  0  0  0  0  0  0  0  0  0  0  0
   13.3690   39.1672  125.3897 C   0  0  0  0  0  0  0  0  0  0  0  0
   13.8562   38.3371  126.3985 C   0  0  0  0  0  0  0  0  0  0  0  0
   12.9627   38.0429  127.4479 C   0  0  0  0  0  0  0  0  0  0  0  0
   11.7204   38.5017  127.5331 C   0  0  0  0  0  0  0  0  0  0  0  0
 18 19  2  0  0  0
 19 17  1  0  0  0
 17  1  1  0  0  0
  1  2  1  0  0  0
  2  3  1  0  0  0
  3  4  2  0  0  0
  3  5  1  0  0  0
  5  6  1  0  0  0
  6 20  1  0  0  0
 20 21  1  0  0  0
 21 22  2  0  0  0
 22 23  1  0  0  0
 23 24  2  0  0  0
 24 25  1  0  0  0
 24 26  1  0  0  0
 26 27  2  0  0  0
  6  7  1  0  0  0
  7  8  2  0  0  0
  7  9  1  0  0  0
  9 29  1  0  0  0
 29 30  1  0  0  0
 30 31  2  0  0  0
 31 32  1  0  0  0
 32 33  2  0  0  0
 33 34  1  0  0  0
 34 35  1  0  0  0
 35 40  1  0  0  0
 40 41  2  0  0  0
 40 42  1  0  0  0
 42 44  1  0  0  0
 44 45  2  0  0  0
 45 46  1  0  0  0
 46 47  2  0  0  0
 47 50  1  0  0  0
 50 51  1  0  0  0
 51 52  1  0  0  0
 52 53  1  0  0  0
 53 56  1  0  0  0
 56 57  1  0  0  0
 57 58  1  0  0  0
 58 59  1  0  0  0
 53 54  1  0  0  0
 54 55  1  0  0  0
 47 48  1  0  0  0
 48 49  2  0  0  0
 35 36  2  0  0  0
 36 37  1  0  0  0
 37 38  1  0  0  0
 37 39  1  0  0  0
  9 10  1  0  0  0
 10 11  1  0  0  0
 11 12  1  0  0  0
 12 13  1  0  0  0
 13 14  2  0  0  0
 13 15  1  0  0  0
 15 60  1  0  0  0
 60 61  1  0  0  0
 61 62  2  0  0  0
 62 63  1  0  0  0
 63 64  2  0  0  0
 64 65  1  0  0  0
 65 66  2  0  0  0
 12  1  1  0  0  0
 66 61  1  0  0  0
 11  5  1  0  0  0
 27 21  1  0  0  0
 39 30  1  0  0  0
 39 34  2  0  0  0
 49 44  1  0  0  0
 55 50  1  0  0  0
 59 56  1  0  0  0
 25 28  1  0  0  0
 42 43  1  0  0  0
 15 16  1  0  0  0
M  END
> <minimizedAffinity>
50.98137

> <CNNscore>
0.3294899166

> <CNNaffinity>
7.8604636192

> <CNN_VS>
2.5899434090

> <CNNaffinity_variance>
0.9501035810

$$$$
[H]Oc1c([H])c([H])c(C([H])([H])[C@@]2([H])C(=O)N(C([H])([H])c3c([H])c([H])c([H])c4c(C(=O)N([H])c5c([H])nc(N6C([H])([H])C([H])([H])C([H])(N7C([H])([H])C([H])([H])C7([H])[H])C([H])([H])C6([H])[H])c([H])c5[H])c([H])n(C([H])([H])[H])c34)C([H])([H])[C@]3([H])N(C(=O)N([H])C([H])([H])c4c([H])c([H])c([H])c([H])c4[H])N(C([H])([H])C([H])=C([H])[H])C([H])([H])C(=O)N23)c([H])c1[H]


 66 74  0  0  0  0  0  0  0  0999 V2000
    7.4447   49.0511  130.6117 N   0  0  0  0  0  0  0  0  0  0  0  0
    6.4772   48.2139  129.9255 C   0  0  0  0  0  0  0  0  0  0  0  0
    7.3092   47.6136  128.8048 C   0  0  0  0  0  0  0  0  0  0  0  0
    6.8529   47.7091  127.6510 O   0  0  0  0  0  0  0  0  0  0  0  0
    8.5188   46.9915  129.1136 N   0  0  0  0  0  0  0  0  0  0  0  0
    9.0614   45.9775  128.2551 C   0  0  0  0  0  0  0  0  0  0  0  0
    8.7975   44.7139  129.0399 C   0  0  0  0  0  0  0  0  0  0  0  0
    8.3877   43.7050  128.4920 O   0  0  0  0  0  0  0  0  0  0  0  0
    9.0471   44.7552  130.4259 N   0  0  0  0  0  0  0  0  0  0  0  0
    9.4636   46.0003  131.1161 C   0  0  0  0  0  0  0  0  0  0  0  0
    9.2122   47.2542  130.3468 C   0  0  0  0  0  0  0  0  0  0  0  0
    8.5846   48.3455  131.0562 N   0  0  0  0  0  0  0  0  0  0  0  0
    9.1164   48.8203  132.2951 C   0  0  0  0  0  0  0  0  0  0  0  0
    8.4623   49.7470  132.8819 O   0  0  0  0  0  0  0  0  0  0  0  0
   10.2799   48.3879  132.9432 N   0  0  0  0  0  0  0  0  0  0  0  0
   10.8690   47.6572  132.5433 H   0  0  0  0  0  0  0  0  0  0  0  0
    7.7735   50.0806  129.6372 C   0  0  0  0  0  0  0  0  0  0  0  0
    6.8241   52.0650  128.6109 C   0  0  0  0  0  0  0  0  0  0  0  0
    6.8323   51.1724  129.5641 C   0  0  0  0  0  0  0  0  0  0  0  0
   10.4683   46.0686  127.8390 C   0  0  0  0  0  0  0  0  0  0  0  0
   11.4966   45.3554  128.6007 C   0  0  0  0  0  0  0  0  0  0  0  0
   11.7199   45.6600  129.9448 C   0  0  0  0  0  0  0  0  0  0  0  0
   12.7294   45.0405  130.6499 C   0  0  0  0  0  0  0  0  0  0  0  0
   13.5662   44.1012  130.0809 C   0  0  0  0  0  0  0  0  0  0  0  0
   14.5579   43.5154  130.8447 O   0  0  0  0  0  0  0  0  0  0  0  0
   13.3521   43.8010  128.7646 C   0  0  0  0  0  0  0  0  0  0  0  0
   12.3347   44.4193  128.0381 C   0  0  0  0  0  0  0  0  0  0  0  0
   14.7055   43.7447  131.8215 H   0  0  0  0  0  0  0  0  0  0  0  0
    8.8904   43.6060  131.3192 C   0  0  0  0  0  0  0  0  0  0  0  0
    8.9300   44.0669  132.7105 C   0  0  0  0  0  0  0  0  0  0  0  0
    8.0117   44.9578  133.2015 C   0  0  0  0  0  0  0  0  0  0  0  0
    8.0752   45.4417  134.4969 C   0  0  0  0  0  0  0  0  0  0  0  0
    9.0895   45.0242  135.3390 C   0  0  0  0  0  0  0  0  0  0  0  0
   10.0327   44.1123  134.8483 C   0  0  0  0  0  0  0  0  0  0  0  0
   11.1012   43.5193  135.4328 C   0  0  0  0  0  0  0  0  0  0  0  0
   11.6555   42.6950  134.4960 C   0  0  0  0  0  0  0  0  0  0  0  0
   10.9733   42.7508  133.3385 N   0  0  0  0  0  0  0  0  0  0  0  0
   11.2680   42.0172  132.1328 C   0  0  0  0  0  0  0  0  0  0  0  0
    9.9567   43.6359  133.5451 C   0  0  0  0  0  0  0  0  0  0  0  0
   11.6589   43.7003  136.8171 C   0  0  0  0  0  0  0  0  0  0  0  0
   11.0023   44.3482  137.6599 O   0  0  0  0  0  0  0  0  0  0  0  0
   12.9079   43.1008  137.0627 N   0  0  0  0  0  0  0  0  0  0  0  0
   12.6895   43.3374  138.4051 H   0  0  0  0  0  0  0  0  0  0  0  0
   14.0652   42.5513  137.3087 C   0  0  0  0  0  0  0  0  0  0  0  0
   14.1803   41.5621  138.3073 C   0  0  0  0  0  0  0  0  0  0  0  0
   15.3328   40.9490  138.6320 C   0  0  0  0  0  0  0  0  0  0  0  0
   16.4788   41.3051  137.9586 C   0  0  0  0  0  0  0  0  0  0  0  0
   16.4504   42.2466  136.9881 N   0  0  0  0  0  0  0  0  0  0  0  0
   15.2847   42.8527  136.6646 C   0  0  0  0  0  0  0  0  0  0  0  0
   17.7474   40.7326  138.2901 N   0  0  0  0  0  0  0  0  0  0  0  0
   18.2024   40.7966  139.6570 C   0  0  0  0  0  0  0  0  0  0  0  0
   18.9324   39.6055  140.1580 C   0  0  0  0  0  0  0  0  0  0  0  0
   19.3155   38.6006  139.1297 C   0  0  0  0  0  0  0  0  0  0  0  0
   19.6036   39.2210  137.7664 C   0  0  0  0  0  0  0  0  0  0  0  0
   18.5559   40.1350  137.2647 C   0  0  0  0  0  0  0  0  0  0  0  0
   20.4298   37.7805  139.4485 N   0  0  0  0  0  0  0  0  0  0  0  0
   20.4536   36.4621  138.9014 C   0  0  0  0  0  0  0  0  0  0  0  0
   21.2743   36.0439  140.1049 C   0  0  0  0  0  0  0  0  0  0  0  0
   20.6353   37.2711  140.7520 C   0  0  0  0  0  0  0  0  0  0  0  0
   10.7051   48.9734  134.2115 C   0  0  0  0  0  0  0  0  0  0  0  0
   11.9474   48.2831  134.7193 C   0  0  0  0  0  0  0  0  0  0  0  0
   12.7633   48.9185  135.5958 C   0  0  0  0  0  0  0  0  0  0  0  0
   13.9476   48.2727  136.0314 C   0  0  0  0  0  0  0  0  0  0  0  0
   14.2548   46.9995  135.5531 C   0  0  0  0  0  0  0  0  0  0  0  0
   13.3355   46.4378  134.6444 C   0  0  0  0  0  0  0  0  0  0  0  0
   12.2222   47.0310  134.2326 C   0  0  0  0  0  0  0  0  0  0  0  0
 18 19  2  0  0  0
 19 17  1  0  0  0
 17  1  1  0  0  0
  1  2  1  0  0  0
  2  3  1  0  0  0
  3  4  2  0  0  0
  3  5  1  0  0  0
  5  6  1  0  0  0
  6 20  1  0  0  0
 20 21  1  0  0  0
 21 22  2  0  0  0
 22 23  1  0  0  0
 23 24  2  0  0  0
 24 25  1  0  0  0
 24 26  1  0  0  0
 26 27  2  0  0  0
  6  7  1  0  0  0
  7  8  2  0  0  0
  7  9  1  0  0  0
  9 29  1  0  0  0
 29 30  1  0  0  0
 30 31  2  0  0  0
 31 32  1  0  0  0
 32 33  2  0  0  0
 33 34  1  0  0  0
 34 35  1  0  0  0
 35 40  1  0  0  0
 40 41  2  0  0  0
 40 42  1  0  0  0
 42 44  1  0  0  0
 44 45  2  0  0  0
 45 46  1  0  0  0
 46 47  2  0  0  0
 47 50  1  0  0  0
 50 51  1  0  0  0
 51 52  1  0  0  0
 52 53  1  0  0  0
 53 56  1  0  0  0
 56 57  1  0  0  0
 57 58  1  0  0  0
 58 59  1  0  0  0
 53 54  1  0  0  0
 54 55  1  0  0  0
 47 48  1  0  0  0
 48 49  2  0  0  0
 35 36  2  0  0  0
 36 37  1  0  0  0
 37 38  1  0  0  0
 37 39  1  0  0  0
  9 10  1  0  0  0
 10 11  1  0  0  0
 11 12  1  0  0  0
 12 13  1  0  0  0
 13 14  2  0  0  0
 13 15  1  0  0  0
 15 60  1  0  0  0
 60 61  1  0  0  0
 61 62  2  0  0  0
 62 63  1  0  0  0
 63 64  2  0  0  0
 64 65  1  0  0  0
 65 66  2  0  0  0
 12  1  1  0  0  0
 66 61  1  0  0  0
 11  5  1  0  0  0
 27 21  1  0  0  0
 39 30  1  0  0  0
 39 34  2  0  0  0
 49 44  1  0  0  0
 55 50  1  0  0  0
 59 56  1  0  0  0
 25 28  1  0  0  0
 42 43  1  0  0  0
 15 16  1  0  0  0
M  END
> <minimizedAffinity>
30.32022

> <CNNscore>
0.3220216334

> <CNNaffinity>
8.2728166580

> <CNN_VS>
2.6640260220

> <CNNaffinity_variance>
0.8122863770

$$$$
[H]Oc1c([H])c([H])c(C([H])([H])[C@@]2([H])C(=O)N(C([H])([H])c3c([H])c([H])c([H])c4c(C(=O)N([H])c5c([H])nc(N6C([H])([H])C([H])([H])C([H])(N7C([H])([H])C([H])([H])C7([H])[H])C([H])([H])C6([H])[H])c([H])c5[H])c([H])n(C([H])([H])[H])c34)C([H])([H])[C@]3([H])N(C(=O)N([H])C([H])([H])c4c([H])c([H])c([H])c([H])c4[H])N(C([H])([H])C([H])=C([H])[H])C([H])([H])C(=O)N23)c([H])c1[H]


 66 74  0  0  0  0  0  0  0  0999 V2000
    6.7886   48.0872  130.2643 N   0  0  0  0  0  0  0  0  0  0  0  0
    5.8538   47.0201  129.9553 C   0  0  0  0  0  0  0  0  0  0  0  0
    6.6765   46.1264  129.0425 C   0  0  0  0  0  0  0  0  0  0  0  0
    6.1646   45.8095  127.9535 O   0  0  0  0  0  0  0  0  0  0  0  0
    7.9395   45.7064  129.4596 N   0  0  0  0  0  0  0  0  0  0  0  0
    8.5146   44.4949  128.9486 C   0  0  0  0  0  0  0  0  0  0  0  0
    8.3755   43.5514  130.1202 C   0  0  0  0  0  0  0  0  0  0  0  0
    8.0147   42.3978  129.9618 O   0  0  0  0  0  0  0  0  0  0  0  0
    8.6818   44.0634  131.3965 N   0  0  0  0  0  0  0  0  0  0  0  0
    9.0387   45.4870  131.6110 C   0  0  0  0  0  0  0  0  0  0  0  0
    8.6657   46.3995  130.4905 C   0  0  0  0  0  0  0  0  0  0  0  0
    7.9939   47.6299  130.8411 N   0  0  0  0  0  0  0  0  0  0  0  0
    8.5443   48.5161  131.8182 C   0  0  0  0  0  0  0  0  0  0  0  0
    7.8525   49.5494  132.1090 O   0  0  0  0  0  0  0  0  0  0  0  0
    9.7628   48.3850  132.4957 N   0  0  0  0  0  0  0  0  0  0  0  0
   10.3842   47.5950  132.3207 H   0  0  0  0  0  0  0  0  0  0  0  0
    7.0006   48.7506  128.9866 C   0  0  0  0  0  0  0  0  0  0  0  0
    7.2220   51.1376  129.3684 C   0  0  0  0  0  0  0  0  0  0  0  0
    6.5384   50.1165  128.9259 C   0  0  0  0  0  0  0  0  0  0  0  0
    9.8919   44.5164  128.4356 C   0  0  0  0  0  0  0  0  0  0  0  0
   11.0080   44.7094  129.3647 C   0  0  0  0  0  0  0  0  0  0  0  0
   10.9656   45.7271  130.3194 C   0  0  0  0  0  0  0  0  0  0  0  0
   12.0392   45.9572  131.1529 C   0  0  0  0  0  0  0  0  0  0  0  0
   13.1997   45.2115  131.0944 C   0  0  0  0  0  0  0  0  0  0  0  0
   14.2387   45.4925  131.9612 O   0  0  0  0  0  0  0  0  0  0  0  0
   13.2461   44.2149  130.1600 C   0  0  0  0  0  0  0  0  0  0  0  0
   12.1680   43.9699  129.3097 C   0  0  0  0  0  0  0  0  0  0  0  0
   14.1916   46.2334  132.6521 H   0  0  0  0  0  0  0  0  0  0  0  0
    8.6462   43.2693  132.6259 C   0  0  0  0  0  0  0  0  0  0  0  0
    9.4398   43.9424  133.6588 C   0  0  0  0  0  0  0  0  0  0  0  0
    8.8845   44.8614  134.5102 C   0  0  0  0  0  0  0  0  0  0  0  0
    9.6378   45.5433  135.4504 C   0  0  0  0  0  0  0  0  0  0  0  0
   10.9959   45.3029  135.5505 C   0  0  0  0  0  0  0  0  0  0  0  0
   11.5739   44.3642  134.6864 C   0  0  0  0  0  0  0  0  0  0  0  0
   12.8455   43.9125  134.5673 C   0  0  0  0  0  0  0  0  0  0  0  0
   12.8392   42.9752  133.5744 C   0  0  0  0  0  0  0  0  0  0  0  0
   11.6057   42.8229  133.0611 N   0  0  0  0  0  0  0  0  0  0  0  0
   11.2224   41.9229  132.0020 C   0  0  0  0  0  0  0  0  0  0  0  0
   10.8050   43.6880  133.7468 C   0  0  0  0  0  0  0  0  0  0  0  0
   14.0836   44.3290  135.3114 C   0  0  0  0  0  0  0  0  0  0  0  0
   14.5443   45.4771  135.1355 O   0  0  0  0  0  0  0  0  0  0  0  0
   14.6357   43.3678  136.1781 N   0  0  0  0  0  0  0  0  0  0  0  0
   15.4194   44.3771  136.7002 H   0  0  0  0  0  0  0  0  0  0  0  0
   15.1612   42.4893  136.9866 C   0  0  0  0  0  0  0  0  0  0  0  0
   16.5629   42.3681  137.0845 C   0  0  0  0  0  0  0  0  0  0  0  0
   17.1895   41.4866  137.8845 C   0  0  0  0  0  0  0  0  0  0  0  0
   16.4254   40.6409  138.6558 C   0  0  0  0  0  0  0  0  0  0  0  0
   15.0746   40.6950  138.6168 N   0  0  0  0  0  0  0  0  0  0  0  0
   14.4542   41.5898  137.8136 C   0  0  0  0  0  0  0  0  0  0  0  0
   17.0255   39.6434  139.4876 N   0  0  0  0  0  0  0  0  0  0  0  0
   16.6999   39.6226  140.8923 C   0  0  0  0  0  0  0  0  0  0  0  0
   16.5670   38.2803  141.5113 C   0  0  0  0  0  0  0  0  0  0  0  0
   17.0195   37.1344  140.6767 C   0  0  0  0  0  0  0  0  0  0  0  0
   18.1720   37.4930  139.7442 C   0  0  0  0  0  0  0  0  0  0  0  0
   17.9566   38.7052  138.9263 C   0  0  0  0  0  0  0  0  0  0  0  0
   17.4151   35.9692  141.3850 N   0  0  0  0  0  0  0  0  0  0  0  0
   16.9052   34.7169  140.9271 C   0  0  0  0  0  0  0  0  0  0  0  0
   17.0271   34.2160  142.3522 C   0  0  0  0  0  0  0  0  0  0  0  0
   16.9628   35.7023  142.6984 C   0  0  0  0  0  0  0  0  0  0  0  0
   10.2005   49.3798  133.4710 C   0  0  0  0  0  0  0  0  0  0  0  0
   11.3991   48.8744  134.2361 C   0  0  0  0  0  0  0  0  0  0  0  0
   11.8778   49.5834  135.2876 C   0  0  0  0  0  0  0  0  0  0  0  0
   13.0292   49.1166  135.9701 C   0  0  0  0  0  0  0  0  0  0  0  0
   13.6500   47.9406  135.5508 C   0  0  0  0  0  0  0  0  0  0  0  0
   13.0666   47.2890  134.4456 C   0  0  0  0  0  0  0  0  0  0  0  0
   11.9871   47.7144  133.8016 C   0  0  0  0  0  0  0  0  0  0  0  0
 18 19  2  0  0  0
 19 17  1  0  0  0
 17  1  1  0  0  0
  1  2  1  0  0  0
  2  3  1  0  0  0
  3  4  2  0  0  0
  3  5  1  0  0  0
  5  6  1  0  0  0
  6 20  1  0  0  0
 20 21  1  0  0  0
 21 22  2  0  0  0
 22 23  1  0  0  0
 23 24  2  0  0  0
 24 25  1  0  0  0
 24 26  1  0  0  0
 26 27  2  0  0  0
  6  7  1  0  0  0
  7  8  2  0  0  0
  7  9  1  0  0  0
  9 29  1  0  0  0
 29 30  1  0  0  0
 30 31  2  0  0  0
 31 32  1  0  0  0
 32 33  2  0  0  0
 33 34  1  0  0  0
 34 35  1  0  0  0
 35 40  1  0  0  0
 40 41  2  0  0  0
 40 42  1  0  0  0
 42 44  1  0  0  0
 44 45  2  0  0  0
 45 46  1  0  0  0
 46 47  2  0  0  0
 47 50  1  0  0  0
 50 51  1  0  0  0
 51 52  1  0  0  0
 52 53  1  0  0  0
 53 56  1  0  0  0
 56 57  1  0  0  0
 57 58  1  0  0  0
 58 59  1  0  0  0
 53 54  1  0  0  0
 54 55  1  0  0  0
 47 48  1  0  0  0
 48 49  2  0  0  0
 35 36  2  0  0  0
 36 37  1  0  0  0
 37 38  1  0  0  0
 37 39  1  0  0  0
  9 10  1  0  0  0
 10 11  1  0  0  0
 11 12  1  0  0  0
 12 13  1  0  0  0
 13 14  2  0  0  0
 13 15  1  0  0  0
 15 60  1  0  0  0
 60 61  1  0  0  0
 61 62  2  0  0  0
 62 63  1  0  0  0
 63 64  2  0  0  0
 64 65  1  0  0  0
 65 66  2  0  0  0
 12  1  1  0  0  0
 66 61  1  0  0  0
 11  5  1  0  0  0
 27 21  1  0  0  0
 39 30  1  0  0  0
 39 34  2  0  0  0
 49 44  1  0  0  0
 55 50  1  0  0  0
 59 56  1  0  0  0
 25 28  1  0  0  0
 42 43  1  0  0  0
 15 16  1  0  0  0
M  END
> <minimizedAffinity>
28.03157

> <CNNscore>
0.3198964000

> <CNNaffinity>
8.3890514374

> <CNN_VS>
2.6836273670

> <CNNaffinity_variance>
0.7846748233

$$$$
[H]Oc1c([H])c([H])c(C([H])([H])[C@@]2([H])C(=O)N(C([H])([H])c3c([H])c([H])c([H])c4c(C(=O)N([H])c5c([H])nc(N6C([H])([H])C([H])([H])C([H])(N7C([H])([H])C([H])([H])C7([H])[H])C([H])([H])C6([H])[H])c([H])c5[H])c([H])n(C([H])([H])[H])c34)C([H])([H])[C@]3([H])N(C(=O)N([H])C([H])([H])c4c([H])c([H])c([H])c([H])c4[H])N(C([H])([H])C([H])=C([H])[H])C([H])([H])C(=O)N23)c([H])c1[H]


 66 74  0  0  0  0  0  0  0  0999 V2000
    7.7626   43.5898  131.9582 N   0  0  0  0  0  0  0  0  0  0  0  0
    7.9556   43.4832  133.3933 C   0  0  0  0  0  0  0  0  0  0  0  0
    9.3874   42.9837  133.4888 C   0  0  0  0  0  0  0  0  0  0  0  0
    9.5867   41.9757  134.1908 O   0  0  0  0  0  0  0  0  0  0  0  0
   10.3931   43.6656  132.8040 N   0  0  0  0  0  0  0  0  0  0  0  0
   11.7549   43.6066  133.2528 C   0  0  0  0  0  0  0  0  0  0  0  0
   11.9525   44.9724  133.8674 C   0  0  0  0  0  0  0  0  0  0  0  0
   12.5433   45.1087  134.9251 O   0  0  0  0  0  0  0  0  0  0  0  0
   11.4269   46.0747  133.1649 N   0  0  0  0  0  0  0  0  0  0  0  0
   10.6331   45.9129  131.9223 C   0  0  0  0  0  0  0  0  0  0  0  0
   10.0986   44.5377  131.6979 C   0  0  0  0  0  0  0  0  0  0  0  0
    8.7073   44.4265  131.3240 N   0  0  0  0  0  0  0  0  0  0  0  0
    8.1800   45.1686  130.2220 C   0  0  0  0  0  0  0  0  0  0  0  0
    6.9271   45.0552  130.0017 O   0  0  0  0  0  0  0  0  0  0  0  0
    8.8813   46.0082  129.3479 N   0  0  0  0  0  0  0  0  0  0  0  0
    9.8868   46.1520  129.4438 H   0  0  0  0  0  0  0  0  0  0  0  0
    7.8361   42.2139  131.4899 C   0  0  0  0  0  0  0  0  0  0  0  0
    9.2515   41.0503  129.8978 C   0  0  0  0  0  0  0  0  0  0  0  0
    8.4579   42.0428  130.1987 C   0  0  0  0  0  0  0  0  0  0  0  0
   12.8155   43.2939  132.2843 C   0  0  0  0  0  0  0  0  0  0  0  0
   12.6038   43.5751  130.8622 C   0  0  0  0  0  0  0  0  0  0  0  0
   13.4975   44.3866  130.1610 C   0  0  0  0  0  0  0  0  0  0  0  0
   13.2696   44.7096  128.8404 C   0  0  0  0  0  0  0  0  0  0  0  0
   12.1645   44.2612  128.1449 C   0  0  0  0  0  0  0  0  0  0  0  0
   11.9966   44.6201  126.8209 O   0  0  0  0  0  0  0  0  0  0  0  0
   11.2858   43.4676  128.8280 C   0  0  0  0  0  0  0  0  0  0  0  0
   11.5029   43.1319  130.1643 C   0  0  0  0  0  0  0  0  0  0  0  0
   12.6568   45.2079  126.3238 H   0  0  0  0  0  0  0  0  0  0  0  0
   11.5748   47.4655  133.5971 C   0  0  0  0  0  0  0  0  0  0  0  0
   10.2476   48.0757  133.7235 C   0  0  0  0  0  0  0  0  0  0  0  0
    9.5254   47.9972  134.8855 C   0  0  0  0  0  0  0  0  0  0  0  0
    8.2488   48.5209  134.9956 C   0  0  0  0  0  0  0  0  0  0  0  0
    7.6659   49.1486  133.9100 C   0  0  0  0  0  0  0  0  0  0  0  0
    8.3957   49.2362  132.7177 C   0  0  0  0  0  0  0  0  0  0  0  0
    8.1022   49.7998  131.5212 C   0  0  0  0  0  0  0  0  0  0  0  0
    9.1925   49.6141  130.7204 C   0  0  0  0  0  0  0  0  0  0  0  0
   10.1631   48.9492  131.3715 N   0  0  0  0  0  0  0  0  0  0  0  0
   11.4521   48.5780  130.8428 C   0  0  0  0  0  0  0  0  0  0  0  0
    9.6762   48.7049  132.6217 C   0  0  0  0  0  0  0  0  0  0  0  0
    6.8417   50.4813  131.0668 C   0  0  0  0  0  0  0  0  0  0  0  0
    5.7754   50.2654  131.6813 O   0  0  0  0  0  0  0  0  0  0  0  0
    6.9688   51.3396  129.9591 N   0  0  0  0  0  0  0  0  0  0  0  0
    5.7047   51.8091  130.2545 H   0  0  0  0  0  0  0  0  0  0  0  0
    7.0679   52.1395  128.9334 C   0  0  0  0  0  0  0  0  0  0  0  0
    7.2421   51.6099  127.6381 C   0  0  0  0  0  0  0  0  0  0  0  0
    7.3609   52.3588  126.5269 C   0  0  0  0  0  0  0  0  0  0  0  0
    7.3169   53.7287  126.6502 C   0  0  0  0  0  0  0  0  0  0  0  0
    7.1534   54.3127  127.8590 N   0  0  0  0  0  0  0  0  0  0  0  0
    7.0285   53.5502  128.9697 C   0  0  0  0  0  0  0  0  0  0  0  0
    7.4908   54.5856  125.5177 N   0  0  0  0  0  0  0  0  0  0  0  0
    8.6393   55.4567  125.4756 C   0  0  0  0  0  0  0  0  0  0  0  0
    9.2704   55.6404  124.1450 C   0  0  0  0  0  0  0  0  0  0  0  0
    8.5061   55.1046  122.9861 C   0  0  0  0  0  0  0  0  0  0  0  0
    6.9954   55.1630  123.1883 C   0  0  0  0  0  0  0  0  0  0  0  0
    6.5157   54.5897  124.4635 C   0  0  0  0  0  0  0  0  0  0  0  0
    8.7737   55.7134  121.7317 N   0  0  0  0  0  0  0  0  0  0  0  0
    8.8583   57.1380  121.6971 C   0  0  0  0  0  0  0  0  0  0  0  0
    8.3936   57.0692  120.2562 C   0  0  0  0  0  0  0  0  0  0  0  0
    7.8229   55.7187  120.6845 C   0  0  0  0  0  0  0  0  0  0  0  0
    8.2053   46.7025  128.2555 C   0  0  0  0  0  0  0  0  0  0  0  0
    6.8856   47.2635  128.7257 C   0  0  0  0  0  0  0  0  0  0  0  0
    6.4378   48.4433  128.2305 C   0  0  0  0  0  0  0  0  0  0  0  0
    5.2163   48.9770  128.7127 C   0  0  0  0  0  0  0  0  0  0  0  0
    4.4973   48.2839  129.6857 C   0  0  0  0  0  0  0  0  0  0  0  0
    5.0600   47.0700  130.1284 C   0  0  0  0  0  0  0  0  0  0  0  0
    6.2002   46.5588  129.6816 C   0  0  0  0  0  0  0  0  0  0  0  0
 18 19  2  0  0  0
 19 17  1  0  0  0
 17  1  1  0  0  0
  1  2  1  0  0  0
  2  3  1  0  0  0
  3  4  2  0  0  0
  3  5  1  0  0  0
  5  6  1  0  0  0
  6 20  1  0  0  0
 20 21  1  0  0  0
 21 22  2  0  0  0
 22 23  1  0  0  0
 23 24  2  0  0  0
 24 25  1  0  0  0
 24 26  1  0  0  0
 26 27  2  0  0  0
  6  7  1  0  0  0
  7  8  2  0  0  0
  7  9  1  0  0  0
  9 29  1  0  0  0
 29 30  1  0  0  0
 30 31  2  0  0  0
 31 32  1  0  0  0
 32 33  2  0  0  0
 33 34  1  0  0  0
 34 35  1  0  0  0
 35 40  1  0  0  0
 40 41  2  0  0  0
 40 42  1  0  0  0
 42 44  1  0  0  0
 44 45  2  0  0  0
 45 46  1  0  0  0
 46 47  2  0  0  0
 47 50  1  0  0  0
 50 51  1  0  0  0
 51 52  1  0  0  0
 52 53  1  0  0  0
 53 56  1  0  0  0
 56 57  1  0  0  0
 57 58  1  0  0  0
 58 59  1  0  0  0
 53 54  1  0  0  0
 54 55  1  0  0  0
 47 48  1  0  0  0
 48 49  2  0  0  0
 35 36  2  0  0  0
 36 37  1  0  0  0
 37 38  1  0  0  0
 37 39  1  0  0  0
  9 10  1  0  0  0
 10 11  1  0  0  0
 11 12  1  0  0  0
 12 13  1  0  0  0
 13 14  2  0  0  0
 13 15  1  0  0  0
 15 60  1  0  0  0
 60 61  1  0  0  0
 61 62  2  0  0  0
 62 63  1  0  0  0
 63 64  2  0  0  0
 64 65  1  0  0  0
 65 66  2  0  0  0
 12  1  1  0  0  0
 66 61  1  0  0  0
 11  5  1  0  0  0
 27 21  1  0  0  0
 39 30  1  0  0  0
 39 34  2  0  0  0
 49 44  1  0  0  0
 55 50  1  0  0  0
 59 56  1  0  0  0
 25 28  1  0  0  0
 42 43  1  0  0  0
 15 16  1  0  0  0
M  END
> <minimizedAffinity>
23.08396

> <CNNscore>
0.3161541522

> <CNNaffinity>
8.1174879074

> <CNN_VS>
2.5663774014

> <CNNaffinity_variance>
0.2793608308

$$$$
[H]Oc1c([H])c([H])c(C([H])([H])[C@@]2([H])C(=O)N(C([H])([H])c3c([H])c([H])c([H])c4c(C(=O)N([H])c5c([H])nc(N6C([H])([H])C([H])([H])C([H])(N7C([H])([H])C([H])([H])C7([H])[H])C([H])([H])C6([H])[H])c([H])c5[H])c([H])n(C([H])([H])[H])c34)C([H])([H])[C@]3([H])N(C(=O)N([H])C([H])([H])c4c([H])c([H])c([H])c([H])c4[H])N(C([H])([H])C([H])=C([H])[H])C([H])([H])C(=O)N23)c([H])c1[H]


 66 74  0  0  0  0  0  0  0  0999 V2000
    7.7705   46.4559  130.2840 N   0  0  0  0  0  0  0  0  0  0  0  0
    7.0846   45.1858  130.1277 C   0  0  0  0  0  0  0  0  0  0  0  0
    8.2094   44.2654  129.6846 C   0  0  0  0  0  0  0  0  0  0  0  0
    8.0133   43.5897  128.6583 O   0  0  0  0  0  0  0  0  0  0  0  0
    9.3842   44.2168  130.4350 N   0  0  0  0  0  0  0  0  0  0  0  0
   10.2189   43.0496  130.4147 C   0  0  0  0  0  0  0  0  0  0  0  0
    9.9365   42.4263  131.7615 C   0  0  0  0  0  0  0  0  0  0  0  0
    9.7797   41.2231  131.8794 O   0  0  0  0  0  0  0  0  0  0  0  0
    9.8648   43.2949  132.8685 N   0  0  0  0  0  0  0  0  0  0  0  0
    9.9688   44.7674  132.7242 C   0  0  0  0  0  0  0  0  0  0  0  0
    9.7501   45.2756  131.3381 C   0  0  0  0  0  0  0  0  0  0  0  0
    8.8573   46.4013  131.1843 N   0  0  0  0  0  0  0  0  0  0  0  0
    9.0409   47.5957  131.9478 C   0  0  0  0  0  0  0  0  0  0  0  0
    8.1689   48.5156  131.7914 O   0  0  0  0  0  0  0  0  0  0  0  0
   10.0733   47.8784  132.8505 N   0  0  0  0  0  0  0  0  0  0  0  0
   10.8179   47.2050  133.0320 H   0  0  0  0  0  0  0  0  0  0  0  0
    8.1852   46.8008  128.9325 C   0  0  0  0  0  0  0  0  0  0  0  0
    7.9167   48.6284  127.3576 C   0  0  0  0  0  0  0  0  0  0  0  0
    7.4546   47.8906  128.3311 C   0  0  0  0  0  0  0  0  0  0  0  0
   11.6625   43.2051  130.1857 C   0  0  0  0  0  0  0  0  0  0  0  0
   12.4146   44.2007  130.9534 C   0  0  0  0  0  0  0  0  0  0  0  0
   13.3230   45.0472  130.3153 C   0  0  0  0  0  0  0  0  0  0  0  0
   14.0825   45.9409  131.0395 C   0  0  0  0  0  0  0  0  0  0  0  0
   13.9947   46.0500  132.4130 C   0  0  0  0  0  0  0  0  0  0  0  0
   14.7833   46.9691  133.0788 O   0  0  0  0  0  0  0  0  0  0  0  0
   13.1075   45.2220  133.0422 C   0  0  0  0  0  0  0  0  0  0  0  0
   12.3320   44.3127  132.3231 C   0  0  0  0  0  0  0  0  0  0  0  0
   15.4366   47.5800  132.6006 H   0  0  0  0  0  0  0  0  0  0  0  0
    9.6487   42.8478  134.2456 C   0  0  0  0  0  0  0  0  0  0  0  0
    8.2292   42.5327  134.4340 C   0  0  0  0  0  0  0  0  0  0  0  0
    7.7609   41.2466  134.3660 C   0  0  0  0  0  0  0  0  0  0  0  0
    6.4149   40.9460  134.4860 C   0  0  0  0  0  0  0  0  0  0  0  0
    5.4973   41.9618  134.6823 C   0  0  0  0  0  0  0  0  0  0  0  0
    5.9651   43.2800  134.7552 C   0  0  0  0  0  0  0  0  0  0  0  0
    5.3212   44.4544  134.9586 C   0  0  0  0  0  0  0  0  0  0  0  0
    6.2754   45.4312  134.9627 C   0  0  0  0  0  0  0  0  0  0  0  0
    7.4999   44.9117  134.7656 N   0  0  0  0  0  0  0  0  0  0  0  0
    8.7425   45.6409  134.7104 C   0  0  0  0  0  0  0  0  0  0  0  0
    7.3193   43.5667  134.6321 C   0  0  0  0  0  0  0  0  0  0  0  0
    3.8515   44.7256  135.1210 C   0  0  0  0  0  0  0  0  0  0  0  0
    3.3951   44.9529  136.2618 O   0  0  0  0  0  0  0  0  0  0  0  0
    3.0866   44.7098  133.9402 N   0  0  0  0  0  0  0  0  0  0  0  0
    2.0616   45.2797  134.6684 H   0  0  0  0  0  0  0  0  0  0  0  0
    2.3617   44.6995  132.8557 C   0  0  0  0  0  0  0  0  0  0  0  0
    2.6847   45.5540  131.7813 C   0  0  0  0  0  0  0  0  0  0  0  0
    1.9897   45.6151  130.6311 C   0  0  0  0  0  0  0  0  0  0  0  0
    0.8894   44.8016  130.4844 C   0  0  0  0  0  0  0  0  0  0  0  0
    0.5147   43.9551  131.4703 N   0  0  0  0  0  0  0  0  0  0  0  0
    1.2244   43.8968  132.6209 C   0  0  0  0  0  0  0  0  0  0  0  0
    0.0740   44.8543  129.3100 N   0  0  0  0  0  0  0  0  0  0  0  0
   -0.1353   46.1276  128.6662 C   0  0  0  0  0  0  0  0  0  0  0  0
   -0.1755   46.1097  127.1827 C   0  0  0  0  0  0  0  0  0  0  0  0
   -0.2382   44.7632  126.5525 C   0  0  0  0  0  0  0  0  0  0  0  0
   -0.9858   43.7404  127.4019 C   0  0  0  0  0  0  0  0  0  0  0  0
   -0.5432   43.6580  128.8098 C   0  0  0  0  0  0  0  0  0  0  0  0
   -0.8105   44.7120  125.2542 N   0  0  0  0  0  0  0  0  0  0  0  0
   -1.5096   43.5216  124.8905 C   0  0  0  0  0  0  0  0  0  0  0  0
   -1.1384   43.8169  123.4512 C   0  0  0  0  0  0  0  0  0  0  0  0
   -0.0141   44.6314  124.0881 C   0  0  0  0  0  0  0  0  0  0  0  0
   10.1343   49.1535  133.5597 C   0  0  0  0  0  0  0  0  0  0  0  0
   11.2935   49.1631  134.5259 C   0  0  0  0  0  0  0  0  0  0  0  0
   11.6124   48.0372  135.2102 C   0  0  0  0  0  0  0  0  0  0  0  0
   12.6779   48.0738  136.1445 C   0  0  0  0  0  0  0  0  0  0  0  0
   13.3783   49.2626  136.3454 C   0  0  0  0  0  0  0  0  0  0  0  0
   12.9576   50.3694  135.5811 C   0  0  0  0  0  0  0  0  0  0  0  0
   11.9646   50.3459  134.7011 C   0  0  0  0  0  0  0  0  0  0  0  0
 18 19  2  0  0  0
 19 17  1  0  0  0
 17  1  1  0  0  0
  1  2  1  0  0  0
  2  3  1  0  0  0
  3  4  2  0  0  0
  3  5  1  0  0  0
  5  6  1  0  0  0
  6 20  1  0  0  0
 20 21  1  0  0  0
 21 22  2  0  0  0
 22 23  1  0  0  0
 23 24  2  0  0  0
 24 25  1  0  0  0
 24 26  1  0  0  0
 26 27  2  0  0  0
  6  7  1  0  0  0
  7  8  2  0  0  0
  7  9  1  0  0  0
  9 29  1  0  0  0
 29 30  1  0  0  0
 30 31  2  0  0  0
 31 32  1  0  0  0
 32 33  2  0  0  0
 33 34  1  0  0  0
 34 35  1  0  0  0
 35 40  1  0  0  0
 40 41  2  0  0  0
 40 42  1  0  0  0
 42 44  1  0  0  0
 44 45  2  0  0  0
 45 46  1  0  0  0
 46 47  2  0  0  0
 47 50  1  0  0  0
 50 51  1  0  0  0
 51 52  1  0  0  0
 52 53  1  0  0  0
 53 56  1  0  0  0
 56 57  1  0  0  0
 57 58  1  0  0  0
 58 59  1  0  0  0
 53 54  1  0  0  0
 54 55  1  0  0  0
 47 48  1  0  0  0
 48 49  2  0  0  0
 35 36  2  0  0  0
 36 37  1  0  0  0
 37 38  1  0  0  0
 37 39  1  0  0  0
  9 10  1  0  0  0
 10 11  1  0  0  0
 11 12  1  0  0  0
 12 13  1  0  0  0
 13 14  2  0  0  0
 13 15  1  0  0  0
 15 60  1  0  0  0
 60 61  1  0  0  0
 61 62  2  0  0  0
 62 63  1  0  0  0
 63 64  2  0  0  0
 64 65  1  0  0  0
 65 66  2  0  0  0
 12  1  1  0  0  0
 66 61  1  0  0  0
 11  5  1  0  0  0
 27 21  1  0  0  0
 39 30  1  0  0  0
 39 34  2  0  0  0
 49 44  1  0  0  0
 55 50  1  0  0  0
 59 56  1  0  0  0
 25 28  1  0  0  0
 42 43  1  0  0  0
 15 16  1  0  0  0
M  END
> <minimizedAffinity>
85.22872

> <CNNscore>
0.2669185400

> <CNNaffinity>
7.8703217506

> <CNN_VS>
2.1007347107

> <CNNaffinity_variance>
1.2079453468

$$$$
[H]c1nc(Oc2c([H])c([H])c(C(=O)N([H])C([H])([H])C([H])([H])N3C([H])([H])C([H])([H])C([H])([H])C3([H])[H])c([H])c2[H])c(N([H])S(=O)(=O)c2c([H])c([H])c(Cl)c(Cl)c2[H])c([H])c1Cl


 38 41  0  0  0  0  0  0  0  0999 V2000
    8.6832   46.7653  132.1020 C   0  0  0  0  0  0  0  0  0  0  0  0
    9.3040   47.7482  132.7791 N   0  0  0  0  0  0  0  0  0  0  0  0
    9.5922   47.6296  134.0784 C   0  0  0  0  0  0  0  0  0  0  0  0
    9.2478   46.4847  134.7279 C   0  0  0  0  0  0  0  0  0  0  0  0
    9.6306   46.3390  136.4346 Cl  0  0  0  0  0  0  0  0  0  0  0  0
    8.6001   45.4467  134.0410 C   0  0  0  0  0  0  0  0  0  0  0  0
    8.3119   45.5884  132.7058 C   0  0  0  0  0  0  0  0  0  0  0  0
    7.6840   44.5905  131.9254 N   0  0  0  0  0  0  0  0  0  0  0  0
    6.6464   44.6478  131.7045 H   0  0  0  0  0  0  0  0  0  0  0  0
    8.6015   43.2718  131.3261 S   0  0  0  0  0  0  0  0  0  0  0  0
    8.8453   42.2957  132.4699 O   0  0  0  0  0  0  0  0  0  0  0  0
    7.7529   42.5759  130.2645 O   0  0  0  0  0  0  0  0  0  0  0  0
   10.1185   43.6884  130.6217 C   0  0  0  0  0  0  0  0  0  0  0  0
   10.3765   43.4391  129.2694 C   0  0  0  0  0  0  0  0  0  0  0  0
   11.5950   43.7852  128.7603 C   0  0  0  0  0  0  0  0  0  0  0  0
   12.5626   44.3717  129.5587 C   0  0  0  0  0  0  0  0  0  0  0  0
   14.1153   44.8067  128.8933 Cl  0  0  0  0  0  0  0  0  0  0  0  0
   12.3107   44.6207  130.9015 C   0  0  0  0  0  0  0  0  0  0  0  0
   13.5568   45.3610  131.8712 Cl  0  0  0  0  0  0  0  0  0  0  0  0
   11.0717   44.2696  131.4214 C   0  0  0  0  0  0  0  0  0  0  0  0
    8.4166   46.9659  130.7436 O   0  0  0  0  0  0  0  0  0  0  0  0
    7.3482   50.7261  129.2194 C   0  0  0  0  0  0  0  0  0  0  0  0
    7.9106   50.6034  130.4988 C   0  0  0  0  0  0  0  0  0  0  0  0
    8.2587   49.3585  130.9921 C   0  0  0  0  0  0  0  0  0  0  0  0
    8.0689   48.2133  130.2561 C   0  0  0  0  0  0  0  0  0  0  0  0
    7.5166   48.3600  129.0076 C   0  0  0  0  0  0  0  0  0  0  0  0
    7.1595   49.5937  128.4908 C   0  0  0  0  0  0  0  0  0  0  0  0
    6.3882   52.8740  129.4808 O   0  0  0  0  0  0  0  0  0  0  0  0
    7.0017   52.0455  128.7140 C   0  0  0  0  0  0  0  0  0  0  0  0
    7.3093   52.4694  127.4056 N   0  0  0  0  0  0  0  0  0  0  0  0
    7.8090   51.7745  126.7981 H   0  0  0  0  0  0  0  0  0  0  0  0
    7.0046   53.7468  126.8266 C   0  0  0  0  0  0  0  0  0  0  0  0
    8.1502   54.1894  125.9584 C   0  0  0  0  0  0  0  0  0  0  0  0
    7.6788   55.0585  124.9192 N   0  0  0  0  0  0  0  0  0  0  0  0
    7.1687   54.4152  123.7572 C   0  0  0  0  0  0  0  0  0  0  0  0
    8.1964   54.5941  122.6520 C   0  0  0  0  0  0  0  0  0  0  0  0
    8.8957   55.8587  123.0619 C   0  0  0  0  0  0  0  0  0  0  0  0
    8.5928   56.0811  124.5206 C   0  0  0  0  0  0  0  0  0  0  0  0
 28 29  2  0  0  0
 29 30  1  0  0  0
 30 32  1  0  0  0
 32 33  1  0  0  0
 33 34  1  0  0  0
 34 35  1  0  0  0
 35 36  1  0  0  0
 36 37  1  0  0  0
 37 38  1  0  0  0
 29 22  1  0  0  0
 22 23  2  0  0  0
 23 24  1  0  0  0
 24 25  2  0  0  0
 25 21  1  0  0  0
 21  1  1  0  0  0
  1  2  2  0  0  0
  2  3  1  0  0  0
  3  4  2  0  0  0
  4  5  1  0  0  0
  4  6  1  0  0  0
  6  7  2  0  0  0
  7  8  1  0  0  0
  8 10  1  0  0  0
 10 11  2  0  0  0
 10 12  2  0  0  0
 10 13  1  0  0  0
 13 14  2  0  0  0
 14 15  1  0  0  0
 15 16  2  0  0  0
 16 17  1  0  0  0
 16 18  1  0  0  0
 18 19  1  0  0  0
 18 20  2  0  0  0
 25 26  1  0  0  0
 26 27  2  0  0  0
 38 34  1  0  0  0
 27 22  1  0  0  0
  7  1  1  0  0  0
 20 13  1  0  0  0
 30 31  1  0  0  0
  8  9  1  0  0  0
M  END
> <minimizedAffinity>
-4.01081

> <CNNscore>
0.4538036883

> <CNNaffinity>
7.8534727097

> <CNN_VS>
3.5639348030

> <CNNaffinity_variance>
0.3949463964

$$$$
[H]c1nc(Oc2c([H])c([H])c(C(=O)N([H])C([H])([H])C([H])([H])N3C([H])([H])C([H])([H])C([H])([H])C3([H])[H])c([H])c2[H])c(N([H])S(=O)(=O)c2c([H])c([H])c(Cl)c(Cl)c2[H])c([H])c1Cl


 38 41  0  0  0  0  0  0  0  0999 V2000
    9.9068   44.9449  129.3644 C   0  0  0  0  0  0  0  0  0  0  0  0
   10.7570   45.6887  128.6339 N   0  0  0  0  0  0  0  0  0  0  0  0
   12.0618   45.4071  128.5761 C   0  0  0  0  0  0  0  0  0  0  0  0
   12.5373   44.3406  129.2745 C   0  0  0  0  0  0  0  0  0  0  0  0
   14.2530   43.9795  129.1921 Cl  0  0  0  0  0  0  0  0  0  0  0  0
   11.6683   43.5511  130.0426 C   0  0  0  0  0  0  0  0  0  0  0  0
   10.3305   43.8575  130.0897 C   0  0  0  0  0  0  0  0  0  0  0  0
    9.3759   43.1085  130.8154 N   0  0  0  0  0  0  0  0  0  0  0  0
    8.6954   42.4655  130.3133 H   0  0  0  0  0  0  0  0  0  0  0  0
    9.3110   43.2349  132.5242 S   0  0  0  0  0  0  0  0  0  0  0  0
    7.8697   43.0203  132.9683 O   0  0  0  0  0  0  0  0  0  0  0  0
   10.1690   42.1076  133.0939 O   0  0  0  0  0  0  0  0  0  0  0  0
    9.8739   44.7282  133.1752 C   0  0  0  0  0  0  0  0  0  0  0  0
   11.0353   44.7815  133.9536 C   0  0  0  0  0  0  0  0  0  0  0  0
   11.4375   45.9886  134.4485 C   0  0  0  0  0  0  0  0  0  0  0  0
   10.7168   47.1427  134.1905 C   0  0  0  0  0  0  0  0  0  0  0  0
   11.2431   48.6773  134.8314 Cl  0  0  0  0  0  0  0  0  0  0  0  0
    9.5634   47.0942  133.4185 C   0  0  0  0  0  0  0  0  0  0  0  0
    8.6859   48.5709  133.1178 Cl  0  0  0  0  0  0  0  0  0  0  0  0
    9.1526   45.8673  132.9139 C   0  0  0  0  0  0  0  0  0  0  0  0
    8.5550   45.3045  129.3734 O   0  0  0  0  0  0  0  0  0  0  0  0
    7.3228   49.3147  129.3172 C   0  0  0  0  0  0  0  0  0  0  0  0
    8.6449   48.9743  129.6404 C   0  0  0  0  0  0  0  0  0  0  0  0
    9.0406   47.6487  129.6566 C   0  0  0  0  0  0  0  0  0  0  0  0
    8.1646   46.6318  129.3604 C   0  0  0  0  0  0  0  0  0  0  0  0
    6.8767   46.9909  129.0479 C   0  0  0  0  0  0  0  0  0  0  0  0
    6.4554   48.3095  129.0246 C   0  0  0  0  0  0  0  0  0  0  0  0
    6.2862   51.2080  130.2892 O   0  0  0  0  0  0  0  0  0  0  0  0
    6.9305   50.7153  129.2927 C   0  0  0  0  0  0  0  0  0  0  0  0
    7.2255   51.5745  128.2151 N   0  0  0  0  0  0  0  0  0  0  0  0
    7.7510   51.1484  127.4126 H   0  0  0  0  0  0  0  0  0  0  0  0
    6.8768   52.9625  128.1076 C   0  0  0  0  0  0  0  0  0  0  0  0
    7.2449   53.4670  126.7394 C   0  0  0  0  0  0  0  0  0  0  0  0
    7.1989   54.9004  126.7097 N   0  0  0  0  0  0  0  0  0  0  0  0
    6.0992   55.4706  126.0098 C   0  0  0  0  0  0  0  0  0  0  0  0
    6.6354   56.0324  124.7035 C   0  0  0  0  0  0  0  0  0  0  0  0
    8.0694   56.3252  125.0416 C   0  0  0  0  0  0  0  0  0  0  0  0
    8.4030   55.5386  126.2821 C   0  0  0  0  0  0  0  0  0  0  0  0
 28 29  2  0  0  0
 29 30  1  0  0  0
 30 32  1  0  0  0
 32 33  1  0  0  0
 33 34  1  0  0  0
 34 35  1  0  0  0
 35 36  1  0  0  0
 36 37  1  0  0  0
 37 38  1  0  0  0
 29 22  1  0  0  0
 22 23  2  0  0  0
 23 24  1  0  0  0
 24 25  2  0  0  0
 25 21  1  0  0  0
 21  1  1  0  0  0
  1  2  2  0  0  0
  2  3  1  0  0  0
  3  4  2  0  0  0
  4  5  1  0  0  0
  4  6  1  0  0  0
  6  7  2  0  0  0
  7  8  1  0  0  0
  8 10  1  0  0  0
 10 11  2  0  0  0
 10 12  2  0  0  0
 10 13  1  0  0  0
 13 14  2  0  0  0
 14 15  1  0  0  0
 15 16  2  0  0  0
 16 17  1  0  0  0
 16 18  1  0  0  0
 18 19  1  0  0  0
 18 20  2  0  0  0
 25 26  1  0  0  0
 26 27  2  0  0  0
 38 34  1  0  0  0
 27 22  1  0  0  0
  7  1  1  0  0  0
 20 13  1  0  0  0
 30 31  1  0  0  0
  8  9  1  0  0  0
M  END
> <minimizedAffinity>
-4.70778

> <CNNscore>
0.4400876164

> <CNNaffinity>
7.9447507858

> <CNN_VS>
3.4963865280

> <CNNaffinity_variance>
0.4034373164

$$$$
[H]c1nc(Oc2c([H])c([H])c(C(=O)N([H])C([H])([H])C([H])([H])N3C([H])([H])C([H])([H])C([H])([H])C3([H])[H])c([H])c2[H])c(N([H])S(=O)(=O)c2c([H])c([H])c(Cl)c(Cl)c2[H])c([H])c1Cl


 38 41  0  0  0  0  0  0  0  0999 V2000
    8.9072   44.6539  130.8479 C   0  0  0  0  0  0  0  0  0  0  0  0
    8.0038   43.7369  130.4569 N   0  0  0  0  0  0  0  0  0  0  0  0
    7.5135   42.8300  131.3068 C   0  0  0  0  0  0  0  0  0  0  0  0
    7.9412   42.8385  132.5984 C   0  0  0  0  0  0  0  0  0  0  0  0
    7.2913   41.6427  133.7068 Cl  0  0  0  0  0  0  0  0  0  0  0  0
    8.8827   43.7861  133.0278 C   0  0  0  0  0  0  0  0  0  0  0  0
    9.3751   44.7095  132.1386 C   0  0  0  0  0  0  0  0  0  0  0  0
   10.3067   45.7157  132.4829 N   0  0  0  0  0  0  0  0  0  0  0  0
    9.9791   46.6457  132.8785 H   0  0  0  0  0  0  0  0  0  0  0  0
   11.9843   45.4380  132.2623 S   0  0  0  0  0  0  0  0  0  0  0  0
   12.7293   46.7342  132.5547 O   0  0  0  0  0  0  0  0  0  0  0  0
   12.4081   44.3904  133.2892 O   0  0  0  0  0  0  0  0  0  0  0  0
   12.4397   44.8793  130.6966 C   0  0  0  0  0  0  0  0  0  0  0  0
   11.5082   44.8212  129.6544 C   0  0  0  0  0  0  0  0  0  0  0  0
   11.9184   44.3683  128.4336 C   0  0  0  0  0  0  0  0  0  0  0  0
   13.2283   43.9722  128.2216 C   0  0  0  0  0  0  0  0  0  0  0  0
   13.7364   43.3944  126.6561 Cl  0  0  0  0  0  0  0  0  0  0  0  0
   14.1561   44.0281  129.2534 C   0  0  0  0  0  0  0  0  0  0  0  0
   15.7953   43.5198  128.9436 Cl  0  0  0  0  0  0  0  0  0  0  0  0
   13.7409   44.4887  130.4960 C   0  0  0  0  0  0  0  0  0  0  0  0
    9.3721   45.5696  129.8982 O   0  0  0  0  0  0  0  0  0  0  0  0
    7.6467   49.3721  129.4893 C   0  0  0  0  0  0  0  0  0  0  0  0
    6.9296   48.2172  129.1423 C   0  0  0  0  0  0  0  0  0  0  0  0
    7.5083   46.9682  129.2804 C   0  0  0  0  0  0  0  0  0  0  0  0
    8.7888   46.8162  129.7564 C   0  0  0  0  0  0  0  0  0  0  0  0
    9.4694   47.9615  130.0885 C   0  0  0  0  0  0  0  0  0  0  0  0
    8.9135   49.2229  129.9597 C   0  0  0  0  0  0  0  0  0  0  0  0
    6.2356   51.1018  130.2773 O   0  0  0  0  0  0  0  0  0  0  0  0
    7.0151   50.6751  129.3493 C   0  0  0  0  0  0  0  0  0  0  0  0
    7.2171   51.5077  128.2302 N   0  0  0  0  0  0  0  0  0  0  0  0
    7.8565   51.1365  127.4852 H   0  0  0  0  0  0  0  0  0  0  0  0
    6.6355   52.8012  128.0104 C   0  0  0  0  0  0  0  0  0  0  0  0
    7.7066   53.7659  127.5817 C   0  0  0  0  0  0  0  0  0  0  0  0
    7.1900   54.6790  126.6035 N   0  0  0  0  0  0  0  0  0  0  0  0
    6.9451   54.1316  125.3132 C   0  0  0  0  0  0  0  0  0  0  0  0
    8.0318   54.6512  124.3866 C   0  0  0  0  0  0  0  0  0  0  0  0
    8.4213   55.9469  125.0391 C   0  0  0  0  0  0  0  0  0  0  0  0
    7.9240   55.8959  126.4601 C   0  0  0  0  0  0  0  0  0  0  0  0
 28 29  2  0  0  0
 29 30  1  0  0  0
 30 32  1  0  0  0
 32 33  1  0  0  0
 33 34  1  0  0  0
 34 35  1  0  0  0
 35 36  1  0  0  0
 36 37  1  0  0  0
 37 38  1  0  0  0
 29 22  1  0  0  0
 22 23  2  0  0  0
 23 24  1  0  0  0
 24 25  2  0  0  0
 25 21  1  0  0  0
 21  1  1  0  0  0
  1  2  2  0  0  0
  2  3  1  0  0  0
  3  4  2  0  0  0
  4  5  1  0  0  0
  4  6  1  0  0  0
  6  7  2  0  0  0
  7  8  1  0  0  0
  8 10  1  0  0  0
 10 11  2  0  0  0
 10 12  2  0  0  0
 10 13  1  0  0  0
 13 14  2  0  0  0
 14 15  1  0  0  0
 15 16  2  0  0  0
 16 17  1  0  0  0
 16 18  1  0  0  0
 18 19  1  0  0  0
 18 20  2  0  0  0
 25 26  1  0  0  0
 26 27  2  0  0  0
 38 34  1  0  0  0
 27 22  1  0  0  0
  7  1  1  0  0  0
 20 13  1  0  0  0
 30 31  1  0  0  0
  8  9  1  0  0  0
M  END
> <minimizedAffinity>
4.83529

> <CNNscore>
0.4205958843

> <CNNaffinity>
7.5420799255

> <CNN_VS>
3.1721677780

> <CNNaffinity_variance>
0.3978027999

$$$$
[H]c1nc(Oc2c([H])c([H])c(C(=O)N([H])C([H])([H])C([H])([H])N3C([H])([H])C([H])([H])C([H])([H])C3([H])[H])c([H])c2[H])c(N([H])S(=O)(=O)c2c([H])c([H])c(Cl)c(Cl)c2[H])c([H])c1Cl


 38 41  0  0  0  0  0  0  0  0999 V2000
    9.7637   45.0259  129.9341 C   0  0  0  0  0  0  0  0  0  0  0  0
    8.4645   44.8416  129.6378 N   0  0  0  0  0  0  0  0  0  0  0  0
    7.8445   43.6864  129.8953 C   0  0  0  0  0  0  0  0  0  0  0  0
    8.5486   42.6748  130.4717 C   0  0  0  0  0  0  0  0  0  0  0  0
    7.7250   41.1612  130.8054 Cl  0  0  0  0  0  0  0  0  0  0  0  0
    9.9046   42.8454  130.7893 C   0  0  0  0  0  0  0  0  0  0  0  0
   10.5239   44.0403  130.5160 C   0  0  0  0  0  0  0  0  0  0  0  0
   11.8772   44.3138  130.8204 N   0  0  0  0  0  0  0  0  0  0  0  0
   12.6306   44.2156  130.0778 H   0  0  0  0  0  0  0  0  0  0  0  0
   12.3133   44.8096  132.4028 S   0  0  0  0  0  0  0  0  0  0  0  0
   12.6816   43.5719  133.2108 O   0  0  0  0  0  0  0  0  0  0  0  0
   13.5517   45.6936  132.2744 O   0  0  0  0  0  0  0  0  0  0  0  0
   11.1041   45.6898  133.2594 C   0  0  0  0  0  0  0  0  0  0  0  0
   10.2720   45.0532  134.1867 C   0  0  0  0  0  0  0  0  0  0  0  0
    9.3277   45.7943  134.8368 C   0  0  0  0  0  0  0  0  0  0  0  0
    9.1887   47.1499  134.5899 C   0  0  0  0  0  0  0  0  0  0  0  0
    7.9761   48.0828  135.4279 Cl  0  0  0  0  0  0  0  0  0  0  0  0
   10.0124   47.7857  133.6702 C   0  0  0  0  0  0  0  0  0  0  0  0
    9.8037   49.4942  133.3895 Cl  0  0  0  0  0  0  0  0  0  0  0  0
   10.9738   47.0336  133.0079 C   0  0  0  0  0  0  0  0  0  0  0  0
   10.3403   46.2644  129.6336 O   0  0  0  0  0  0  0  0  0  0  0  0
    8.0277   49.7459  129.2669 C   0  0  0  0  0  0  0  0  0  0  0  0
    7.6356   48.5541  128.6391 C   0  0  0  0  0  0  0  0  0  0  0  0
    8.4059   47.4119  128.7659 C   0  0  0  0  0  0  0  0  0  0  0  0
    9.5667   47.4040  129.5018 C   0  0  0  0  0  0  0  0  0  0  0  0
    9.9289   48.5827  130.1059 C   0  0  0  0  0  0  0  0  0  0  0  0
    9.1761   49.7393  129.9946 C   0  0  0  0  0  0  0  0  0  0  0  0
    6.2730   51.1574  129.9965 O   0  0  0  0  0  0  0  0  0  0  0  0
    7.1965   50.9322  129.1321 C   0  0  0  0  0  0  0  0  0  0  0  0
    7.3543   51.8629  128.0856 N   0  0  0  0  0  0  0  0  0  0  0  0
    8.1140   51.6561  127.3915 H   0  0  0  0  0  0  0  0  0  0  0  0
    6.5810   53.0537  127.8762 C   0  0  0  0  0  0  0  0  0  0  0  0
    7.4618   54.1281  127.3001 C   0  0  0  0  0  0  0  0  0  0  0  0
    7.0665   54.4253  125.9536 N   0  0  0  0  0  0  0  0  0  0  0  0
    7.9424   53.9597  124.9337 C   0  0  0  0  0  0  0  0  0  0  0  0
    8.6742   55.1699  124.3773 C   0  0  0  0  0  0  0  0  0  0  0  0
    7.7082   56.2868  124.6523 C   0  0  0  0  0  0  0  0  0  0  0  0
    6.7467   55.7944  125.7020 C   0  0  0  0  0  0  0  0  0  0  0  0
 28 29  2  0  0  0
 29 30  1  0  0  0
 30 32  1  0  0  0
 32 33  1  0  0  0
 33 34  1  0  0  0
 34 35  1  0  0  0
 35 36  1  0  0  0
 36 37  1  0  0  0
 37 38  1  0  0  0
 29 22  1  0  0  0
 22 23  2  0  0  0
 23 24  1  0  0  0
 24 25  2  0  0  0
 25 21  1  0  0  0
 21  1  1  0  0  0
  1  2  2  0  0  0
  2  3  1  0  0  0
  3  4  2  0  0  0
  4  5  1  0  0  0
  4  6  1  0  0  0
  6  7  2  0  0  0
  7  8  1  0  0  0
  8 10  1  0  0  0
 10 11  2  0  0  0
 10 12  2  0  0  0
 10 13  1  0  0  0
 13 14  2  0  0  0
 14 15  1  0  0  0
 15 16  2  0  0  0
 16 17  1  0  0  0
 16 18  1  0  0  0
 18 19  1  0  0  0
 18 20  2  0  0  0
 25 26  1  0  0  0
 26 27  2  0  0  0
 38 34  1  0  0  0
 27 22  1  0  0  0
  7  1  1  0  0  0
 20 13  1  0  0  0
 30 31  1  0  0  0
  8  9  1  0  0  0
M  END
> <minimizedAffinity>
-2.95785

> <CNNscore>
0.4134727120

> <CNNaffinity>
7.8021264076

> <CNN_VS>
3.2259664536

> <CNNaffinity_variance>
0.3287554383

$$$$
[H]c1nc(Oc2c([H])c([H])c(C(=O)N([H])C([H])([H])C([H])([H])N3C([H])([H])C([H])([H])C([H])([H])C3([H])[H])c([H])c2[H])c(N([H])S(=O)(=O)c2c([H])c([H])c(Cl)c(Cl)c2[H])c([H])c1Cl


 38 41  0  0  0  0  0  0  0  0999 V2000
    9.7907   45.6293  129.7603 C   0  0  0  0  0  0  0  0  0  0  0  0
    8.6876   45.2149  129.1113 N   0  0  0  0  0  0  0  0  0  0  0  0
    8.7098   44.1540  128.2993 C   0  0  0  0  0  0  0  0  0  0  0  0
    9.8790   43.4795  128.1283 C   0  0  0  0  0  0  0  0  0  0  0  0
    9.8976   42.0875  127.0593 Cl  0  0  0  0  0  0  0  0  0  0  0  0
   11.0415   43.8942  128.7957 C   0  0  0  0  0  0  0  0  0  0  0  0
   10.9981   44.9875  129.6254 C   0  0  0  0  0  0  0  0  0  0  0  0
   12.1095   45.4657  130.3569 N   0  0  0  0  0  0  0  0  0  0  0  0
   12.8861   46.0051  129.8726 H   0  0  0  0  0  0  0  0  0  0  0  0
   12.2107   45.1753  132.0438 S   0  0  0  0  0  0  0  0  0  0  0  0
   12.8407   43.8053  132.2595 O   0  0  0  0  0  0  0  0  0  0  0  0
   13.1392   46.2362  132.6304 O   0  0  0  0  0  0  0  0  0  0  0  0
   10.7122   45.2351  132.8936 C   0  0  0  0  0  0  0  0  0  0  0  0
   10.3413   46.3725  133.6189 C   0  0  0  0  0  0  0  0  0  0  0  0
    9.1453   46.3686  134.2772 C   0  0  0  0  0  0  0  0  0  0  0  0
    8.3093   45.2654  134.2337 C   0  0  0  0  0  0  0  0  0  0  0  0
    6.7849   45.2755  135.0815 Cl  0  0  0  0  0  0  0  0  0  0  0  0
    8.6738   44.1343  133.5151 C   0  0  0  0  0  0  0  0  0  0  0  0
    7.5916   42.7670  133.4865 Cl  0  0  0  0  0  0  0  0  0  0  0  0
    9.8899   44.1363  132.8445 C   0  0  0  0  0  0  0  0  0  0  0  0
    9.6858   46.7484  130.5928 O   0  0  0  0  0  0  0  0  0  0  0  0
    7.7329   50.2544  129.3689 C   0  0  0  0  0  0  0  0  0  0  0  0
    7.5820   49.0598  128.6488 C   0  0  0  0  0  0  0  0  0  0  0  0
    8.2310   47.9095  129.0608 C   0  0  0  0  0  0  0  0  0  0  0  0
    9.0355   47.8962  130.1752 C   0  0  0  0  0  0  0  0  0  0  0  0
    9.1672   49.0777  130.8620 C   0  0  0  0  0  0  0  0  0  0  0  0
    8.5290   50.2424  130.4710 C   0  0  0  0  0  0  0  0  0  0  0  0
    6.0429   51.8932  129.6175 O   0  0  0  0  0  0  0  0  0  0  0  0
    7.0311   51.4495  128.9266 C   0  0  0  0  0  0  0  0  0  0  0  0
    7.3847   52.1578  127.7606 N   0  0  0  0  0  0  0  0  0  0  0  0
    8.1939   51.7749  127.2126 H   0  0  0  0  0  0  0  0  0  0  0  0
    6.7488   53.3395  127.2519 C   0  0  0  0  0  0  0  0  0  0  0  0
    7.7645   54.4419  127.1294 C   0  0  0  0  0  0  0  0  0  0  0  0
    7.5230   55.2101  125.9424 N   0  0  0  0  0  0  0  0  0  0  0  0
    6.3508   56.0164  125.9540 C   0  0  0  0  0  0  0  0  0  0  0  0
    5.3344   55.3519  125.0403 C   0  0  0  0  0  0  0  0  0  0  0  0
    6.2078   54.5933  124.0821 C   0  0  0  0  0  0  0  0  0  0  0  0
    7.5667   54.4715  124.7207 C   0  0  0  0  0  0  0  0  0  0  0  0
 28 29  2  0  0  0
 29 30  1  0  0  0
 30 32  1  0  0  0
 32 33  1  0  0  0
 33 34  1  0  0  0
 34 35  1  0  0  0
 35 36  1  0  0  0
 36 37  1  0  0  0
 37 38  1  0  0  0
 29 22  1  0  0  0
 22 23  2  0  0  0
 23 24  1  0  0  0
 24 25  2  0  0  0
 25 21  1  0  0  0
 21  1  1  0  0  0
  1  2  2  0  0  0
  2  3  1  0  0  0
  3  4  2  0  0  0
  4  5  1  0  0  0
  4  6  1  0  0  0
  6  7  2  0  0  0
  7  8  1  0  0  0
  8 10  1  0  0  0
 10 11  2  0  0  0
 10 12  2  0  0  0
 10 13  1  0  0  0
 13 14  2  0  0  0
 14 15  1  0  0  0
 15 16  2  0  0  0
 16 17  1  0  0  0
 16 18  1  0  0  0
 18 19  1  0  0  0
 18 20  2  0  0  0
 25 26  1  0  0  0
 26 27  2  0  0  0
 38 34  1  0  0  0
 27 22  1  0  0  0
  7  1  1  0  0  0
 20 13  1  0  0  0
 30 31  1  0  0  0
  8  9  1  0  0  0
M  END
> <minimizedAffinity>
-0.83631

> <CNNscore>
0.3767487705

> <CNNaffinity>
7.6748209000

> <CNN_VS>
2.8914792538

> <CNNaffinity_variance>
0.3908387721

$$$$
[H]c1nc(Oc2c([H])c([H])c(C(=O)N([H])C([H])([H])C([H])([H])N3C([H])([H])C([H])([H])C([H])([H])C3([H])[H])c([H])c2[H])c(N([H])S(=O)(=O)c2c([H])c([H])c(Cl)c(Cl)c2[H])c([H])c1Cl


 38 41  0  0  0  0  0  0  0  0999 V2000
    8.6440   46.7892  132.2178 C   0  0  0  0  0  0  0  0  0  0  0  0
    9.2454   47.8076  132.8588 N   0  0  0  0  0  0  0  0  0  0  0  0
    9.5802   47.7225  134.1495 C   0  0  0  0  0  0  0  0  0  0  0  0
    9.3044   46.5756  134.8276 C   0  0  0  0  0  0  0  0  0  0  0  0
    9.7479   46.4741  136.5228 Cl  0  0  0  0  0  0  0  0  0  0  0  0
    8.6779   45.5009  134.1786 C   0  0  0  0  0  0  0  0  0  0  0  0
    8.3410   45.6084  132.8516 C   0  0  0  0  0  0  0  0  0  0  0  0
    7.7297   44.5730  132.1078 N   0  0  0  0  0  0  0  0  0  0  0  0
    6.7060   44.6359  131.8307 H   0  0  0  0  0  0  0  0  0  0  0  0
    8.6449   43.1989  131.6450 S   0  0  0  0  0  0  0  0  0  0  0  0
    8.7635   42.2720  132.8480 O   0  0  0  0  0  0  0  0  0  0  0  0
    7.8588   42.4794  130.5514 O   0  0  0  0  0  0  0  0  0  0  0  0
   10.2263   43.5335  131.0465 C   0  0  0  0  0  0  0  0  0  0  0  0
   11.3630   43.1960  131.7892 C   0  0  0  0  0  0  0  0  0  0  0  0
   12.5930   43.4849  131.2722 C   0  0  0  0  0  0  0  0  0  0  0  0
   12.7230   44.0998  130.0382 C   0  0  0  0  0  0  0  0  0  0  0  0
   14.3019   44.4637  129.3921 Cl  0  0  0  0  0  0  0  0  0  0  0  0
   11.5974   44.4366  129.2979 C   0  0  0  0  0  0  0  0  0  0  0  0
   11.8059   45.2095  127.7486 Cl  0  0  0  0  0  0  0  0  0  0  0  0
   10.3451   44.1433  129.8218 C   0  0  0  0  0  0  0  0  0  0  0  0
    8.3254   46.9560  130.8660 O   0  0  0  0  0  0  0  0  0  0  0  0
    7.3193   50.7010  129.2639 C   0  0  0  0  0  0  0  0  0  0  0  0
    7.7203   50.5770  130.6027 C   0  0  0  0  0  0  0  0  0  0  0  0
    8.0492   49.3372  131.1211 C   0  0  0  0  0  0  0  0  0  0  0  0
    7.9960   48.1983  130.3534 C   0  0  0  0  0  0  0  0  0  0  0  0
    7.6004   48.3461  129.0470 C   0  0  0  0  0  0  0  0  0  0  0  0
    7.2658   49.5749  128.5039 C   0  0  0  0  0  0  0  0  0  0  0  0
    6.4045   52.8723  129.4916 O   0  0  0  0  0  0  0  0  0  0  0  0
    6.9907   52.0155  128.7346 C   0  0  0  0  0  0  0  0  0  0  0  0
    7.2870   52.4049  127.4129 N   0  0  0  0  0  0  0  0  0  0  0  0
    7.7644   51.6872  126.8138 H   0  0  0  0  0  0  0  0  0  0  0  0
    6.9984   53.6750  126.8103 C   0  0  0  0  0  0  0  0  0  0  0  0
    8.1695   54.1100  125.9729 C   0  0  0  0  0  0  0  0  0  0  0  0
    7.7312   54.9793  124.9195 N   0  0  0  0  0  0  0  0  0  0  0  0
    7.1206   54.3418  123.8037 C   0  0  0  0  0  0  0  0  0  0  0  0
    8.1131   54.3917  122.6540 C   0  0  0  0  0  0  0  0  0  0  0  0
    8.9339   55.6047  122.9874 C   0  0  0  0  0  0  0  0  0  0  0  0
    8.7117   55.9041  124.4468 C   0  0  0  0  0  0  0  0  0  0  0  0
 28 29  2  0  0  0
 29 30  1  0  0  0
 30 32  1  0  0  0
 32 33  1  0  0  0
 33 34  1  0  0  0
 34 35  1  0  0  0
 35 36  1  0  0  0
 36 37  1  0  0  0
 37 38  1  0  0  0
 29 22  1  0  0  0
 22 23  2  0  0  0
 23 24  1  0  0  0
 24 25  2  0  0  0
 25 21  1  0  0  0
 21  1  1  0  0  0
  1  2  2  0  0  0
  2  3  1  0  0  0
  3  4  2  0  0  0
  4  5  1  0  0  0
  4  6  1  0  0  0
  6  7  2  0  0  0
  7  8  1  0  0  0
  8 10  1  0  0  0
 10 11  2  0  0  0
 10 12  2  0  0  0
 10 13  1  0  0  0
 13 14  2  0  0  0
 14 15  1  0  0  0
 15 16  2  0  0  0
 16 17  1  0  0  0
 16 18  1  0  0  0
 18 19  1  0  0  0
 18 20  2  0  0  0
 25 26  1  0  0  0
 26 27  2  0  0  0
 38 34  1  0  0  0
 27 22  1  0  0  0
  7  1  1  0  0  0
 20 13  1  0  0  0
 30 31  1  0  0  0
  8  9  1  0  0  0
M  END
> <minimizedAffinity>
-4.44333

> <CNNscore>
0.3753437698

> <CNNaffinity>
7.7800455093

> <CNN_VS>
2.9201915264

> <CNNaffinity_variance>
0.3685076833

$$$$
[H]c1nc(Oc2c([H])c([H])c(C(=O)N([H])C([H])([H])C([H])([H])N3C([H])([H])C([H])([H])C([H])([H])C3([H])[H])c([H])c2[H])c(N([H])S(=O)(=O)c2c([H])c([H])c(Cl)c(Cl)c2[H])c([H])c1Cl


 38 41  0  0  0  0  0  0  0  0999 V2000
    9.3316   46.3289  132.6632 C   0  0  0  0  0  0  0  0  0  0  0  0
   10.0337   47.4764  132.6580 N   0  0  0  0  0  0  0  0  0  0  0  0
   11.2249   47.5712  133.2558 C   0  0  0  0  0  0  0  0  0  0  0  0
   11.7362   46.4776  133.8833 C   0  0  0  0  0  0  0  0  0  0  0  0
   13.3015   46.6127  134.6657 Cl  0  0  0  0  0  0  0  0  0  0  0  0
   11.0210   45.2706  133.9007 C   0  0  0  0  0  0  0  0  0  0  0  0
    9.7978   45.1937  133.2811 C   0  0  0  0  0  0  0  0  0  0  0  0
    9.0156   44.0173  133.2254 N   0  0  0  0  0  0  0  0  0  0  0  0
    8.2584   43.8348  133.9480 H   0  0  0  0  0  0  0  0  0  0  0  0
    9.2870   42.8692  131.9811 S   0  0  0  0  0  0  0  0  0  0  0  0
   10.4383   41.9653  132.4028 O   0  0  0  0  0  0  0  0  0  0  0  0
    8.0215   42.0230  131.8628 O   0  0  0  0  0  0  0  0  0  0  0  0
    9.6438   43.5326  130.4307 C   0  0  0  0  0  0  0  0  0  0  0  0
    9.7964   42.7059  129.3123 C   0  0  0  0  0  0  0  0  0  0  0  0
   10.0816   43.2803  128.1071 C   0  0  0  0  0  0  0  0  0  0  0  0
   10.2190   44.6529  127.9843 C   0  0  0  0  0  0  0  0  0  0  0  0
   10.5851   45.3713  126.4375 Cl  0  0  0  0  0  0  0  0  0  0  0  0
   10.0686   45.4769  129.0920 C   0  0  0  0  0  0  0  0  0  0  0  0
   10.2498   47.2000  128.8933 Cl  0  0  0  0  0  0  0  0  0  0  0  0
    9.7782   44.8947  130.3189 C   0  0  0  0  0  0  0  0  0  0  0  0
    8.0922   46.3102  132.0149 O   0  0  0  0  0  0  0  0  0  0  0  0
    6.7781   49.6311  129.8130 C   0  0  0  0  0  0  0  0  0  0  0  0
    6.3785   48.3330  129.4617 C   0  0  0  0  0  0  0  0  0  0  0  0
    6.8182   47.2447  130.1942 C   0  0  0  0  0  0  0  0  0  0  0  0
    7.6506   47.3946  131.2776 C   0  0  0  0  0  0  0  0  0  0  0  0
    8.0276   48.6747  131.6007 C   0  0  0  0  0  0  0  0  0  0  0  0
    7.6019   49.7803  130.8843 C   0  0  0  0  0  0  0  0  0  0  0  0
    5.0357   50.8739  128.8016 O   0  0  0  0  0  0  0  0  0  0  0  0
    6.2937   50.7629  129.0380 C   0  0  0  0  0  0  0  0  0  0  0  0
    7.1464   51.7607  128.5247 N   0  0  0  0  0  0  0  0  0  0  0  0
    8.1696   51.6471  128.7297 H   0  0  0  0  0  0  0  0  0  0  0  0
    6.7556   52.9053  127.7521 C   0  0  0  0  0  0  0  0  0  0  0  0
    7.9554   53.4573  127.0325 C   0  0  0  0  0  0  0  0  0  0  0  0
    7.6626   54.7586  126.5047 N   0  0  0  0  0  0  0  0  0  0  0  0
    6.4134   54.8895  125.8364 C   0  0  0  0  0  0  0  0  0  0  0  0
    6.7031   54.9805  124.3474 C   0  0  0  0  0  0  0  0  0  0  0  0
    8.0939   55.5473  124.3223 C   0  0  0  0  0  0  0  0  0  0  0  0
    8.6875   55.3287  125.6894 C   0  0  0  0  0  0  0  0  0  0  0  0
 28 29  2  0  0  0
 29 30  1  0  0  0
 30 32  1  0  0  0
 32 33  1  0  0  0
 33 34  1  0  0  0
 34 35  1  0  0  0
 35 36  1  0  0  0
 36 37  1  0  0  0
 37 38  1  0  0  0
 29 22  1  0  0  0
 22 23  2  0  0  0
 23 24  1  0  0  0
 24 25  2  0  0  0
 25 21  1  0  0  0
 21  1  1  0  0  0
  1  2  2  0  0  0
  2  3  1  0  0  0
  3  4  2  0  0  0
  4  5  1  0  0  0
  4  6  1  0  0  0
  6  7  2  0  0  0
  7  8  1  0  0  0
  8 10  1  0  0  0
 10 11  2  0  0  0
 10 12  2  0  0  0
 10 13  1  0  0  0
 13 14  2  0  0  0
 14 15  1  0  0  0
 15 16  2  0  0  0
 16 17  1  0  0  0
 16 18  1  0  0  0
 18 19  1  0  0  0
 18 20  2  0  0  0
 25 26  1  0  0  0
 26 27  2  0  0  0
 38 34  1  0  0  0
 27 22  1  0  0  0
  7  1  1  0  0  0
 20 13  1  0  0  0
 30 31  1  0  0  0
  8  9  1  0  0  0
M  END
> <minimizedAffinity>
0.77084

> <CNNscore>
0.3651481867

> <CNNaffinity>
7.6885552406

> <CNN_VS>
2.8074619770

> <CNNaffinity_variance>
0.2258031070

$$$$
[H]c1nc(Oc2c([H])c([H])c(C(=O)N([H])C([H])([H])C([H])([H])N3C([H])([H])C([H])([H])C([H])([H])C3([H])[H])c([H])c2[H])c(N([H])S(=O)(=O)c2c([H])c([H])c(Cl)c(Cl)c2[H])c([H])c1Cl


 38 41  0  0  0  0  0  0  0  0999 V2000
    7.7232   47.1854  131.2475 C   0  0  0  0  0  0  0  0  0  0  0  0
    8.0938   48.1915  132.0599 N   0  0  0  0  0  0  0  0  0  0  0  0
    8.6429   47.9599  133.2558 C   0  0  0  0  0  0  0  0  0  0  0  0
    8.8300   46.6733  133.6569 C   0  0  0  0  0  0  0  0  0  0  0  0
    9.5517   46.3798  135.2297 Cl  0  0  0  0  0  0  0  0  0  0  0  0
    8.4510   45.6086  132.8253 C   0  0  0  0  0  0  0  0  0  0  0  0
    7.8876   45.8676  131.6000 C   0  0  0  0  0  0  0  0  0  0  0  0
    7.4961   44.8634  130.6850 N   0  0  0  0  0  0  0  0  0  0  0  0
    6.5299   44.8789  130.2435 H   0  0  0  0  0  0  0  0  0  0  0  0
    8.5876   43.6047  130.2796 S   0  0  0  0  0  0  0  0  0  0  0  0
    7.8670   42.2723  130.4403 O   0  0  0  0  0  0  0  0  0  0  0  0
    8.9582   43.7838  128.8092 O   0  0  0  0  0  0  0  0  0  0  0  0
   10.0412   43.5626  131.2050 C   0  0  0  0  0  0  0  0  0  0  0  0
   11.2918   43.6587  130.5851 C   0  0  0  0  0  0  0  0  0  0  0  0
   12.4132   43.6173  131.3624 C   0  0  0  0  0  0  0  0  0  0  0  0
   12.3248   43.4829  132.7379 C   0  0  0  0  0  0  0  0  0  0  0  0
   13.7674   43.4301  133.7171 Cl  0  0  0  0  0  0  0  0  0  0  0  0
   11.0854   43.3870  133.3571 C   0  0  0  0  0  0  0  0  0  0  0  0
   11.0190   43.2190  135.0917 Cl  0  0  0  0  0  0  0  0  0  0  0  0
    9.9433   43.4292  132.5683 C   0  0  0  0  0  0  0  0  0  0  0  0
    7.1555   47.5101  130.0109 O   0  0  0  0  0  0  0  0  0  0  0  0
    7.1211   51.4481  128.5636 C   0  0  0  0  0  0  0  0  0  0  0  0
    6.7342   51.1643  129.8820 C   0  0  0  0  0  0  0  0  0  0  0  0
    6.7486   49.8621  130.3490 C   0  0  0  0  0  0  0  0  0  0  0  0
    7.1375   48.8142  129.5489 C   0  0  0  0  0  0  0  0  0  0  0  0
    7.5110   49.1180  128.2631 C   0  0  0  0  0  0  0  0  0  0  0  0
    7.5054   50.4122  127.7713 C   0  0  0  0  0  0  0  0  0  0  0  0
    6.7068   53.7566  128.8840 O   0  0  0  0  0  0  0  0  0  0  0  0
    7.1117   52.8257  128.0964 C   0  0  0  0  0  0  0  0  0  0  0  0
    7.5307   53.1987  126.8035 N   0  0  0  0  0  0  0  0  0  0  0  0
    7.8553   52.4204  126.1784 H   0  0  0  0  0  0  0  0  0  0  0  0
    7.5527   54.5275  126.2616 C   0  0  0  0  0  0  0  0  0  0  0  0
    8.5544   54.5953  125.1418 C   0  0  0  0  0  0  0  0  0  0  0  0
    7.9593   55.1868  123.9783 N   0  0  0  0  0  0  0  0  0  0  0  0
    6.5557   55.4094  124.0455 C   0  0  0  0  0  0  0  0  0  0  0  0
    5.8892   54.3736  123.1554 C   0  0  0  0  0  0  0  0  0  0  0  0
    6.9657   54.0670  122.1536 C   0  0  0  0  0  0  0  0  0  0  0  0
    8.2686   54.5413  122.7423 C   0  0  0  0  0  0  0  0  0  0  0  0
 28 29  2  0  0  0
 29 30  1  0  0  0
 30 32  1  0  0  0
 32 33  1  0  0  0
 33 34  1  0  0  0
 34 35  1  0  0  0
 35 36  1  0  0  0
 36 37  1  0  0  0
 37 38  1  0  0  0
 29 22  1  0  0  0
 22 23  2  0  0  0
 23 24  1  0  0  0
 24 25  2  0  0  0
 25 21  1  0  0  0
 21  1  1  0  0  0
  1  2  2  0  0  0
  2  3  1  0  0  0
  3  4  2  0  0  0
  4  5  1  0  0  0
  4  6  1  0  0  0
  6  7  2  0  0  0
  7  8  1  0  0  0
  8 10  1  0  0  0
 10 11  2  0  0  0
 10 12  2  0  0  0
 10 13  1  0  0  0
 13 14  2  0  0  0
 14 15  1  0  0  0
 15 16  2  0  0  0
 16 17  1  0  0  0
 16 18  1  0  0  0
 18 19  1  0  0  0
 18 20  2  0  0  0
 25 26  1  0  0  0
 26 27  2  0  0  0
 38 34  1  0  0  0
 27 22  1  0  0  0
  7  1  1  0  0  0
 20 13  1  0  0  0
 30 31  1  0  0  0
  8  9  1  0  0  0
M  END
> <minimizedAffinity>
-1.91933

> <CNNscore>
0.3639572859

> <CNNaffinity>
7.5905179977

> <CNN_VS>
2.7626242638

> <CNNaffinity_variance>
0.3062174022

$$$$
[H]c1nc(Oc2c([H])c([H])c(C(=O)N([H])C([H])([H])C([H])([H])N3C([H])([H])C([H])([H])C([H])([H])C3([H])[H])c([H])c2[H])c(N([H])S(=O)(=O)c2c([H])c([H])c(Cl)c(Cl)c2[H])c([H])c1Cl


 38 41  0  0  0  0  0  0  0  0999 V2000
   11.1295   43.6810  130.8250 C   0  0  0  0  0  0  0  0  0  0  0  0
   10.2494   42.7351  130.4502 N   0  0  0  0  0  0  0  0  0  0  0  0
   10.3091   41.4914  130.9350 C   0  0  0  0  0  0  0  0  0  0  0  0
   11.2853   41.1791  131.8297 C   0  0  0  0  0  0  0  0  0  0  0  0
   11.3552   39.5426  132.4603 Cl  0  0  0  0  0  0  0  0  0  0  0  0
   12.2135   42.1503  132.2348 C   0  0  0  0  0  0  0  0  0  0  0  0
   12.1358   43.4228  131.7242 C   0  0  0  0  0  0  0  0  0  0  0  0
   13.0096   44.4726  132.0891 N   0  0  0  0  0  0  0  0  0  0  0  0
   13.9377   44.6043  131.5891 H   0  0  0  0  0  0  0  0  0  0  0  0
   12.5724   45.5480  133.3511 S   0  0  0  0  0  0  0  0  0  0  0  0
   13.3795   45.1878  134.5918 O   0  0  0  0  0  0  0  0  0  0  0  0
   12.9675   46.9537  132.9043 O   0  0  0  0  0  0  0  0  0  0  0  0
   10.8990   45.5594  133.7638 C   0  0  0  0  0  0  0  0  0  0  0  0
   10.3063   46.6911  134.3342 C   0  0  0  0  0  0  0  0  0  0  0  0
    8.9778   46.6483  134.6456 C   0  0  0  0  0  0  0  0  0  0  0  0
    8.2238   45.5118  134.4055 C   0  0  0  0  0  0  0  0  0  0  0  0
    6.5276   45.4725  134.8105 Cl  0  0  0  0  0  0  0  0  0  0  0  0
    8.8082   44.3863  133.8396 C   0  0  0  0  0  0  0  0  0  0  0  0
    7.8226   42.9762  133.5539 Cl  0  0  0  0  0  0  0  0  0  0  0  0
   10.1595   44.4277  133.5218 C   0  0  0  0  0  0  0  0  0  0  0  0
   11.0002   44.9594  130.2723 O   0  0  0  0  0  0  0  0  0  0  0  0
    7.2115   46.6170  129.5644 C   0  0  0  0  0  0  0  0  0  0  0  0
    8.2230   46.6982  128.5957 C   0  0  0  0  0  0  0  0  0  0  0  0
    9.4691   46.1488  128.8396 C   0  0  0  0  0  0  0  0  0  0  0  0
    9.7564   45.5122  130.0234 C   0  0  0  0  0  0  0  0  0  0  0  0
    8.7500   45.4464  130.9551 C   0  0  0  0  0  0  0  0  0  0  0  0
    7.4949   45.9880  130.7360 C   0  0  0  0  0  0  0  0  0  0  0  0
    4.8559   46.6523  129.7965 O   0  0  0  0  0  0  0  0  0  0  0  0
    5.9040   47.1894  129.2828 C   0  0  0  0  0  0  0  0  0  0  0  0
    5.7241   48.3212  128.4625 N   0  0  0  0  0  0  0  0  0  0  0  0
    6.5949   48.7408  128.0534 H   0  0  0  0  0  0  0  0  0  0  0  0
    4.4762   48.9482  128.1318 C   0  0  0  0  0  0  0  0  0  0  0  0
    4.2403   50.1122  129.0544 C   0  0  0  0  0  0  0  0  0  0  0  0
    5.2316   50.1332  130.0910 N   0  0  0  0  0  0  0  0  0  0  0  0
    5.5509   51.4159  130.6172 C   0  0  0  0  0  0  0  0  0  0  0  0
    6.9239   51.7944  130.0871 C   0  0  0  0  0  0  0  0  0  0  0  0
    7.5564   50.4545  129.8408 C   0  0  0  0  0  0  0  0  0  0  0  0
    6.4434   49.4408  129.7875 C   0  0  0  0  0  0  0  0  0  0  0  0
 28 29  2  0  0  0
 29 30  1  0  0  0
 30 32  1  0  0  0
 32 33  1  0  0  0
 33 34  1  0  0  0
 34 35  1  0  0  0
 35 36  1  0  0  0
 36 37  1  0  0  0
 37 38  1  0  0  0
 29 22  1  0  0  0
 22 23  2  0  0  0
 23 24  1  0  0  0
 24 25  2  0  0  0
 25 21  1  0  0  0
 21  1  1  0  0  0
  1  2  2  0  0  0
  2  3  1  0  0  0
  3  4  2  0  0  0
  4  5  1  0  0  0
  4  6  1  0  0  0
  6  7  2  0  0  0
  7  8  1  0  0  0
  8 10  1  0  0  0
 10 11  2  0  0  0
 10 12  2  0  0  0
 10 13  1  0  0  0
 13 14  2  0  0  0
 14 15  1  0  0  0
 15 16  2  0  0  0
 16 17  1  0  0  0
 16 18  1  0  0  0
 18 19  1  0  0  0
 18 20  2  0  0  0
 25 26  1  0  0  0
 26 27  2  0  0  0
 38 34  1  0  0  0
 27 22  1  0  0  0
  7  1  1  0  0  0
 20 13  1  0  0  0
 30 31  1  0  0  0
  8  9  1  0  0  0
M  END
> <minimizedAffinity>
9.73602

> <CNNscore>
0.3238162994

> <CNNaffinity>
7.9459505081

> <CNN_VS>
2.5730283260

> <CNNaffinity_variance>
0.6930013895

$$$$
[H]c1c([H])c(N([H])c2nc(N([H])[H])nc(C([H])([H])Cl)n2)c([H])c([H])c1OC([H])([H])[H]


 21 22  0  0  0  0  0  0  0  0999 V2000
    8.0245   47.7670  129.7102 C   0  0  0  0  0  0  0  0  0  0  0  0
    7.4967   48.8130  129.0651 N   0  0  0  0  0  0  0  0  0  0  0  0
    7.6036   50.0947  129.4209 C   0  0  0  0  0  0  0  0  0  0  0  0
    7.0126   51.1548  128.6817 N   0  0  0  0  0  0  0  0  0  0  0  0
    8.3160   50.3832  130.5478 N   0  0  0  0  0  0  0  0  0  0  0  0
    8.8777   49.3744  131.2502 C   0  0  0  0  0  0  0  0  0  0  0  0
    8.7314   48.1139  130.8377 N   0  0  0  0  0  0  0  0  0  0  0  0
    6.7444   51.0075  127.6859 H   0  0  0  0  0  0  0  0  0  0  0  0
    6.8465   52.0779  129.1307 H   0  0  0  0  0  0  0  0  0  0  0  0
    7.9158   46.4118  129.3403 N   0  0  0  0  0  0  0  0  0  0  0  0
    7.2515   46.2192  128.5396 H   0  0  0  0  0  0  0  0  0  0  0  0
   10.1696   43.2621  130.9279 C   0  0  0  0  0  0  0  0  0  0  0  0
    8.9429   43.5288  131.4819 C   0  0  0  0  0  0  0  0  0  0  0  0
    8.1436   44.5672  130.9842 C   0  0  0  0  0  0  0  0  0  0  0  0
    8.5835   45.3353  129.9286 C   0  0  0  0  0  0  0  0  0  0  0  0
    9.8502   45.0381  129.3777 C   0  0  0  0  0  0  0  0  0  0  0  0
   10.6267   44.0164  129.8734 C   0  0  0  0  0  0  0  0  0  0  0  0
   11.8911   42.4926  132.4130 C   0  0  0  0  0  0  0  0  0  0  0  0
   10.9352   42.2390  131.4328 O   0  0  0  0  0  0  0  0  0  0  0  0
    9.6662   49.6456  132.4905 C   0  0  0  0  0  0  0  0  0  0  0  0
   10.1828   48.1020  133.2050 Cl  0  0  0  0  0  0  0  0  0  0  0  0
 18 19  1  0  0  0
 19 12  1  0  0  0
 12 13  2  0  0  0
 13 14  1  0  0  0
 14 15  2  0  0  0
 15 10  1  0  0  0
 10  1  1  0  0  0
  1  2  2  0  0  0
  2  3  1  0  0  0
  3  4  1  0  0  0
  3  5  2  0  0  0
  5  6  1  0  0  0
  6 20  1  0  0  0
 20 21  1  0  0  0
  6  7  2  0  0  0
 15 16  1  0  0  0
 16 17  2  0  0  0
 17 12  1  0  0  0
  7  1  1  0  0  0
 10 11  1  0  0  0
  4  8  1  0  0  0
  4  9  1  0  0  0
M  END
> <minimizedAffinity>
-6.55328

> <CNNscore>
0.6440602541

> <CNNaffinity>
6.7343645096

> <CNN_VS>
4.3373365402

> <CNNaffinity_variance>
0.3387990892

$$$$
[H]c1c([H])c(N([H])c2nc(N([H])[H])nc(C([H])([H])Cl)n2)c([H])c([H])c1OC([H])([H])[H]


 21 22  0  0  0  0  0  0  0  0999 V2000
    8.2420   47.1871  129.4782 C   0  0  0  0  0  0  0  0  0  0  0  0
    7.0113   47.5886  129.1422 N   0  0  0  0  0  0  0  0  0  0  0  0
    6.4420   48.7488  129.4750 C   0  0  0  0  0  0  0  0  0  0  0  0
    5.1248   49.1060  129.0789 N   0  0  0  0  0  0  0  0  0  0  0  0
    7.1711   49.6201  130.2299 N   0  0  0  0  0  0  0  0  0  0  0  0
    8.4237   49.2795  130.6061 C   0  0  0  0  0  0  0  0  0  0  0  0
    8.9324   48.1020  130.2381 N   0  0  0  0  0  0  0  0  0  0  0  0
    4.6767   48.6253  128.2706 H   0  0  0  0  0  0  0  0  0  0  0  0
    4.6054   49.8461  129.5928 H   0  0  0  0  0  0  0  0  0  0  0  0
    8.8492   45.9641  129.1303 N   0  0  0  0  0  0  0  0  0  0  0  0
    8.5332   45.5552  128.2071 H   0  0  0  0  0  0  0  0  0  0  0  0
   11.4582   43.8064  131.5916 C   0  0  0  0  0  0  0  0  0  0  0  0
   11.9124   44.2184  130.3641 C   0  0  0  0  0  0  0  0  0  0  0  0
   11.0831   44.9504  129.5032 C   0  0  0  0  0  0  0  0  0  0  0  0
    9.7965   45.2652  129.8819 C   0  0  0  0  0  0  0  0  0  0  0  0
    9.3557   44.8284  131.1513 C   0  0  0  0  0  0  0  0  0  0  0  0
   10.1778   44.1107  131.9888 C   0  0  0  0  0  0  0  0  0  0  0  0
   12.5563   43.5389  133.7091 C   0  0  0  0  0  0  0  0  0  0  0  0
   12.2896   43.0900  132.4183 O   0  0  0  0  0  0  0  0  0  0  0  0
    9.2573   50.2039  131.4332 C   0  0  0  0  0  0  0  0  0  0  0  0
    9.9401   49.3056  132.8069 Cl  0  0  0  0  0  0  0  0  0  0  0  0
 18 19  1  0  0  0
 19 12  1  0  0  0
 12 13  2  0  0  0
 13 14  1  0  0  0
 14 15  2  0  0  0
 15 10  1  0  0  0
 10  1  1  0  0  0
  1  2  2  0  0  0
  2  3  1  0  0  0
  3  4  1  0  0  0
  3  5  2  0  0  0
  5  6  1  0  0  0
  6 20  1  0  0  0
 20 21  1  0  0  0
  6  7  2  0  0  0
 15 16  1  0  0  0
 16 17  2  0  0  0
 17 12  1  0  0  0
  7  1  1  0  0  0
 10 11  1  0  0  0
  4  8  1  0  0  0
  4  9  1  0  0  0
M  END
> <minimizedAffinity>
-6.29110

> <CNNscore>
0.6245145202

> <CNNaffinity>
6.7425866127

> <CNN_VS>
4.2108430862

> <CNNaffinity_variance>
0.3987848461

$$$$
[H]c1c([H])c(N([H])c2nc(N([H])[H])nc(C([H])([H])Cl)n2)c([H])c([H])c1OC([H])([H])[H]


 21 22  0  0  0  0  0  0  0  0999 V2000
    8.8757   46.8223  129.5789 C   0  0  0  0  0  0  0  0  0  0  0  0
    7.6668   46.7631  129.0096 N   0  0  0  0  0  0  0  0  0  0  0  0
    6.7530   47.7355  128.9962 C   0  0  0  0  0  0  0  0  0  0  0  0
    5.4856   47.5976  128.3683 N   0  0  0  0  0  0  0  0  0  0  0  0
    7.0655   48.9087  129.6179 N   0  0  0  0  0  0  0  0  0  0  0  0
    8.2711   49.0389  130.2148 C   0  0  0  0  0  0  0  0  0  0  0  0
    9.1388   48.0255  130.1906 N   0  0  0  0  0  0  0  0  0  0  0  0
    5.3427   46.8655  127.6413 H   0  0  0  0  0  0  0  0  0  0  0  0
    4.6992   48.2251  128.6316 H   0  0  0  0  0  0  0  0  0  0  0  0
    9.8451   45.7999  129.5967 N   0  0  0  0  0  0  0  0  0  0  0  0
   10.0460   45.3584  128.6565 H   0  0  0  0  0  0  0  0  0  0  0  0
   11.8793   44.0998  132.8358 C   0  0  0  0  0  0  0  0  0  0  0  0
   11.8474   45.4676  132.7325 C   0  0  0  0  0  0  0  0  0  0  0  0
   11.1742   46.0895  131.6719 C   0  0  0  0  0  0  0  0  0  0  0  0
   10.5344   45.3302  130.7169 C   0  0  0  0  0  0  0  0  0  0  0  0
   10.5833   43.9242  130.8487 C   0  0  0  0  0  0  0  0  0  0  0  0
   11.2466   43.3239  131.8937 C   0  0  0  0  0  0  0  0  0  0  0  0
   12.0414   43.6052  135.1790 C   0  0  0  0  0  0  0  0  0  0  0  0
   12.5456   43.5129  133.8844 O   0  0  0  0  0  0  0  0  0  0  0  0
    8.6544   50.3067  130.9072 C   0  0  0  0  0  0  0  0  0  0  0  0
    9.6740   49.9215  132.3116 Cl  0  0  0  0  0  0  0  0  0  0  0  0
 18 19  1  0  0  0
 19 12  1  0  0  0
 12 13  2  0  0  0
 13 14  1  0  0  0
 14 15  2  0  0  0
 15 10  1  0  0  0
 10  1  1  0  0  0
  1  2  2  0  0  0
  2  3  1  0  0  0
  3  4  1  0  0  0
  3  5  2  0  0  0
  5  6  1  0  0  0
  6 20  1  0  0  0
 20 21  1  0  0  0
  6  7  2  0  0  0
 15 16  1  0  0  0
 16 17  2  0  0  0
 17 12  1  0  0  0
  7  1  1  0  0  0
 10 11  1  0  0  0
  4  8  1  0  0  0
  4  9  1  0  0  0
M  END
> <minimizedAffinity>
-5.59625

> <CNNscore>
0.5590906739

> <CNNaffinity>
6.6884613037

> <CNN_VS>
3.7394564152

> <CNNaffinity_variance>
0.5411809683

$$$$
[H]c1c([H])c(N([H])c2nc(N([H])[H])nc(C([H])([H])Cl)n2)c([H])c([H])c1OC([H])([H])[H]


 21 22  0  0  0  0  0  0  0  0999 V2000
    7.5878   46.1709  130.8861 C   0  0  0  0  0  0  0  0  0  0  0  0
    6.6033   46.8110  130.2459 N   0  0  0  0  0  0  0  0  0  0  0  0
    6.7002   47.4281  129.0667 C   0  0  0  0  0  0  0  0  0  0  0  0
    5.6053   48.0892  128.4471 N   0  0  0  0  0  0  0  0  0  0  0  0
    7.9121   47.4143  128.4408 N   0  0  0  0  0  0  0  0  0  0  0  0
    8.9527   46.7854  129.0307 C   0  0  0  0  0  0  0  0  0  0  0  0
    8.7864   46.1875  130.2120 N   0  0  0  0  0  0  0  0  0  0  0  0
    4.6302   47.8565  128.7301 H   0  0  0  0  0  0  0  0  0  0  0  0
    5.7734   48.8050  127.7117 H   0  0  0  0  0  0  0  0  0  0  0  0
    7.4926   45.5174  132.1308 N   0  0  0  0  0  0  0  0  0  0  0  0
    6.5055   45.3381  132.4669 H   0  0  0  0  0  0  0  0  0  0  0  0
   10.7244   44.0437  134.3454 C   0  0  0  0  0  0  0  0  0  0  0  0
   10.2108   45.2709  134.6810 C   0  0  0  0  0  0  0  0  0  0  0  0
    9.1242   45.8086  133.9774 C   0  0  0  0  0  0  0  0  0  0  0  0
    8.5578   45.1072  132.9358 C   0  0  0  0  0  0  0  0  0  0  0  0
    9.1067   43.8460  132.6124 C   0  0  0  0  0  0  0  0  0  0  0  0
   10.1731   43.3273  133.3096 C   0  0  0  0  0  0  0  0  0  0  0  0
   11.6676   43.2600  136.4088 C   0  0  0  0  0  0  0  0  0  0  0  0
   11.7899   43.5373  135.0497 O   0  0  0  0  0  0  0  0  0  0  0  0
   10.2976   46.7460  128.3801 C   0  0  0  0  0  0  0  0  0  0  0  0
   10.8426   45.0579  128.2638 Cl  0  0  0  0  0  0  0  0  0  0  0  0
 18 19  1  0  0  0
 19 12  1  0  0  0
 12 13  2  0  0  0
 13 14  1  0  0  0
 14 15  2  0  0  0
 15 10  1  0  0  0
 10  1  1  0  0  0
  1  2  2  0  0  0
  2  3  1  0  0  0
  3  4  1  0  0  0
  3  5  2  0  0  0
  5  6  1  0  0  0
  6 20  1  0  0  0
 20 21  1  0  0  0
  6  7  2  0  0  0
 15 16  1  0  0  0
 16 17  2  0  0  0
 17 12  1  0  0  0
  7  1  1  0  0  0
 10 11  1  0  0  0
  4  8  1  0  0  0
  4  9  1  0  0  0
M  END
> <minimizedAffinity>
-3.09535

> <CNNscore>
0.5171542764

> <CNNaffinity>
6.5811219215

> <CNN_VS>
3.4034552574

> <CNNaffinity_variance>
0.7093986273

$$$$
[H]c1c([H])c(N([H])c2nc(N([H])[H])nc(C([H])([H])Cl)n2)c([H])c([H])c1OC([H])([H])[H]


 21 22  0  0  0  0  0  0  0  0999 V2000
    8.4508   49.0176  131.2511 C   0  0  0  0  0  0  0  0  0  0  0  0
    8.0983   50.1286  130.5952 N   0  0  0  0  0  0  0  0  0  0  0  0
    7.4240   50.1849  129.4450 C   0  0  0  0  0  0  0  0  0  0  0  0
    7.0847   51.4080  128.8061 N   0  0  0  0  0  0  0  0  0  0  0  0
    7.0509   49.0057  128.8696 N   0  0  0  0  0  0  0  0  0  0  0  0
    7.3740   47.8429  129.4780 C   0  0  0  0  0  0  0  0  0  0  0  0
    8.0504   47.8588  130.6281 N   0  0  0  0  0  0  0  0  0  0  0  0
    7.0732   52.2944  129.3531 H   0  0  0  0  0  0  0  0  0  0  0  0
    6.8474   51.4224  127.7936 H   0  0  0  0  0  0  0  0  0  0  0  0
    9.1623   48.9509  132.4655 N   0  0  0  0  0  0  0  0  0  0  0  0
    9.3664   49.8863  132.9156 H   0  0  0  0  0  0  0  0  0  0  0  0
   10.7687   45.4856  134.1777 C   0  0  0  0  0  0  0  0  0  0  0  0
    9.6539   46.0401  134.7542 C   0  0  0  0  0  0  0  0  0  0  0  0
    9.0706   47.1961  134.2173 C   0  0  0  0  0  0  0  0  0  0  0  0
    9.6134   47.7911  133.0997 C   0  0  0  0  0  0  0  0  0  0  0  0
   10.7610   47.1984  132.5268 C   0  0  0  0  0  0  0  0  0  0  0  0
   11.3255   46.0635  133.0615 C   0  0  0  0  0  0  0  0  0  0  0  0
   12.2540   43.6082  134.0020 C   0  0  0  0  0  0  0  0  0  0  0  0
   11.3227   44.3521  134.7219 O   0  0  0  0  0  0  0  0  0  0  0  0
    6.9852   46.5285  128.8825 C   0  0  0  0  0  0  0  0  0  0  0  0
    8.0489   45.2572  129.5247 Cl  0  0  0  0  0  0  0  0  0  0  0  0
 18 19  1  0  0  0
 19 12  1  0  0  0
 12 13  2  0  0  0
 13 14  1  0  0  0
 14 15  2  0  0  0
 15 10  1  0  0  0
 10  1  1  0  0  0
  1  2  2  0  0  0
  2  3  1  0  0  0
  3  4  1  0  0  0
  3  5  2  0  0  0
  5  6  1  0  0  0
  6 20  1  0  0  0
 20 21  1  0  0  0
  6  7  2  0  0  0
 15 16  1  0  0  0
 16 17  2  0  0  0
 17 12  1  0  0  0
  7  1  1  0  0  0
 10 11  1  0  0  0
  4  8  1  0  0  0
  4  9  1  0  0  0
M  END
> <minimizedAffinity>
-5.94923

> <CNNscore>
0.4517716765

> <CNNaffinity>
6.3838548660

> <CNN_VS>
2.8840448856

> <CNNaffinity_variance>
0.0892298445

$$$$
[H]c1c([H])c(N([H])c2nc(N([H])[H])nc(C([H])([H])Cl)n2)c([H])c([H])c1OC([H])([H])[H]


 21 22  0  0  0  0  0  0  0  0999 V2000
    9.3852   46.4449  132.3880 C   0  0  0  0  0  0  0  0  0  0  0  0
    9.0287   47.3042  133.3489 N   0  0  0  0  0  0  0  0  0  0  0  0
    8.3797   47.0028  134.4753 C   0  0  0  0  0  0  0  0  0  0  0  0
    8.0342   47.9745  135.4529 N   0  0  0  0  0  0  0  0  0  0  0  0
    8.0398   45.6980  134.6822 N   0  0  0  0  0  0  0  0  0  0  0  0
    8.3688   44.7745  133.7519 C   0  0  0  0  0  0  0  0  0  0  0  0
    9.0187   45.1449  132.6469 N   0  0  0  0  0  0  0  0  0  0  0  0
    8.5362   48.8870  135.4788 H   0  0  0  0  0  0  0  0  0  0  0  0
    7.2818   47.7787  136.1435 H   0  0  0  0  0  0  0  0  0  0  0  0
   10.0704   46.7561  131.1968 N   0  0  0  0  0  0  0  0  0  0  0  0
    9.7600   47.6499  130.7233 H   0  0  0  0  0  0  0  0  0  0  0  0
   12.9873   44.5714  129.1379 C   0  0  0  0  0  0  0  0  0  0  0  0
   13.1432   44.7538  130.4888 C   0  0  0  0  0  0  0  0  0  0  0  0
   12.1927   45.4709  131.2284 C   0  0  0  0  0  0  0  0  0  0  0  0
   11.0864   46.0034  130.6035 C   0  0  0  0  0  0  0  0  0  0  0  0
   10.9514   45.7997  129.2119 C   0  0  0  0  0  0  0  0  0  0  0  0
   11.8901   45.0940  128.4954 C   0  0  0  0  0  0  0  0  0  0  0  0
   15.2516   43.8186  128.8773 C   0  0  0  0  0  0  0  0  0  0  0  0
   13.9324   43.8647  128.4341 O   0  0  0  0  0  0  0  0  0  0  0  0
    8.0159   43.3343  133.9383 C   0  0  0  0  0  0  0  0  0  0  0  0
    9.3476   42.3225  133.3357 Cl  0  0  0  0  0  0  0  0  0  0  0  0
 18 19  1  0  0  0
 19 12  1  0  0  0
 12 13  2  0  0  0
 13 14  1  0  0  0
 14 15  2  0  0  0
 15 10  1  0  0  0
 10  1  1  0  0  0
  1  2  2  0  0  0
  2  3  1  0  0  0
  3  4  1  0  0  0
  3  5  2  0  0  0
  5  6  1  0  0  0
  6 20  1  0  0  0
 20 21  1  0  0  0
  6  7  2  0  0  0
 15 16  1  0  0  0
 16 17  2  0  0  0
 17 12  1  0  0  0
  7  1  1  0  0  0
 10 11  1  0  0  0
  4  8  1  0  0  0
  4  9  1  0  0  0
M  END
> <minimizedAffinity>
2.70909

> <CNNscore>
0.4435707331

> <CNNaffinity>
6.2682433128

> <CNN_VS>
2.7804093361

> <CNNaffinity_variance>
1.8385982513

$$$$
[H]c1c([H])c(N([H])c2nc(N([H])[H])nc(C([H])([H])Cl)n2)c([H])c([H])c1OC([H])([H])[H]


 21 22  0  0  0  0  0  0  0  0999 V2000
   11.7048   43.9956  131.1689 C   0  0  0  0  0  0  0  0  0  0  0  0
   12.9999   44.0377  130.8380 N   0  0  0  0  0  0  0  0  0  0  0  0
   13.4964   44.3012  129.6276 C   0  0  0  0  0  0  0  0  0  0  0  0
   14.8903   44.3281  129.3521 N   0  0  0  0  0  0  0  0  0  0  0  0
   12.6122   44.5539  128.6202 N   0  0  0  0  0  0  0  0  0  0  0  0
   11.2867   44.5281  128.8831 C   0  0  0  0  0  0  0  0  0  0  0  0
   10.8580   44.2575  130.1174 N   0  0  0  0  0  0  0  0  0  0  0  0
   15.5716   44.4505  130.1305 H   0  0  0  0  0  0  0  0  0  0  0  0
   15.2337   44.2261  128.3758 H   0  0  0  0  0  0  0  0  0  0  0  0
   11.1738   43.7184  132.4443 N   0  0  0  0  0  0  0  0  0  0  0  0
   11.4866   42.8010  132.8686 H   0  0  0  0  0  0  0  0  0  0  0  0
    8.7749   46.3180  134.6821 C   0  0  0  0  0  0  0  0  0  0  0  0
    8.1620   45.3231  133.9631 C   0  0  0  0  0  0  0  0  0  0  0  0
    8.9179   44.4203  133.2025 C   0  0  0  0  0  0  0  0  0  0  0  0
   10.2912   44.5233  133.1681 C   0  0  0  0  0  0  0  0  0  0  0  0
   10.8955   45.5570  133.9183 C   0  0  0  0  0  0  0  0  0  0  0  0
   10.1443   46.4376  134.6618 C   0  0  0  0  0  0  0  0  0  0  0  0
    8.1457   48.5656  135.2421 C   0  0  0  0  0  0  0  0  0  0  0  0
    8.0129   47.1911  135.4203 O   0  0  0  0  0  0  0  0  0  0  0  0
   10.2834   44.7992  127.8091 C   0  0  0  0  0  0  0  0  0  0  0  0
    9.1623   43.4243  127.6948 Cl  0  0  0  0  0  0  0  0  0  0  0  0
 18 19  1  0  0  0
 19 12  1  0  0  0
 12 13  2  0  0  0
 13 14  1  0  0  0
 14 15  2  0  0  0
 15 10  1  0  0  0
 10  1  1  0  0  0
  1  2  2  0  0  0
  2  3  1  0  0  0
  3  4  1  0  0  0
  3  5  2  0  0  0
  5  6  1  0  0  0
  6 20  1  0  0  0
 20 21  1  0  0  0
  6  7  2  0  0  0
 15 16  1  0  0  0
 16 17  2  0  0  0
 17 12  1  0  0  0
  7  1  1  0  0  0
 10 11  1  0  0  0
  4  8  1  0  0  0
  4  9  1  0  0  0
M  END
> <minimizedAffinity>
-0.52216

> <CNNscore>
0.4429643750

> <CNNaffinity>
6.1961374283

> <CNN_VS>
2.7446682453

> <CNNaffinity_variance>
0.7502732277

$$$$
[H]c1c([H])c(N([H])c2nc(N([H])[H])nc(C([H])([H])Cl)n2)c([H])c([H])c1OC([H])([H])[H]


 21 22  0  0  0  0  0  0  0  0999 V2000
    8.1811   47.2303  131.2963 C   0  0  0  0  0  0  0  0  0  0  0  0
    8.7745   48.3222  131.7906 N   0  0  0  0  0  0  0  0  0  0  0  0
    8.8271   49.5225  131.2098 C   0  0  0  0  0  0  0  0  0  0  0  0
    9.4787   50.6395  131.7991 N   0  0  0  0  0  0  0  0  0  0  0  0
    8.2229   49.6669  129.9954 N   0  0  0  0  0  0  0  0  0  0  0  0
    7.6034   48.6041  129.4356 C   0  0  0  0  0  0  0  0  0  0  0  0
    7.5885   47.4312  130.0717 N   0  0  0  0  0  0  0  0  0  0  0  0
    9.6656   50.6509  132.8239 H   0  0  0  0  0  0  0  0  0  0  0  0
    9.7701   51.4464  131.2115 H   0  0  0  0  0  0  0  0  0  0  0  0
    8.1216   45.9604  131.9040 N   0  0  0  0  0  0  0  0  0  0  0  0
    7.2727   45.3826  131.6494 H   0  0  0  0  0  0  0  0  0  0  0  0
   10.9950   44.1359  134.3403 C   0  0  0  0  0  0  0  0  0  0  0  0
   10.4092   45.2956  134.7812 C   0  0  0  0  0  0  0  0  0  0  0  0
    9.4357   45.9441  134.0087 C   0  0  0  0  0  0  0  0  0  0  0  0
    9.0553   45.4216  132.7921 C   0  0  0  0  0  0  0  0  0  0  0  0
    9.6748   44.2263  132.3634 C   0  0  0  0  0  0  0  0  0  0  0  0
   10.6289   43.5976  133.1294 C   0  0  0  0  0  0  0  0  0  0  0  0
   11.6766   43.2029  136.4442 C   0  0  0  0  0  0  0  0  0  0  0  0
   11.9468   43.5182  135.1151 O   0  0  0  0  0  0  0  0  0  0  0  0
    6.9290   48.7180  128.1068 C   0  0  0  0  0  0  0  0  0  0  0  0
    5.4188   47.7806  128.1345 Cl  0  0  0  0  0  0  0  0  0  0  0  0
 18 19  1  0  0  0
 19 12  1  0  0  0
 12 13  2  0  0  0
 13 14  1  0  0  0
 14 15  2  0  0  0
 15 10  1  0  0  0
 10  1  1  0  0  0
  1  2  2  0  0  0
  2  3  1  0  0  0
  3  4  1  0  0  0
  3  5  2  0  0  0
  5  6  1  0  0  0
  6 20  1  0  0  0
 20 21  1  0  0  0
  6  7  2  0  0  0
 15 16  1  0  0  0
 16 17  2  0  0  0
 17 12  1  0  0  0
  7  1  1  0  0  0
 10 11  1  0  0  0
  4  8  1  0  0  0
  4  9  1  0  0  0
M  END
> <minimizedAffinity>
-2.29052

> <CNNscore>
0.4341779947

> <CNNaffinity>
6.4193825722

> <CNN_VS>
2.7871546745

> <CNNaffinity_variance>
1.0273065567

$$$$
[H]c1c([H])c(N([H])c2nc(N([H])[H])nc(C([H])([H])Cl)n2)c([H])c([H])c1OC([H])([H])[H]


 21 22  0  0  0  0  0  0  0  0999 V2000
    8.7795   45.5197  130.6122 C   0  0  0  0  0  0  0  0  0  0  0  0
    8.3491   46.6381  130.0183 N   0  0  0  0  0  0  0  0  0  0  0  0
    8.5811   46.9994  128.7548 C   0  0  0  0  0  0  0  0  0  0  0  0
    8.0882   48.2081  128.1927 N   0  0  0  0  0  0  0  0  0  0  0  0
    9.3268   46.1593  127.9811 N   0  0  0  0  0  0  0  0  0  0  0  0
    9.7950   45.0100  128.5164 C   0  0  0  0  0  0  0  0  0  0  0  0
    9.5254   44.7097  129.7883 N   0  0  0  0  0  0  0  0  0  0  0  0
    7.2836   48.6979  128.6376 H   0  0  0  0  0  0  0  0  0  0  0  0
    8.5276   48.6062  127.3384 H   0  0  0  0  0  0  0  0  0  0  0  0
    8.5383   45.1320  131.9452 N   0  0  0  0  0  0  0  0  0  0  0  0
    8.2110   44.1333  132.0677 H   0  0  0  0  0  0  0  0  0  0  0  0
    8.8728   47.2831  135.5202 C   0  0  0  0  0  0  0  0  0  0  0  0
    9.3493   47.8565  134.3684 C   0  0  0  0  0  0  0  0  0  0  0  0
    9.2560   47.1833  133.1424 C   0  0  0  0  0  0  0  0  0  0  0  0
    8.6825   45.9323  133.0807 C   0  0  0  0  0  0  0  0  0  0  0  0
    8.2001   45.3664  134.2821 C   0  0  0  0  0  0  0  0  0  0  0  0
    8.2963   46.0357  135.4801 C   0  0  0  0  0  0  0  0  0  0  0  0
    7.9962   48.8787  137.0845 C   0  0  0  0  0  0  0  0  0  0  0  0
    8.9754   47.9623  136.7102 O   0  0  0  0  0  0  0  0  0  0  0  0
   10.6159   44.0609  127.7046 C   0  0  0  0  0  0  0  0  0  0  0  0
   12.3322   44.2703  128.1175 Cl  0  0  0  0  0  0  0  0  0  0  0  0
 18 19  1  0  0  0
 19 12  1  0  0  0
 12 13  2  0  0  0
 13 14  1  0  0  0
 14 15  2  0  0  0
 15 10  1  0  0  0
 10  1  1  0  0  0
  1  2  2  0  0  0
  2  3  1  0  0  0
  3  4  1  0  0  0
  3  5  2  0  0  0
  5  6  1  0  0  0
  6 20  1  0  0  0
 20 21  1  0  0  0
  6  7  2  0  0  0
 15 16  1  0  0  0
 16 17  2  0  0  0
 17 12  1  0  0  0
  7  1  1  0  0  0
 10 11  1  0  0  0
  4  8  1  0  0  0
  4  9  1  0  0  0
M  END
> <minimizedAffinity>
6.38260

> <CNNscore>
0.4333660901

> <CNNaffinity>
6.3897948265

> <CNN_VS>
2.7691204548

> <CNNaffinity_variance>
1.8181037903

$$$$
[H]c1nc2sc3c(=O)n(C4([H])C([H])([H])C([H])([H])C([H])([H])C([H])([H])C4([H])[H])c([H])nc3c2c(N(C([H])([H])[H])C([H])([H])[H])c1[H]


 23 26  0  0  0  0  0  0  0  0999 V2000
    7.4625   46.2382  129.7629 C   0  0  0  0  0  0  0  0  0  0  0  0
    6.3916   46.4192  128.9110 C   0  0  0  0  0  0  0  0  0  0  0  0
    5.7668   47.6226  128.6788 C   0  0  0  0  0  0  0  0  0  0  0  0
    6.2737   48.6673  129.3548 N   0  0  0  0  0  0  0  0  0  0  0  0
    7.3356   48.5438  130.2141 C   0  0  0  0  0  0  0  0  0  0  0  0
    8.1765   49.6540  131.2001 S   0  0  0  0  0  0  0  0  0  0  0  0
    9.3113   48.5951  131.9026 C   0  0  0  0  0  0  0  0  0  0  0  0
   10.3592   48.7313  132.8340 C   0  0  0  0  0  0  0  0  0  0  0  0
   10.5327   49.8877  133.2641 O   0  0  0  0  0  0  0  0  0  0  0  0
   11.1003   47.6802  133.2134 N   0  0  0  0  0  0  0  0  0  0  0  0
   10.7821   46.5030  132.6540 C   0  0  0  0  0  0  0  0  0  0  0  0
    9.7981   46.3564  131.7746 N   0  0  0  0  0  0  0  0  0  0  0  0
    9.0022   47.3874  131.3428 C   0  0  0  0  0  0  0  0  0  0  0  0
    7.9722   47.3573  130.4608 C   0  0  0  0  0  0  0  0  0  0  0  0
   12.1634   47.8609  134.1686 C   0  0  0  0  0  0  0  0  0  0  0  0
   11.6734   48.4379  135.4735 C   0  0  0  0  0  0  0  0  0  0  0  0
   12.8712   48.7024  136.3389 C   0  0  0  0  0  0  0  0  0  0  0  0
   14.1582   48.2154  135.7778 C   0  0  0  0  0  0  0  0  0  0  0  0
   14.1152   46.8376  135.1978 C   0  0  0  0  0  0  0  0  0  0  0  0
   12.7968   46.5118  134.5350 C   0  0  0  0  0  0  0  0  0  0  0  0
    8.8204   44.2894  128.8503 C   0  0  0  0  0  0  0  0  0  0  0  0
    8.0101   44.9358  129.8603 N   0  0  0  0  0  0  0  0  0  0  0  0
    7.7338   44.1912  131.0742 C   0  0  0  0  0  0  0  0  0  0  0  0
 21 22  1  0  0  0
 22 23  1  0  0  0
 22  1  1  0  0  0
  1  2  2  0  0  0
  2  3  1  0  0  0
  3  4  2  0  0  0
  4  5  1  0  0  0
  5  6  1  0  0  0
  6  7  1  0  0  0
  7  8  1  0  0  0
  8  9  2  0  0  0
  8 10  1  0  0  0
 10 15  1  0  0  0
 15 16  1  0  0  0
 16 17  1  0  0  0
 17 18  1  0  0  0
 18 19  1  0  0  0
 19 20  1  0  0  0
 10 11  1  0  0  0
 11 12  2  0  0  0
 12 13  1  0  0  0
 13 14  1  0  0  0
 14  1  1  0  0  0
 14  5  2  0  0  0
 13  7  2  0  0  0
 20 15  1  0  0  0
M  END
> <minimizedAffinity>
10.72520

> <CNNscore>
0.4783104062

> <CNNaffinity>
7.0993666649

> <CNN_VS>
3.3957009315

> <CNNaffinity_variance>
1.4659856558

$$$$
[H]c1nc2sc3c(=O)n(C4([H])C([H])([H])C([H])([H])C([H])([H])C([H])([H])C4([H])[H])c([H])nc3c2c(N(C([H])([H])[H])C([H])([H])[H])c1[H]


 23 26  0  0  0  0  0  0  0  0999 V2000
   10.2496   45.6651  128.3379 C   0  0  0  0  0  0  0  0  0  0  0  0
    9.8602   46.2368  127.1434 C   0  0  0  0  0  0  0  0  0  0  0  0
    9.0873   47.3691  127.0291 C   0  0  0  0  0  0  0  0  0  0  0  0
    8.7095   47.9208  128.1945 N   0  0  0  0  0  0  0  0  0  0  0  0
    9.0672   47.3940  129.4095 C   0  0  0  0  0  0  0  0  0  0  0  0
    8.7419   47.8484  131.0218 S   0  0  0  0  0  0  0  0  0  0  0  0
    9.5806   46.6071  131.8331 C   0  0  0  0  0  0  0  0  0  0  0  0
    9.7934   46.2639  133.1826 C   0  0  0  0  0  0  0  0  0  0  0  0
    9.2636   47.0308  134.0094 O   0  0  0  0  0  0  0  0  0  0  0  0
   10.5158   45.1878  133.5264 N   0  0  0  0  0  0  0  0  0  0  0  0
   11.0173   44.4670  132.5120 C   0  0  0  0  0  0  0  0  0  0  0  0
   10.8269   44.7758  131.2346 N   0  0  0  0  0  0  0  0  0  0  0  0
   10.1002   45.8607  130.8132 C   0  0  0  0  0  0  0  0  0  0  0  0
    9.8347   46.2690  129.5472 C   0  0  0  0  0  0  0  0  0  0  0  0
   10.7106   44.8707  134.9180 C   0  0  0  0  0  0  0  0  0  0  0  0
    9.5013   45.1985  135.7582 C   0  0  0  0  0  0  0  0  0  0  0  0
    9.8580   44.9514  137.1952 C   0  0  0  0  0  0  0  0  0  0  0  0
   11.1947   44.3362  137.4028 C   0  0  0  0  0  0  0  0  0  0  0  0
   11.5166   43.1973  136.4884 C   0  0  0  0  0  0  0  0  0  0  0  0
   10.9358   43.3639  135.1033 C   0  0  0  0  0  0  0  0  0  0  0  0
   12.5121   44.5068  128.4559 C   0  0  0  0  0  0  0  0  0  0  0  0
   11.0760   44.5167  128.2766 N   0  0  0  0  0  0  0  0  0  0  0  0
   10.4258   43.2472  128.0121 C   0  0  0  0  0  0  0  0  0  0  0  0
 21 22  1  0  0  0
 22 23  1  0  0  0
 22  1  1  0  0  0
  1  2  2  0  0  0
  2  3  1  0  0  0
  3  4  2  0  0  0
  4  5  1  0  0  0
  5  6  1  0  0  0
  6  7  1  0  0  0
  7  8  1  0  0  0
  8  9  2  0  0  0
  8 10  1  0  0  0
 10 15  1  0  0  0
 15 16  1  0  0  0
 16 17  1  0  0  0
 17 18  1  0  0  0
 18 19  1  0  0  0
 19 20  1  0  0  0
 10 11  1  0  0  0
 11 12  2  0  0  0
 12 13  1  0  0  0
 13 14  1  0  0  0
 14  1  1  0  0  0
 14  5  2  0  0  0
 13  7  2  0  0  0
 20 15  1  0  0  0
M  END
> <minimizedAffinity>
13.72278

> <CNNscore>
0.4283383489

> <CNNaffinity>
7.2316513062

> <CNN_VS>
3.0975935459

> <CNNaffinity_variance>
2.0703749657

$$$$
[H]c1nc2sc3c(=O)n(C4([H])C([H])([H])C([H])([H])C([H])([H])C([H])([H])C4([H])[H])c([H])nc3c2c(N(C([H])([H])[H])C([H])([H])[H])c1[H]


 23 26  0  0  0  0  0  0  0  0999 V2000
    8.5043   48.1199  129.2129 C   0  0  0  0  0  0  0  0  0  0  0  0
    7.8722   49.1531  128.5508 C   0  0  0  0  0  0  0  0  0  0  0  0
    7.5705   50.3747  129.1069 C   0  0  0  0  0  0  0  0  0  0  0  0
    7.9387   50.5228  130.3905 N   0  0  0  0  0  0  0  0  0  0  0  0
    8.5685   49.5292  131.0958 C   0  0  0  0  0  0  0  0  0  0  0  0
    9.1357   49.4147  132.7012 S   0  0  0  0  0  0  0  0  0  0  0  0
    9.7492   47.8257  132.6647 C   0  0  0  0  0  0  0  0  0  0  0  0
   10.3786   46.9779  133.5970 C   0  0  0  0  0  0  0  0  0  0  0  0
   10.5511   47.4752  134.7263 O   0  0  0  0  0  0  0  0  0  0  0  0
   10.7546   45.7331  133.2698 N   0  0  0  0  0  0  0  0  0  0  0  0
   10.4950   45.3519  132.0099 C   0  0  0  0  0  0  0  0  0  0  0  0
    9.9030   46.1377  131.1181 N   0  0  0  0  0  0  0  0  0  0  0  0
    9.4936   47.4198  131.3851 C   0  0  0  0  0  0  0  0  0  0  0  0
    8.8782   48.3065  130.5637 C   0  0  0  0  0  0  0  0  0  0  0  0
   11.3956   44.8970  134.2522 C   0  0  0  0  0  0  0  0  0  0  0  0
   10.4327   43.9412  134.9117 C   0  0  0  0  0  0  0  0  0  0  0  0
   11.1738   43.2167  135.9976 C   0  0  0  0  0  0  0  0  0  0  0  0
   12.6313   43.5023  136.0473 C   0  0  0  0  0  0  0  0  0  0  0  0
   13.3242   43.4914  134.7220 C   0  0  0  0  0  0  0  0  0  0  0  0
   12.4610   44.0090  133.5948 C   0  0  0  0  0  0  0  0  0  0  0  0
    9.8932   46.7395  127.5882 C   0  0  0  0  0  0  0  0  0  0  0  0
    8.7710   46.9377  128.4803 N   0  0  0  0  0  0  0  0  0  0  0  0
    7.8403   45.8365  128.6400 C   0  0  0  0  0  0  0  0  0  0  0  0
 21 22  1  0  0  0
 22 23  1  0  0  0
 22  1  1  0  0  0
  1  2  2  0  0  0
  2  3  1  0  0  0
  3  4  2  0  0  0
  4  5  1  0  0  0
  5  6  1  0  0  0
  6  7  1  0  0  0
  7  8  1  0  0  0
  8  9  2  0  0  0
  8 10  1  0  0  0
 10 15  1  0  0  0
 15 16  1  0  0  0
 16 17  1  0  0  0
 17 18  1  0  0  0
 18 19  1  0  0  0
 19 20  1  0  0  0
 10 11  1  0  0  0
 11 12  2  0  0  0
 12 13  1  0  0  0
 13 14  1  0  0  0
 14  1  1  0  0  0
 14  5  2  0  0  0
 13  7  2  0  0  0
 20 15  1  0  0  0
M  END
> <minimizedAffinity>
6.21833

> <CNNscore>
0.3954115212

> <CNNaffinity>
7.0372214317

> <CNN_VS>
2.7825984955

> <CNNaffinity_variance>
0.8461574316

$$$$
[H]c1nc2sc3c(=O)n(C4([H])C([H])([H])C([H])([H])C([H])([H])C([H])([H])C4([H])[H])c([H])nc3c2c(N(C([H])([H])[H])C([H])([H])[H])c1[H]


 23 26  0  0  0  0  0  0  0  0999 V2000
    8.0434   49.8765  130.4903 C   0  0  0  0  0  0  0  0  0  0  0  0
    7.2200   50.8825  130.0262 C   0  0  0  0  0  0  0  0  0  0  0  0
    6.0269   50.6822  129.3713 C   0  0  0  0  0  0  0  0  0  0  0  0
    5.6828   49.3954  129.1953 N   0  0  0  0  0  0  0  0  0  0  0  0
    6.4636   48.3570  129.6353 C   0  0  0  0  0  0  0  0  0  0  0  0
    6.3059   46.6598  129.5534 S   0  0  0  0  0  0  0  0  0  0  0  0
    7.7465   46.2101  130.3439 C   0  0  0  0  0  0  0  0  0  0  0  0
    8.3619   44.9876  130.6766 C   0  0  0  0  0  0  0  0  0  0  0  0
    7.7291   43.9706  130.3335 O   0  0  0  0  0  0  0  0  0  0  0  0
    9.5405   44.9472  131.3147 N   0  0  0  0  0  0  0  0  0  0  0  0
   10.0895   46.1346  131.6125 C   0  0  0  0  0  0  0  0  0  0  0  0
    9.5236   47.2963  131.3069 N   0  0  0  0  0  0  0  0  0  0  0  0
    8.3209   47.4101  130.6562 C   0  0  0  0  0  0  0  0  0  0  0  0
    7.6537   48.5323  130.2884 C   0  0  0  0  0  0  0  0  0  0  0  0
   10.1372   43.6763  131.6373 C   0  0  0  0  0  0  0  0  0  0  0  0
   11.6433   43.7439  131.6902 C   0  0  0  0  0  0  0  0  0  0  0  0
   12.1597   42.3507  131.9040 C   0  0  0  0  0  0  0  0  0  0  0  0
   11.1056   41.3316  132.1460 C   0  0  0  0  0  0  0  0  0  0  0  0
   10.0369   41.7420  133.1084 C   0  0  0  0  0  0  0  0  0  0  0  0
    9.7034   43.2140  133.0350 C   0  0  0  0  0  0  0  0  0  0  0  0
    9.2672   50.9560  132.4425 C   0  0  0  0  0  0  0  0  0  0  0  0
    9.2225   50.2580  131.1755 N   0  0  0  0  0  0  0  0  0  0  0  0
   10.4883   49.9193  130.5530 C   0  0  0  0  0  0  0  0  0  0  0  0
 21 22  1  0  0  0
 22 23  1  0  0  0
 22  1  1  0  0  0
  1  2  2  0  0  0
  2  3  1  0  0  0
  3  4  2  0  0  0
  4  5  1  0  0  0
  5  6  1  0  0  0
  6  7  1  0  0  0
  7  8  1  0  0  0
  8  9  2  0  0  0
  8 10  1  0  0  0
 10 15  1  0  0  0
 15 16  1  0  0  0
 16 17  1  0  0  0
 17 18  1  0  0  0
 18 19  1  0  0  0
 19 20  1  0  0  0
 10 11  1  0  0  0
 11 12  2  0  0  0
 12 13  1  0  0  0
 13 14  1  0  0  0
 14  1  1  0  0  0
 14  5  2  0  0  0
 13  7  2  0  0  0
 20 15  1  0  0  0
M  END
> <minimizedAffinity>
0.03534

> <CNNscore>
0.3527162671

> <CNNaffinity>
7.1807723045

> <CNN_VS>
2.5327751637

> <CNNaffinity_variance>
0.4502824843

$$$$
[H]c1nc2sc3c(=O)n(C4([H])C([H])([H])C([H])([H])C([H])([H])C([H])([H])C4([H])[H])c([H])nc3c2c(N(C([H])([H])[H])C([H])([H])[H])c1[H]


 23 26  0  0  0  0  0  0  0  0999 V2000
    7.2760   49.0662  129.7547 C   0  0  0  0  0  0  0  0  0  0  0  0
    6.2822   49.4344  128.8704 C   0  0  0  0  0  0  0  0  0  0  0  0
    5.4741   48.5562  128.1861 C   0  0  0  0  0  0  0  0  0  0  0  0
    5.7094   47.2563  128.4315 N   0  0  0  0  0  0  0  0  0  0  0  0
    6.6842   46.8349  129.2996 C   0  0  0  0  0  0  0  0  0  0  0  0
    7.2175   45.2928  129.7990 S   0  0  0  0  0  0  0  0  0  0  0  0
    8.4589   45.7624  130.8672 C   0  0  0  0  0  0  0  0  0  0  0  0
    9.3860   45.0813  131.6800 C   0  0  0  0  0  0  0  0  0  0  0  0
    9.3058   43.8386  131.6403 O   0  0  0  0  0  0  0  0  0  0  0  0
   10.2780   45.7431  132.4312 N   0  0  0  0  0  0  0  0  0  0  0  0
   10.2304   47.0819  132.3589 C   0  0  0  0  0  0  0  0  0  0  0  0
    9.3634   47.7403  131.5987 N   0  0  0  0  0  0  0  0  0  0  0  0
    8.4251   47.1272  130.8071 C   0  0  0  0  0  0  0  0  0  0  0  0
    7.4998   47.6900  129.9906 C   0  0  0  0  0  0  0  0  0  0  0  0
   11.2098   45.0096  133.2492 C   0  0  0  0  0  0  0  0  0  0  0  0
   10.5647   44.4412  134.4887 C   0  0  0  0  0  0  0  0  0  0  0  0
   11.6435   43.8142  135.3233 C   0  0  0  0  0  0  0  0  0  0  0  0
   12.9826   43.7826  134.6797 C   0  0  0  0  0  0  0  0  0  0  0  0
   12.9872   43.3493  133.2483 C   0  0  0  0  0  0  0  0  0  0  0  0
   11.7608   43.7967  132.4871 C   0  0  0  0  0  0  0  0  0  0  0  0
    9.3460   49.9936  130.9076 C   0  0  0  0  0  0  0  0  0  0  0  0
    7.9942   50.1009  130.4019 N   0  0  0  0  0  0  0  0  0  0  0  0
    7.3158   51.3720  130.5699 C   0  0  0  0  0  0  0  0  0  0  0  0
 21 22  1  0  0  0
 22 23  1  0  0  0
 22  1  1  0  0  0
  1  2  2  0  0  0
  2  3  1  0  0  0
  3  4  2  0  0  0
  4  5  1  0  0  0
  5  6  1  0  0  0
  6  7  1  0  0  0
  7  8  1  0  0  0
  8  9  2  0  0  0
  8 10  1  0  0  0
 10 15  1  0  0  0
 15 16  1  0  0  0
 16 17  1  0  0  0
 17 18  1  0  0  0
 18 19  1  0  0  0
 19 20  1  0  0  0
 10 11  1  0  0  0
 11 12  2  0  0  0
 12 13  1  0  0  0
 13 14  1  0  0  0
 14  1  1  0  0  0
 14  5  2  0  0  0
 13  7  2  0  0  0
 20 15  1  0  0  0
M  END
> <minimizedAffinity>
-0.69646

> <CNNscore>
0.3502413034

> <CNNaffinity>
7.2028183937

> <CNN_VS>
2.5227243900

> <CNNaffinity_variance>
0.7653683424

$$$$
[H]c1nc2sc3c(=O)n(C4([H])C([H])([H])C([H])([H])C([H])([H])C([H])([H])C4([H])[H])c([H])nc3c2c(N(C([H])([H])[H])C([H])([H])[H])c1[H]


 23 26  0  0  0  0  0  0  0  0999 V2000
   10.2625   42.9345  129.8209 C   0  0  0  0  0  0  0  0  0  0  0  0
   10.9598   41.9003  130.4122 C   0  0  0  0  0  0  0  0  0  0  0  0
   11.3873   41.8871  131.7197 C   0  0  0  0  0  0  0  0  0  0  0  0
   11.0786   42.9845  132.4310 N   0  0  0  0  0  0  0  0  0  0  0  0
   10.3886   44.0411  131.8934 C   0  0  0  0  0  0  0  0  0  0  0  0
    9.8699   45.5399  132.5229 S   0  0  0  0  0  0  0  0  0  0  0  0
    9.1177   46.1776  131.1337 C   0  0  0  0  0  0  0  0  0  0  0  0
    8.4490   47.3779  130.8235 C   0  0  0  0  0  0  0  0  0  0  0  0
    8.3605   48.1884  131.7656 O   0  0  0  0  0  0  0  0  0  0  0  0
    7.9535   47.6076  129.5989 N   0  0  0  0  0  0  0  0  0  0  0  0
    8.1344   46.6301  128.6979 C   0  0  0  0  0  0  0  0  0  0  0  0
    8.7618   45.4926  128.9728 N   0  0  0  0  0  0  0  0  0  0  0  0
    9.2917   45.1927  130.2025 C   0  0  0  0  0  0  0  0  0  0  0  0
    9.9539   44.0763  130.5959 C   0  0  0  0  0  0  0  0  0  0  0  0
    7.2760   48.8483  129.3216 C   0  0  0  0  0  0  0  0  0  0  0  0
    5.7825   48.6741  129.1994 C   0  0  0  0  0  0  0  0  0  0  0  0
    5.1972   49.9932  128.7859 C   0  0  0  0  0  0  0  0  0  0  0  0
    6.1699   51.1160  128.7484 C   0  0  0  0  0  0  0  0  0  0  0  0
    7.0892   51.1970  129.9253 C   0  0  0  0  0  0  0  0  0  0  0  0
    7.4746   49.8426  130.4737 C   0  0  0  0  0  0  0  0  0  0  0  0
    8.7109   42.0266  128.0201 C   0  0  0  0  0  0  0  0  0  0  0  0
    9.8672   42.7713  128.4709 N   0  0  0  0  0  0  0  0  0  0  0  0
   10.6917   43.4043  127.4591 C   0  0  0  0  0  0  0  0  0  0  0  0
 21 22  1  0  0  0
 22 23  1  0  0  0
 22  1  1  0  0  0
  1  2  2  0  0  0
  2  3  1  0  0  0
  3  4  2  0  0  0
  4  5  1  0  0  0
  5  6  1  0  0  0
  6  7  1  0  0  0
  7  8  1  0  0  0
  8  9  2  0  0  0
  8 10  1  0  0  0
 10 15  1  0  0  0
 15 16  1  0  0  0
 16 17  1  0  0  0
 17 18  1  0  0  0
 18 19  1  0  0  0
 19 20  1  0  0  0
 10 11  1  0  0  0
 11 12  2  0  0  0
 12 13  1  0  0  0
 13 14  1  0  0  0
 14  1  1  0  0  0
 14  5  2  0  0  0
 13  7  2  0  0  0
 20 15  1  0  0  0
M  END
> <minimizedAffinity>
5.33949

> <CNNscore>
0.3358574808

> <CNNaffinity>
6.7835760117

> <CNN_VS>
2.2783148289

> <CNNaffinity_variance>
0.4117072523

$$$$
[H]c1nc2sc3c(=O)n(C4([H])C([H])([H])C([H])([H])C([H])([H])C([H])([H])C4([H])[H])c([H])nc3c2c(N(C([H])([H])[H])C([H])([H])[H])c1[H]


 23 26  0  0  0  0  0  0  0  0999 V2000
    7.1519   49.1102  129.5557 C   0  0  0  0  0  0  0  0  0  0  0  0
    6.7286   50.4173  129.4225 C   0  0  0  0  0  0  0  0  0  0  0  0
    7.2059   51.4768  130.1590 C   0  0  0  0  0  0  0  0  0  0  0  0
    8.1519   51.1637  131.0603 N   0  0  0  0  0  0  0  0  0  0  0  0
    8.6083   49.8820  131.2346 C   0  0  0  0  0  0  0  0  0  0  0  0
    9.7637   49.1847  132.2789 S   0  0  0  0  0  0  0  0  0  0  0  0
    9.6384   47.5594  131.7836 C   0  0  0  0  0  0  0  0  0  0  0  0
   10.2547   46.3509  132.1626 C   0  0  0  0  0  0  0  0  0  0  0  0
   11.1042   46.4558  133.0679 O   0  0  0  0  0  0  0  0  0  0  0  0
    9.9342   45.1875  131.5779 N   0  0  0  0  0  0  0  0  0  0  0  0
    8.9982   45.2490  130.6187 C   0  0  0  0  0  0  0  0  0  0  0  0
    8.4072   46.3791  130.2486 N   0  0  0  0  0  0  0  0  0  0  0  0
    8.6871   47.6024  130.8035 C   0  0  0  0  0  0  0  0  0  0  0  0
    8.1481   48.8130  130.5141 C   0  0  0  0  0  0  0  0  0  0  0  0
   10.5875   43.9729  131.9940 C   0  0  0  0  0  0  0  0  0  0  0  0
   10.1465   42.7764  131.1880 C   0  0  0  0  0  0  0  0  0  0  0  0
   10.7864   41.5571  131.7859 C   0  0  0  0  0  0  0  0  0  0  0  0
   11.7599   41.8401  132.8723 C   0  0  0  0  0  0  0  0  0  0  0  0
   12.7148   42.9565  132.5919 C   0  0  0  0  0  0  0  0  0  0  0  0
   12.1035   44.0716  131.7757 C   0  0  0  0  0  0  0  0  0  0  0  0
    5.4757   47.2704  129.0268 C   0  0  0  0  0  0  0  0  0  0  0  0
    6.5796   48.1446  128.6924 N   0  0  0  0  0  0  0  0  0  0  0  0
    7.1493   48.0246  127.3637 C   0  0  0  0  0  0  0  0  0  0  0  0
 21 22  1  0  0  0
 22 23  1  0  0  0
 22  1  1  0  0  0
  1  2  2  0  0  0
  2  3  1  0  0  0
  3  4  2  0  0  0
  4  5  1  0  0  0
  5  6  1  0  0  0
  6  7  1  0  0  0
  7  8  1  0  0  0
  8  9  2  0  0  0
  8 10  1  0  0  0
 10 15  1  0  0  0
 15 16  1  0  0  0
 16 17  1  0  0  0
 17 18  1  0  0  0
 18 19  1  0  0  0
 19 20  1  0  0  0
 10 11  1  0  0  0
 11 12  2  0  0  0
 12 13  1  0  0  0
 13 14  1  0  0  0
 14  1  1  0  0  0
 14  5  2  0  0  0
 13  7  2  0  0  0
 20 15  1  0  0  0
M  END
> <minimizedAffinity>
-0.74436

> <CNNscore>
0.3336859047

> <CNNaffinity>
7.2555465698

> <CNN_VS>
2.4210736752

> <CNNaffinity_variance>
0.4645371437

$$$$
[H]c1nc2sc3c(=O)n(C4([H])C([H])([H])C([H])([H])C([H])([H])C([H])([H])C4([H])[H])c([H])nc3c2c(N(C([H])([H])[H])C([H])([H])[H])c1[H]


 23 26  0  0  0  0  0  0  0  0999 V2000
    6.5884   48.7679  129.6524 C   0  0  0  0  0  0  0  0  0  0  0  0
    5.9572   49.9123  129.2081 C   0  0  0  0  0  0  0  0  0  0  0  0
    6.3538   51.1952  129.5074 C   0  0  0  0  0  0  0  0  0  0  0  0
    7.4401   51.2869  130.2929 N   0  0  0  0  0  0  0  0  0  0  0  0
    8.1050   50.1831  130.7628 C   0  0  0  0  0  0  0  0  0  0  0  0
    9.4729   49.9803  131.7626 S   0  0  0  0  0  0  0  0  0  0  0  0
    9.5376   48.2783  131.8005 C   0  0  0  0  0  0  0  0  0  0  0  0
   10.3731   47.3253  132.4150 C   0  0  0  0  0  0  0  0  0  0  0  0
   11.3014   47.8020  133.0958 O   0  0  0  0  0  0  0  0  0  0  0  0
   10.1648   46.0094  132.2636 N   0  0  0  0  0  0  0  0  0  0  0  0
    9.1197   45.6633  131.4968 C   0  0  0  0  0  0  0  0  0  0  0  0
    8.3220   46.5479  130.9099 N   0  0  0  0  0  0  0  0  0  0  0  0
    8.4777   47.9065  131.0221 C   0  0  0  0  0  0  0  0  0  0  0  0
    7.7285   48.8980  130.4786 C   0  0  0  0  0  0  0  0  0  0  0  0
   11.0423   45.0665  132.9087 C   0  0  0  0  0  0  0  0  0  0  0  0
   10.5467   44.6596  134.2742 C   0  0  0  0  0  0  0  0  0  0  0  0
   11.5924   43.7843  134.9018 C   0  0  0  0  0  0  0  0  0  0  0  0
   12.7260   43.4369  134.0060 C   0  0  0  0  0  0  0  0  0  0  0  0
   12.3364   43.0272  132.6214 C   0  0  0  0  0  0  0  0  0  0  0  0
   11.1229   43.7630  132.1024 C   0  0  0  0  0  0  0  0  0  0  0  0
    4.7674   46.9928  129.5679 C   0  0  0  0  0  0  0  0  0  0  0  0
    6.0687   47.5231  129.2215 N   0  0  0  0  0  0  0  0  0  0  0  0
    6.9131   46.7156  128.3617 C   0  0  0  0  0  0  0  0  0  0  0  0
 21 22  1  0  0  0
 22 23  1  0  0  0
 22  1  1  0  0  0
  1  2  2  0  0  0
  2  3  1  0  0  0
  3  4  2  0  0  0
  4  5  1  0  0  0
  5  6  1  0  0  0
  6  7  1  0  0  0
  7  8  1  0  0  0
  8  9  2  0  0  0
  8 10  1  0  0  0
 10 15  1  0  0  0
 15 16  1  0  0  0
 16 17  1  0  0  0
 17 18  1  0  0  0
 18 19  1  0  0  0
 19 20  1  0  0  0
 10 11  1  0  0  0
 11 12  2  0  0  0
 12 13  1  0  0  0
 13 14  1  0  0  0
 14  1  1  0  0  0
 14  5  2  0  0  0
 13  7  2  0  0  0
 20 15  1  0  0  0
M  END
> <minimizedAffinity>
-1.92068

> <CNNscore>
0.2994794548

> <CNNaffinity>
7.0959978104

> <CNN_VS>
2.1251056194

> <CNNaffinity_variance>
0.2407004833

$$$$
[H]c1nc2sc3c(=O)n(C4([H])C([H])([H])C([H])([H])C([H])([H])C([H])([H])C4([H])[H])c([H])nc3c2c(N(C([H])([H])[H])C([H])([H])[H])c1[H]


 23 26  0  0  0  0  0  0  0  0999 V2000
   10.2649   42.5854  130.7392 C   0  0  0  0  0  0  0  0  0  0  0  0
   11.0930   41.6387  131.3078 C   0  0  0  0  0  0  0  0  0  0  0  0
   11.8974   41.8541  132.4028 C   0  0  0  0  0  0  0  0  0  0  0  0
   11.8363   43.0929  132.9195 N   0  0  0  0  0  0  0  0  0  0  0  0
   11.0317   44.0716  132.3941 C   0  0  0  0  0  0  0  0  0  0  0  0
   10.7518   45.7028  132.8100 S   0  0  0  0  0  0  0  0  0  0  0  0
    9.6228   46.1066  131.5997 C   0  0  0  0  0  0  0  0  0  0  0  0
    8.9098   47.2696  131.2488 C   0  0  0  0  0  0  0  0  0  0  0  0
    9.1242   48.2571  131.9777 O   0  0  0  0  0  0  0  0  0  0  0  0
    8.0691   47.2877  130.2043 N   0  0  0  0  0  0  0  0  0  0  0  0
    7.9527   46.1380  129.5226 C   0  0  0  0  0  0  0  0  0  0  0  0
    8.6166   45.0325  129.8392 N   0  0  0  0  0  0  0  0  0  0  0  0
    9.4905   44.9442  130.8934 C   0  0  0  0  0  0  0  0  0  0  0  0
   10.2239   43.8803  131.3057 C   0  0  0  0  0  0  0  0  0  0  0  0
    7.3583   48.4974  129.8779 C   0  0  0  0  0  0  0  0  0  0  0  0
    5.9245   48.2358  129.4887 C   0  0  0  0  0  0  0  0  0  0  0  0
    5.3217   49.5382  129.0486 C   0  0  0  0  0  0  0  0  0  0  0  0
    6.2005   50.7213  129.2392 C   0  0  0  0  0  0  0  0  0  0  0  0
    6.8977   50.7859  130.5607 C   0  0  0  0  0  0  0  0  0  0  0  0
    7.2837   49.4269  131.0969 C   0  0  0  0  0  0  0  0  0  0  0  0
    9.9491   42.0449  128.2729 C   0  0  0  0  0  0  0  0  0  0  0  0
    9.4755   42.1867  129.6331 N   0  0  0  0  0  0  0  0  0  0  0  0
    8.0772   41.8971  129.8885 C   0  0  0  0  0  0  0  0  0  0  0  0
 21 22  1  0  0  0
 22 23  1  0  0  0
 22  1  1  0  0  0
  1  2  2  0  0  0
  2  3  1  0  0  0
  3  4  2  0  0  0
  4  5  1  0  0  0
  5  6  1  0  0  0
  6  7  1  0  0  0
  7  8  1  0  0  0
  8  9  2  0  0  0
  8 10  1  0  0  0
 10 15  1  0  0  0
 15 16  1  0  0  0
 16 17  1  0  0  0
 17 18  1  0  0  0
 18 19  1  0  0  0
 19 20  1  0  0  0
 10 11  1  0  0  0
 11 12  2  0  0  0
 12 13  1  0  0  0
 13 14  1  0  0  0
 14  1  1  0  0  0
 14  5  2  0  0  0
 13  7  2  0  0  0
 20 15  1  0  0  0
M  END
> <minimizedAffinity>
1.37564

> <CNNscore>
0.2504866123

> <CNNaffinity>
6.9408020973

> <CNN_VS>
1.7385779619

> <CNNaffinity_variance>
0.3852692246

$$$$
[H]c1c([H])c(-c2c(C([H])([H])C([H])([H])[H])c(C3=NC4(C(=O)N3[H])C([H])([H])C([H])([H])C4([H])[H])nn2-c2c([H])c([H])c(Cl)c([H])c2Cl)c([H])c([H])c1Cl


 32 36  0  0  0  0  0  0  0  0999 V2000
    8.6981   47.4262  131.4884 C   0  0  0  0  0  0  0  0  0  0  0  0
    7.9242   47.6043  130.3821 C   0  0  0  0  0  0  0  0  0  0  0  0
    8.0262   46.4049  129.7259 N   0  0  0  0  0  0  0  0  0  0  0  0
    8.7966   45.5525  130.3758 N   0  0  0  0  0  0  0  0  0  0  0  0
    9.2448   46.1263  131.4874 C   0  0  0  0  0  0  0  0  0  0  0  0
    7.0962   48.6974  129.9012 C   0  0  0  0  0  0  0  0  0  0  0  0
    7.6327   49.8728  129.5722 N   0  0  0  0  0  0  0  0  0  0  0  0
    6.6585   50.7988  129.1290 C   0  0  0  0  0  0  0  0  0  0  0  0
    6.9325   51.4848  127.8098 C   0  0  0  0  0  0  0  0  0  0  0  0
    7.2736   52.7348  128.5645 C   0  0  0  0  0  0  0  0  0  0  0  0
    6.6430   52.1479  129.8049 C   0  0  0  0  0  0  0  0  0  0  0  0
    5.3704   50.0892  129.1496 C   0  0  0  0  0  0  0  0  0  0  0  0
    4.2245   50.4674  128.8208 O   0  0  0  0  0  0  0  0  0  0  0  0
    5.7205   48.7729  129.6631 N   0  0  0  0  0  0  0  0  0  0  0  0
    4.9765   48.0563  129.7919 H   0  0  0  0  0  0  0  0  0  0  0  0
    9.0725   44.2245  129.9283 C   0  0  0  0  0  0  0  0  0  0  0  0
    8.5453   43.0857  130.5317 C   0  0  0  0  0  0  0  0  0  0  0  0
    8.8573   41.8265  130.0870 C   0  0  0  0  0  0  0  0  0  0  0  0
    9.7041   41.6554  129.0273 C   0  0  0  0  0  0  0  0  0  0  0  0
   10.1443   40.0763  128.4076 Cl  0  0  0  0  0  0  0  0  0  0  0  0
   10.2431   42.7548  128.4086 C   0  0  0  0  0  0  0  0  0  0  0  0
    9.9190   44.0419  128.8706 C   0  0  0  0  0  0  0  0  0  0  0  0
   10.6811   45.4070  128.0573 Cl  0  0  0  0  0  0  0  0  0  0  0  0
    9.9712   45.5383  132.5947 C   0  0  0  0  0  0  0  0  0  0  0  0
   11.1890   44.9419  132.4057 C   0  0  0  0  0  0  0  0  0  0  0  0
   11.8288   44.2697  133.4393 C   0  0  0  0  0  0  0  0  0  0  0  0
   11.2784   44.1691  134.6963 C   0  0  0  0  0  0  0  0  0  0  0  0
   12.0728   43.3264  136.0101 Cl  0  0  0  0  0  0  0  0  0  0  0  0
   10.0518   44.7653  134.8997 C   0  0  0  0  0  0  0  0  0  0  0  0
    9.4278   45.4287  133.8611 C   0  0  0  0  0  0  0  0  0  0  0  0
   10.2541   49.2831  131.9402 C   0  0  0  0  0  0  0  0  0  0  0  0
    8.9962   48.5260  132.4626 C   0  0  0  0  0  0  0  0  0  0  0  0
 31 32  1  0  0  0
 32  1  1  0  0  0
  1  2  1  0  0  0
  2  6  1  0  0  0
  6  7  2  0  0  0
  7  8  1  0  0  0
  8  9  1  0  0  0
  9 10  1  0  0  0
 10 11  1  0  0  0
  8 12  1  0  0  0
 12 13  2  0  0  0
 12 14  1  0  0  0
  2  3  2  0  0  0
  3  4  1  0  0  0
  4 16  1  0  0  0
 16 17  2  0  0  0
 17 18  1  0  0  0
 18 19  2  0  0  0
 19 20  1  0  0  0
 19 21  1  0  0  0
 21 22  2  0  0  0
 22 23  1  0  0  0
  4  5  1  0  0  0
  5 24  1  0  0  0
 24 25  2  0  0  0
 25 26  1  0  0  0
 26 27  2  0  0  0
 27 28  1  0  0  0
 27 29  1  0  0  0
 29 30  2  0  0  0
  5  1  2  0  0  0
 30 24  1  0  0  0
 14  6  1  0  0  0
 22 16  1  0  0  0
 11  8  1  0  0  0
 14 15  1  0  0  0
M  END
> <minimizedAffinity>
7.72689

> <CNNscore>
0.4819359183

> <CNNaffinity>
8.0989055634

> <CNN_VS>
3.9031534195

> <CNNaffinity_variance>
0.9957872629

$$$$
[H]c1c([H])c(-c2c(C([H])([H])C([H])([H])[H])c(C3=NC4(C(=O)N3[H])C([H])([H])C([H])([H])C4([H])[H])nn2-c2c([H])c([H])c(Cl)c([H])c2Cl)c([H])c([H])c1Cl


 32 36  0  0  0  0  0  0  0  0999 V2000
    7.9995   46.8655  129.6193 C   0  0  0  0  0  0  0  0  0  0  0  0
    7.9804   47.9990  130.3739 C   0  0  0  0  0  0  0  0  0  0  0  0
    8.8787   47.7304  131.3743 N   0  0  0  0  0  0  0  0  0  0  0  0
    9.4135   46.5304  131.2461 N   0  0  0  0  0  0  0  0  0  0  0  0
    8.9105   45.9392  130.1676 C   0  0  0  0  0  0  0  0  0  0  0  0
    7.2881   49.2712  130.2575 C   0  0  0  0  0  0  0  0  0  0  0  0
    7.6236   50.1528  129.3152 N   0  0  0  0  0  0  0  0  0  0  0  0
    6.8307   51.3236  129.3728 C   0  0  0  0  0  0  0  0  0  0  0  0
    6.1817   51.7618  128.0795 C   0  0  0  0  0  0  0  0  0  0  0  0
    7.1893   52.8680  127.9833 C   0  0  0  0  0  0  0  0  0  0  0  0
    7.5638   52.6413  129.4286 C   0  0  0  0  0  0  0  0  0  0  0  0
    5.8612   51.1162  130.4593 C   0  0  0  0  0  0  0  0  0  0  0  0
    4.9354   51.8455  130.8777 O   0  0  0  0  0  0  0  0  0  0  0  0
    6.2196   49.8063  130.9835 N   0  0  0  0  0  0  0  0  0  0  0  0
    5.6871   49.4098  131.7853 H   0  0  0  0  0  0  0  0  0  0  0  0
   10.3872   45.9907  132.1409 C   0  0  0  0  0  0  0  0  0  0  0  0
   11.7419   45.8941  131.8343 C   0  0  0  0  0  0  0  0  0  0  0  0
   12.6404   45.3440  132.7124 C   0  0  0  0  0  0  0  0  0  0  0  0
   12.2236   44.8709  133.9255 C   0  0  0  0  0  0  0  0  0  0  0  0
   13.3173   44.1572  135.0941 Cl  0  0  0  0  0  0  0  0  0  0  0  0
   10.8958   44.9489  134.2612 C   0  0  0  0  0  0  0  0  0  0  0  0
    9.9811   45.5135  133.3559 C   0  0  0  0  0  0  0  0  0  0  0  0
    8.2852   45.5421  133.8342 Cl  0  0  0  0  0  0  0  0  0  0  0  0
    9.3125   44.7030  129.5276 C   0  0  0  0  0  0  0  0  0  0  0  0
   10.0646   44.7099  128.3835 C   0  0  0  0  0  0  0  0  0  0  0  0
   10.3458   43.5335  127.7006 C   0  0  0  0  0  0  0  0  0  0  0  0
    9.8886   42.3102  128.1337 C   0  0  0  0  0  0  0  0  0  0  0  0
   10.2354   40.8181  127.2849 Cl  0  0  0  0  0  0  0  0  0  0  0  0
    9.1296   42.2895  129.2847 C   0  0  0  0  0  0  0  0  0  0  0  0
    8.8575   43.4684  129.9515 C   0  0  0  0  0  0  0  0  0  0  0  0
    5.6477   47.0790  128.9146 C   0  0  0  0  0  0  0  0  0  0  0  0
    7.0725   46.6380  128.4632 C   0  0  0  0  0  0  0  0  0  0  0  0
 31 32  1  0  0  0
 32  1  1  0  0  0
  1  2  1  0  0  0
  2  6  1  0  0  0
  6  7  2  0  0  0
  7  8  1  0  0  0
  8  9  1  0  0  0
  9 10  1  0  0  0
 10 11  1  0  0  0
  8 12  1  0  0  0
 12 13  2  0  0  0
 12 14  1  0  0  0
  2  3  2  0  0  0
  3  4  1  0  0  0
  4 16  1  0  0  0
 16 17  2  0  0  0
 17 18  1  0  0  0
 18 19  2  0  0  0
 19 20  1  0  0  0
 19 21  1  0  0  0
 21 22  2  0  0  0
 22 23  1  0  0  0
  4  5  1  0  0  0
  5 24  1  0  0  0
 24 25  2  0  0  0
 25 26  1  0  0  0
 26 27  2  0  0  0
 27 28  1  0  0  0
 27 29  1  0  0  0
 29 30  2  0  0  0
  5  1  2  0  0  0
 30 24  1  0  0  0
 14  6  1  0  0  0
 22 16  1  0  0  0
 11  8  1  0  0  0
 14 15  1  0  0  0
M  END
> <minimizedAffinity>
10.83012

> <CNNscore>
0.4525421262

> <CNNaffinity>
8.0411376953

> <CNN_VS>
3.6389534473

> <CNNaffinity_variance>
1.0588589907

$$$$
[H]c1c([H])c(-c2c(C([H])([H])C([H])([H])[H])c(C3=NC4(C(=O)N3[H])C([H])([H])C([H])([H])C4([H])[H])nn2-c2c([H])c([H])c(Cl)c([H])c2Cl)c([H])c([H])c1Cl


 32 36  0  0  0  0  0  0  0  0999 V2000
   10.0886   48.2743  131.7488 C   0  0  0  0  0  0  0  0  0  0  0  0
    9.0829   47.9985  130.8729 C   0  0  0  0  0  0  0  0  0  0  0  0
    9.0889   46.6293  130.8024 N   0  0  0  0  0  0  0  0  0  0  0  0
   10.0194   46.1010  131.5755 N   0  0  0  0  0  0  0  0  0  0  0  0
   10.6767   47.0739  132.1978 C   0  0  0  0  0  0  0  0  0  0  0  0
    8.1234   48.8200  130.1547 C   0  0  0  0  0  0  0  0  0  0  0  0
    6.8280   48.5049  130.1339 N   0  0  0  0  0  0  0  0  0  0  0  0
    6.0656   49.4299  129.3816 C   0  0  0  0  0  0  0  0  0  0  0  0
    4.8436   50.0054  130.0610 C   0  0  0  0  0  0  0  0  0  0  0  0
    3.9871   49.1280  129.1978 C   0  0  0  0  0  0  0  0  0  0  0  0
    5.1749   48.8623  128.3038 C   0  0  0  0  0  0  0  0  0  0  0  0
    7.0042   50.4632  128.9186 C   0  0  0  0  0  0  0  0  0  0  0  0
    6.8102   51.5013  128.2486 O   0  0  0  0  0  0  0  0  0  0  0  0
    8.2875   50.0046  129.4303 N   0  0  0  0  0  0  0  0  0  0  0  0
    9.1471   50.5580  129.2339 H   0  0  0  0  0  0  0  0  0  0  0  0
   10.2463   44.6969  131.7058 C   0  0  0  0  0  0  0  0  0  0  0  0
    9.7565   43.9346  132.7630 C   0  0  0  0  0  0  0  0  0  0  0  0
   10.0204   42.5927  132.8647 C   0  0  0  0  0  0  0  0  0  0  0  0
   10.7802   41.9618  131.9193 C   0  0  0  0  0  0  0  0  0  0  0  0
   11.1551   40.2513  131.9874 Cl  0  0  0  0  0  0  0  0  0  0  0  0
   11.2803   42.6816  130.8638 C   0  0  0  0  0  0  0  0  0  0  0  0
   11.0060   44.0565  130.7669 C   0  0  0  0  0  0  0  0  0  0  0  0
   11.7161   44.9275  129.4094 Cl  0  0  0  0  0  0  0  0  0  0  0  0
   11.6537   46.9847  133.2640 C   0  0  0  0  0  0  0  0  0  0  0  0
   11.6387   47.8639  134.3135 C   0  0  0  0  0  0  0  0  0  0  0  0
   12.6458   47.8590  135.2702 C   0  0  0  0  0  0  0  0  0  0  0  0
   13.7015   46.9783  135.2151 C   0  0  0  0  0  0  0  0  0  0  0  0
   14.9781   46.9587  136.4139 Cl  0  0  0  0  0  0  0  0  0  0  0  0
   13.7285   46.0878  134.1628 C   0  0  0  0  0  0  0  0  0  0  0  0
   12.7202   46.1063  133.2187 C   0  0  0  0  0  0  0  0  0  0  0  0
    9.5244   50.2871  133.0541 C   0  0  0  0  0  0  0  0  0  0  0  0
   10.5468   49.6689  132.0537 C   0  0  0  0  0  0  0  0  0  0  0  0
 31 32  1  0  0  0
 32  1  1  0  0  0
  1  2  1  0  0  0
  2  6  1  0  0  0
  6  7  2  0  0  0
  7  8  1  0  0  0
  8  9  1  0  0  0
  9 10  1  0  0  0
 10 11  1  0  0  0
  8 12  1  0  0  0
 12 13  2  0  0  0
 12 14  1  0  0  0
  2  3  2  0  0  0
  3  4  1  0  0  0
  4 16  1  0  0  0
 16 17  2  0  0  0
 17 18  1  0  0  0
 18 19  2  0  0  0
 19 20  1  0  0  0
 19 21  1  0  0  0
 21 22  2  0  0  0
 22 23  1  0  0  0
  4  5  1  0  0  0
  5 24  1  0  0  0
 24 25  2  0  0  0
 25 26  1  0  0  0
 26 27  2  0  0  0
 27 28  1  0  0  0
 27 29  1  0  0  0
 29 30  2  0  0  0
  5  1  2  0  0  0
 30 24  1  0  0  0
 14  6  1  0  0  0
 22 16  1  0  0  0
 11  8  1  0  0  0
 14 15  1  0  0  0
M  END
> <minimizedAffinity>
11.99618

> <CNNscore>
0.4463805556

> <CNNaffinity>
8.2046298981

> <CNN_VS>
3.6623873711

> <CNNaffinity_variance>
1.9074850082

$$$$
[H]c1c([H])c(-c2c(C([H])([H])C([H])([H])[H])c(C3=NC4(C(=O)N3[H])C([H])([H])C([H])([H])C4([H])[H])nn2-c2c([H])c([H])c(Cl)c([H])c2Cl)c([H])c([H])c1Cl


 32 36  0  0  0  0  0  0  0  0999 V2000
    8.4840   45.9660  131.0840 C   0  0  0  0  0  0  0  0  0  0  0  0
    8.3270   47.3187  131.0890 C   0  0  0  0  0  0  0  0  0  0  0  0
    9.3248   47.7520  131.9233 N   0  0  0  0  0  0  0  0  0  0  0  0
   10.0438   46.7492  132.3925 N   0  0  0  0  0  0  0  0  0  0  0  0
    9.5738   45.6064  131.9036 C   0  0  0  0  0  0  0  0  0  0  0  0
    7.4240   48.2273  130.4028 C   0  0  0  0  0  0  0  0  0  0  0  0
    7.7955   49.4734  130.1081 N   0  0  0  0  0  0  0  0  0  0  0  0
    6.7739   50.1916  129.4422 C   0  0  0  0  0  0  0  0  0  0  0  0
    7.1659   50.8841  128.1566 C   0  0  0  0  0  0  0  0  0  0  0  0
    7.1307   52.1937  128.8860 C   0  0  0  0  0  0  0  0  0  0  0  0
    6.3916   51.5305  130.0238 C   0  0  0  0  0  0  0  0  0  0  0  0
    5.6520   49.2561  129.2706 C   0  0  0  0  0  0  0  0  0  0  0  0
    4.5403   49.4071  128.7179 O   0  0  0  0  0  0  0  0  0  0  0  0
    6.1269   48.0405  129.9153 N   0  0  0  0  0  0  0  0  0  0  0  0
    5.5113   47.2017  129.9489 H   0  0  0  0  0  0  0  0  0  0  0  0
   11.1541   46.9081  133.2767 C   0  0  0  0  0  0  0  0  0  0  0  0
   12.0904   45.9070  133.5215 C   0  0  0  0  0  0  0  0  0  0  0  0
   13.1276   46.0917  134.3995 C   0  0  0  0  0  0  0  0  0  0  0  0
   13.2703   47.2777  135.0646 C   0  0  0  0  0  0  0  0  0  0  0  0
   14.5715   47.5810  136.1986 Cl  0  0  0  0  0  0  0  0  0  0  0  0
   12.3659   48.2864  134.8488 C   0  0  0  0  0  0  0  0  0  0  0  0
   11.3054   48.0893  133.9480 C   0  0  0  0  0  0  0  0  0  0  0  0
   10.1566   49.4113  133.7520 Cl  0  0  0  0  0  0  0  0  0  0  0  0
   10.1326   44.2725  131.9912 C   0  0  0  0  0  0  0  0  0  0  0  0
   11.0496   43.8275  131.0770 C   0  0  0  0  0  0  0  0  0  0  0  0
   11.4927   42.5111  131.0852 C   0  0  0  0  0  0  0  0  0  0  0  0
   11.0387   41.5931  132.0040 C   0  0  0  0  0  0  0  0  0  0  0  0
   11.5883   39.9304  132.0283 Cl  0  0  0  0  0  0  0  0  0  0  0  0
   10.1145   42.0285  132.9301 C   0  0  0  0  0  0  0  0  0  0  0  0
    9.6827   43.3405  132.9078 C   0  0  0  0  0  0  0  0  0  0  0  0
    8.2612   44.4589  129.1470 C   0  0  0  0  0  0  0  0  0  0  0  0
    7.5305   45.0353  130.3968 C   0  0  0  0  0  0  0  0  0  0  0  0
 31 32  1  0  0  0
 32  1  1  0  0  0
  1  2  1  0  0  0
  2  6  1  0  0  0
  6  7  2  0  0  0
  7  8  1  0  0  0
  8  9  1  0  0  0
  9 10  1  0  0  0
 10 11  1  0  0  0
  8 12  1  0  0  0
 12 13  2  0  0  0
 12 14  1  0  0  0
  2  3  2  0  0  0
  3  4  1  0  0  0
  4 16  1  0  0  0
 16 17  2  0  0  0
 17 18  1  0  0  0
 18 19  2  0  0  0
 19 20  1  0  0  0
 19 21  1  0  0  0
 21 22  2  0  0  0
 22 23  1  0  0  0
  4  5  1  0  0  0
  5 24  1  0  0  0
 24 25  2  0  0  0
 25 26  1  0  0  0
 26 27  2  0  0  0
 27 28  1  0  0  0
 27 29  1  0  0  0
 29 30  2  0  0  0
  5  1  2  0  0  0
 30 24  1  0  0  0
 14  6  1  0  0  0
 22 16  1  0  0  0
 11  8  1  0  0  0
 14 15  1  0  0  0
M  END
> <minimizedAffinity>
10.67781

> <CNNscore>
0.4315161109

> <CNNaffinity>
8.3206672668

> <CNN_VS>
3.5905020237

> <CNNaffinity_variance>
3.1217422485

$$$$
[H]c1c([H])c(-c2c(C([H])([H])C([H])([H])[H])c(C3=NC4(C(=O)N3[H])C([H])([H])C([H])([H])C4([H])[H])nn2-c2c([H])c([H])c(Cl)c([H])c2Cl)c([H])c([H])c1Cl


 32 36  0  0  0  0  0  0  0  0999 V2000
    9.8247   47.7395  131.3763 C   0  0  0  0  0  0  0  0  0  0  0  0
    8.7860   47.3011  130.6125 C   0  0  0  0  0  0  0  0  0  0  0  0
    8.9239   45.9374  130.6402 N   0  0  0  0  0  0  0  0  0  0  0  0
    9.9607   45.5624  131.3661 N   0  0  0  0  0  0  0  0  0  0  0  0
   10.5639   46.6394  131.8580 C   0  0  0  0  0  0  0  0  0  0  0  0
    7.6952   47.9687  129.9225 C   0  0  0  0  0  0  0  0  0  0  0  0
    7.4317   49.2578  130.1385 N   0  0  0  0  0  0  0  0  0  0  0  0
    6.3338   49.7140  129.3709 C   0  0  0  0  0  0  0  0  0  0  0  0
    6.5547   50.9713  128.5607 C   0  0  0  0  0  0  0  0  0  0  0  0
    5.7240   51.7237  129.5568 C   0  0  0  0  0  0  0  0  0  0  0  0
    5.2241   50.4134  130.1170 C   0  0  0  0  0  0  0  0  0  0  0  0
    5.8963   48.5735  128.5518 C   0  0  0  0  0  0  0  0  0  0  0  0
    4.9886   48.4833  127.6961 O   0  0  0  0  0  0  0  0  0  0  0  0
    6.7905   47.5014  128.9643 N   0  0  0  0  0  0  0  0  0  0  0  0
    6.6913   46.5565  128.5390 H   0  0  0  0  0  0  0  0  0  0  0  0
   10.3371   44.2008  131.5767 C   0  0  0  0  0  0  0  0  0  0  0  0
   11.1294   43.4770  130.6897 C   0  0  0  0  0  0  0  0  0  0  0  0
   11.4457   42.1619  130.9165 C   0  0  0  0  0  0  0  0  0  0  0  0
   10.9854   41.5207  132.0329 C   0  0  0  0  0  0  0  0  0  0  0  0
   11.3516   39.8434  132.3845 Cl  0  0  0  0  0  0  0  0  0  0  0  0
   10.2013   42.2025  132.9287 C   0  0  0  0  0  0  0  0  0  0  0  0
    9.8812   43.5497  132.6889 C   0  0  0  0  0  0  0  0  0  0  0  0
    8.8344   44.3510  133.8585 Cl  0  0  0  0  0  0  0  0  0  0  0  0
   11.6259   46.7280  132.8396 C   0  0  0  0  0  0  0  0  0  0  0  0
   12.7669   45.9810  132.7179 C   0  0  0  0  0  0  0  0  0  0  0  0
   13.7298   45.9706  133.7189 C   0  0  0  0  0  0  0  0  0  0  0  0
   13.5901   46.7040  134.8747 C   0  0  0  0  0  0  0  0  0  0  0  0
   14.7955   46.7025  136.1453 Cl  0  0  0  0  0  0  0  0  0  0  0  0
   12.4453   47.4604  135.0098 C   0  0  0  0  0  0  0  0  0  0  0  0
   11.4963   47.4589  134.0058 C   0  0  0  0  0  0  0  0  0  0  0  0
    9.4946   49.6795  132.8598 C   0  0  0  0  0  0  0  0  0  0  0  0
   10.1632   49.1908  131.5397 C   0  0  0  0  0  0  0  0  0  0  0  0
 31 32  1  0  0  0
 32  1  1  0  0  0
  1  2  1  0  0  0
  2  6  1  0  0  0
  6  7  2  0  0  0
  7  8  1  0  0  0
  8  9  1  0  0  0
  9 10  1  0  0  0
 10 11  1  0  0  0
  8 12  1  0  0  0
 12 13  2  0  0  0
 12 14  1  0  0  0
  2  3  2  0  0  0
  3  4  1  0  0  0
  4 16  1  0  0  0
 16 17  2  0  0  0
 17 18  1  0  0  0
 18 19  2  0  0  0
 19 20  1  0  0  0
 19 21  1  0  0  0
 21 22  2  0  0  0
 22 23  1  0  0  0
  4  5  1  0  0  0
  5 24  1  0  0  0
 24 25  2  0  0  0
 25 26  1  0  0  0
 26 27  2  0  0  0
 27 28  1  0  0  0
 27 29  1  0  0  0
 29 30  2  0  0  0
  5  1  2  0  0  0
 30 24  1  0  0  0
 14  6  1  0  0  0
 22 16  1  0  0  0
 11  8  1  0  0  0
 14 15  1  0  0  0
M  END
> <minimizedAffinity>
14.53347

> <CNNscore>
0.4062524736

> <CNNaffinity>
8.0968084335

> <CNN_VS>
3.2893483639

> <CNNaffinity_variance>
1.3634235859

$$$$
[H]c1c([H])c(-c2c(C([H])([H])C([H])([H])[H])c(C3=NC4(C(=O)N3[H])C([H])([H])C([H])([H])C4([H])[H])nn2-c2c([H])c([H])c(Cl)c([H])c2Cl)c([H])c([H])c1Cl


 32 36  0  0  0  0  0  0  0  0999 V2000
    9.3921   47.1907  131.8972 C   0  0  0  0  0  0  0  0  0  0  0  0
    9.2321   47.7300  130.6569 C   0  0  0  0  0  0  0  0  0  0  0  0
   10.2028   47.1107  129.9129 N   0  0  0  0  0  0  0  0  0  0  0  0
   10.9033   46.2543  130.6331 N   0  0  0  0  0  0  0  0  0  0  0  0
   10.4451   46.2529  131.8804 C   0  0  0  0  0  0  0  0  0  0  0  0
    8.2925   48.6824  130.0897 C   0  0  0  0  0  0  0  0  0  0  0  0
    6.9782   48.4640  130.1390 N   0  0  0  0  0  0  0  0  0  0  0  0
    6.2404   49.5083  129.5324 C   0  0  0  0  0  0  0  0  0  0  0  0
    5.1167   50.1026  130.3511 C   0  0  0  0  0  0  0  0  0  0  0  0
    4.1370   49.3746  129.4802 C   0  0  0  0  0  0  0  0  0  0  0  0
    5.2361   49.1107  128.4787 C   0  0  0  0  0  0  0  0  0  0  0  0
    7.2228   50.5112  129.0939 C   0  0  0  0  0  0  0  0  0  0  0  0
    7.0649   51.6194  128.5360 O   0  0  0  0  0  0  0  0  0  0  0  0
    8.4985   49.9156  129.4638 N   0  0  0  0  0  0  0  0  0  0  0  0
    9.3832   50.4223  129.2533 H   0  0  0  0  0  0  0  0  0  0  0  0
   11.9722   45.4617  130.1143 C   0  0  0  0  0  0  0  0  0  0  0  0
   13.1190   45.1497  130.8396 C   0  0  0  0  0  0  0  0  0  0  0  0
   14.1350   44.4075  130.2941 C   0  0  0  0  0  0  0  0  0  0  0  0
   14.0466   43.9498  129.0089 C   0  0  0  0  0  0  0  0  0  0  0  0
   15.3065   42.9965  128.2505 Cl  0  0  0  0  0  0  0  0  0  0  0  0
   12.9313   44.2387  128.2640 C   0  0  0  0  0  0  0  0  0  0  0  0
   11.8946   45.0003  128.8299 C   0  0  0  0  0  0  0  0  0  0  0  0
   10.5116   45.3705  127.8023 Cl  0  0  0  0  0  0  0  0  0  0  0  0
   10.7740   45.3654  132.9775 C   0  0  0  0  0  0  0  0  0  0  0  0
    9.9076   44.3839  133.3785 C   0  0  0  0  0  0  0  0  0  0  0  0
   10.1647   43.6144  134.5059 C   0  0  0  0  0  0  0  0  0  0  0  0
   11.2933   43.7951  135.2720 C   0  0  0  0  0  0  0  0  0  0  0  0
   11.6324   42.8325  136.6953 Cl  0  0  0  0  0  0  0  0  0  0  0  0
   12.1738   44.7807  134.8790 C   0  0  0  0  0  0  0  0  0  0  0  0
   11.9030   45.5385  133.7562 C   0  0  0  0  0  0  0  0  0  0  0  0
    9.5614   48.5910  133.9180 C   0  0  0  0  0  0  0  0  0  0  0  0
    8.6227   47.6572  133.0963 C   0  0  0  0  0  0  0  0  0  0  0  0
 31 32  1  0  0  0
 32  1  1  0  0  0
  1  2  1  0  0  0
  2  6  1  0  0  0
  6  7  2  0  0  0
  7  8  1  0  0  0
  8  9  1  0  0  0
  9 10  1  0  0  0
 10 11  1  0  0  0
  8 12  1  0  0  0
 12 13  2  0  0  0
 12 14  1  0  0  0
  2  3  2  0  0  0
  3  4  1  0  0  0
  4 16  1  0  0  0
 16 17  2  0  0  0
 17 18  1  0  0  0
 18 19  2  0  0  0
 19 20  1  0  0  0
 19 21  1  0  0  0
 21 22  2  0  0  0
 22 23  1  0  0  0
  4  5  1  0  0  0
  5 24  1  0  0  0
 24 25  2  0  0  0
 25 26  1  0  0  0
 26 27  2  0  0  0
 27 28  1  0  0  0
 27 29  1  0  0  0
 29 30  2  0  0  0
  5  1  2  0  0  0
 30 24  1  0  0  0
 14  6  1  0  0  0
 22 16  1  0  0  0
 11  8  1  0  0  0
 14 15  1  0  0  0
M  END
> <minimizedAffinity>
6.73727

> <CNNscore>
0.4018647671

> <CNNaffinity>
8.1510753632

> <CNN_VS>
3.2756299973

> <CNNaffinity_variance>
2.0871934891

$$$$
[H]c1c([H])c(-c2c(C([H])([H])C([H])([H])[H])c(C3=NC4(C(=O)N3[H])C([H])([H])C([H])([H])C4([H])[H])nn2-c2c([H])c([H])c(Cl)c([H])c2Cl)c([H])c([H])c1Cl


 32 36  0  0  0  0  0  0  0  0999 V2000
    9.6385   47.6863  131.0849 C   0  0  0  0  0  0  0  0  0  0  0  0
    8.7214   47.8950  130.1000 C   0  0  0  0  0  0  0  0  0  0  0  0
    8.6799   46.6920  129.4437 N   0  0  0  0  0  0  0  0  0  0  0  0
    9.5010   45.8094  129.9818 N   0  0  0  0  0  0  0  0  0  0  0  0
   10.1269   46.3653  131.0138 C   0  0  0  0  0  0  0  0  0  0  0  0
    7.8774   49.0204  129.7359 C   0  0  0  0  0  0  0  0  0  0  0  0
    6.5659   49.0019  129.9752 N   0  0  0  0  0  0  0  0  0  0  0  0
    5.9281   50.1901  129.5461 C   0  0  0  0  0  0  0  0  0  0  0  0
    5.0452   50.8840  130.5586 C   0  0  0  0  0  0  0  0  0  0  0  0
    3.8455   50.3832  129.8113 C   0  0  0  0  0  0  0  0  0  0  0  0
    4.7318   50.0328  128.6399 C   0  0  0  0  0  0  0  0  0  0  0  0
    6.9871   51.0623  129.0157 C   0  0  0  0  0  0  0  0  0  0  0  0
    6.9327   52.2212  128.5487 O   0  0  0  0  0  0  0  0  0  0  0  0
    8.1889   50.2523  129.1525 N   0  0  0  0  0  0  0  0  0  0  0  0
    9.1045   50.6328  128.8355 H   0  0  0  0  0  0  0  0  0  0  0  0
    9.6563   44.4710  129.5080 C   0  0  0  0  0  0  0  0  0  0  0  0
   10.3099   44.1472  128.3220 C   0  0  0  0  0  0  0  0  0  0  0  0
   10.4135   42.8500  127.8892 C   0  0  0  0  0  0  0  0  0  0  0  0
    9.8712   41.8297  128.6200 C   0  0  0  0  0  0  0  0  0  0  0  0
    9.9676   40.1510  128.1263 Cl  0  0  0  0  0  0  0  0  0  0  0  0
    9.2192   42.1116  129.7937 C   0  0  0  0  0  0  0  0  0  0  0  0
    9.1166   43.4435  130.2303 C   0  0  0  0  0  0  0  0  0  0  0  0
    8.2283   43.7372  131.7237 Cl  0  0  0  0  0  0  0  0  0  0  0  0
   10.9806   45.7490  132.0091 C   0  0  0  0  0  0  0  0  0  0  0  0
   12.1509   45.1331  131.6547 C   0  0  0  0  0  0  0  0  0  0  0  0
   12.9075   44.4353  132.5875 C   0  0  0  0  0  0  0  0  0  0  0  0
   12.5253   44.3276  133.9049 C   0  0  0  0  0  0  0  0  0  0  0  0
   13.4686   43.4526  135.0931 Cl  0  0  0  0  0  0  0  0  0  0  0  0
   11.3482   44.9433  134.2747 C   0  0  0  0  0  0  0  0  0  0  0  0
   10.6064   45.6322  133.3348 C   0  0  0  0  0  0  0  0  0  0  0  0
    9.1380   48.8293  133.2100 C   0  0  0  0  0  0  0  0  0  0  0  0
   10.1172   48.7738  131.9991 C   0  0  0  0  0  0  0  0  0  0  0  0
 31 32  1  0  0  0
 32  1  1  0  0  0
  1  2  1  0  0  0
  2  6  1  0  0  0
  6  7  2  0  0  0
  7  8  1  0  0  0
  8  9  1  0  0  0
  9 10  1  0  0  0
 10 11  1  0  0  0
  8 12  1  0  0  0
 12 13  2  0  0  0
 12 14  1  0  0  0
  2  3  2  0  0  0
  3  4  1  0  0  0
  4 16  1  0  0  0
 16 17  2  0  0  0
 17 18  1  0  0  0
 18 19  2  0  0  0
 19 20  1  0  0  0
 19 21  1  0  0  0
 21 22  2  0  0  0
 22 23  1  0  0  0
  4  5  1  0  0  0
  5 24  1  0  0  0
 24 25  2  0  0  0
 25 26  1  0  0  0
 26 27  2  0  0  0
 27 28  1  0  0  0
 27 29  1  0  0  0
 29 30  2  0  0  0
  5  1  2  0  0  0
 30 24  1  0  0  0
 14  6  1  0  0  0
 22 16  1  0  0  0
 11  8  1  0  0  0
 14 15  1  0  0  0
M  END
> <minimizedAffinity>
7.64963

> <CNNscore>
0.4013798237

> <CNNaffinity>
7.9963631630

> <CNN_VS>
3.2095787525

> <CNNaffinity_variance>
0.6238492727

$$$$
[H]c1c([H])c(-c2c(C([H])([H])C([H])([H])[H])c(C3=NC4(C(=O)N3[H])C([H])([H])C([H])([H])C4([H])[H])nn2-c2c([H])c([H])c(Cl)c([H])c2Cl)c([H])c([H])c1Cl


 32 36  0  0  0  0  0  0  0  0999 V2000
    7.9239   46.3453  129.6694 C   0  0  0  0  0  0  0  0  0  0  0  0
    8.1158   47.5997  130.1637 C   0  0  0  0  0  0  0  0  0  0  0  0
    9.1084   47.4269  131.0935 N   0  0  0  0  0  0  0  0  0  0  0  0
    9.5019   46.1689  131.1651 N   0  0  0  0  0  0  0  0  0  0  0  0
    8.8049   45.4416  130.2985 C   0  0  0  0  0  0  0  0  0  0  0  0
    7.5416   48.8987  129.8566 C   0  0  0  0  0  0  0  0  0  0  0  0
    6.4508   49.3346  130.4873 N   0  0  0  0  0  0  0  0  0  0  0  0
    6.0548   50.6187  130.0433 C   0  0  0  0  0  0  0  0  0  0  0  0
    5.8182   51.6585  131.1152 C   0  0  0  0  0  0  0  0  0  0  0  0
    4.3428   51.5088  130.8929 C   0  0  0  0  0  0  0  0  0  0  0  0
    4.6202   50.7752  129.6024 C   0  0  0  0  0  0  0  0  0  0  0  0
    7.0508   51.0395  129.0462 C   0  0  0  0  0  0  0  0  0  0  0  0
    7.1541   52.1010  128.3931 O   0  0  0  0  0  0  0  0  0  0  0  0
    7.9501   49.8976  128.9675 N   0  0  0  0  0  0  0  0  0  0  0  0
    8.7592   49.9241  128.3131 H   0  0  0  0  0  0  0  0  0  0  0  0
   10.5285   45.7023  132.0417 C   0  0  0  0  0  0  0  0  0  0  0  0
   11.8605   45.5652  131.6601 C   0  0  0  0  0  0  0  0  0  0  0  0
   12.8109   45.0874  132.5257 C   0  0  0  0  0  0  0  0  0  0  0  0
   12.4704   44.7293  133.8005 C   0  0  0  0  0  0  0  0  0  0  0  0
   13.6335   44.1128  134.9574 Cl  0  0  0  0  0  0  0  0  0  0  0  0
   11.1670   44.8503  134.2110 C   0  0  0  0  0  0  0  0  0  0  0  0
   10.1988   45.3402  133.3180 C   0  0  0  0  0  0  0  0  0  0  0  0
    8.5370   45.4283  133.8979 Cl  0  0  0  0  0  0  0  0  0  0  0  0
    8.9958   44.0630  129.8954 C   0  0  0  0  0  0  0  0  0  0  0  0
    8.6235   43.0286  130.7114 C   0  0  0  0  0  0  0  0  0  0  0  0
    8.9177   41.7115  130.3826 C   0  0  0  0  0  0  0  0  0  0  0  0
    9.5919   41.3793  129.2301 C   0  0  0  0  0  0  0  0  0  0  0  0
    9.9693   39.7239  128.8008 Cl  0  0  0  0  0  0  0  0  0  0  0  0
    9.9728   42.4121  128.3997 C   0  0  0  0  0  0  0  0  0  0  0  0
    9.6739   43.7167  128.7415 C   0  0  0  0  0  0  0  0  0  0  0  0
    5.5556   46.7793  129.1441 C   0  0  0  0  0  0  0  0  0  0  0  0
    6.8338   46.0083  128.6969 C   0  0  0  0  0  0  0  0  0  0  0  0
 31 32  1  0  0  0
 32  1  1  0  0  0
  1  2  1  0  0  0
  2  6  1  0  0  0
  6  7  2  0  0  0
  7  8  1  0  0  0
  8  9  1  0  0  0
  9 10  1  0  0  0
 10 11  1  0  0  0
  8 12  1  0  0  0
 12 13  2  0  0  0
 12 14  1  0  0  0
  2  3  2  0  0  0
  3  4  1  0  0  0
  4 16  1  0  0  0
 16 17  2  0  0  0
 17 18  1  0  0  0
 18 19  2  0  0  0
 19 20  1  0  0  0
 19 21  1  0  0  0
 21 22  2  0  0  0
 22 23  1  0  0  0
  4  5  1  0  0  0
  5 24  1  0  0  0
 24 25  2  0  0  0
 25 26  1  0  0  0
 26 27  2  0  0  0
 27 28  1  0  0  0
 27 29  1  0  0  0
 29 30  2  0  0  0
  5  1  2  0  0  0
 30 24  1  0  0  0
 14  6  1  0  0  0
 22 16  1  0  0  0
 11  8  1  0  0  0
 14 15  1  0  0  0
M  END
> <minimizedAffinity>
13.23496

> <CNNscore>
0.3924953043

> <CNNaffinity>
8.0659475327

> <CNN_VS>
3.1658465862

> <CNNaffinity_variance>
0.9949620962

$$$$
[H]c1c([H])c(-c2c(C([H])([H])C([H])([H])[H])c(C3=NC4(C(=O)N3[H])C([H])([H])C([H])([H])C4([H])[H])nn2-c2c([H])c([H])c(Cl)c([H])c2Cl)c([H])c([H])c1Cl


 32 36  0  0  0  0  0  0  0  0999 V2000
    8.5796   45.7177  130.3624 C   0  0  0  0  0  0  0  0  0  0  0  0
    8.2819   46.9708  130.8049 C   0  0  0  0  0  0  0  0  0  0  0  0
    8.6473   46.9369  132.1259 N   0  0  0  0  0  0  0  0  0  0  0  0
    9.1358   45.7602  132.4712 N   0  0  0  0  0  0  0  0  0  0  0  0
    9.1254   44.9541  131.4148 C   0  0  0  0  0  0  0  0  0  0  0  0
    7.7603   48.1651  130.1623 C   0  0  0  0  0  0  0  0  0  0  0  0
    6.4496   48.4059  130.1191 N   0  0  0  0  0  0  0  0  0  0  0  0
    6.1510   49.6170  129.4508 C   0  0  0  0  0  0  0  0  0  0  0  0
    5.2460   50.5835  130.1807 C   0  0  0  0  0  0  0  0  0  0  0  0
    4.1352   50.2008  129.2490 C   0  0  0  0  0  0  0  0  0  0  0  0
    5.1412   49.5471  128.3317 C   0  0  0  0  0  0  0  0  0  0  0  0
    7.4417   50.2132  129.0740 C   0  0  0  0  0  0  0  0  0  0  0  0
    7.7058   51.2900  128.4952 O   0  0  0  0  0  0  0  0  0  0  0  0
    8.4127   49.2341  129.5405 N   0  0  0  0  0  0  0  0  0  0  0  0
    9.4284   49.4044  129.3890 H   0  0  0  0  0  0  0  0  0  0  0  0
    9.6038   45.4439  133.7831 C   0  0  0  0  0  0  0  0  0  0  0  0
   10.3636   44.3145  134.0759 C   0  0  0  0  0  0  0  0  0  0  0  0
   10.7704   44.0334  135.3551 C   0  0  0  0  0  0  0  0  0  0  0  0
   10.4361   44.8650  136.3875 C   0  0  0  0  0  0  0  0  0  0  0  0
   10.9229   44.5664  138.0444 Cl  0  0  0  0  0  0  0  0  0  0  0  0
    9.6876   45.9869  136.1363 C   0  0  0  0  0  0  0  0  0  0  0  0
    9.2741   46.2679  134.8229 C   0  0  0  0  0  0  0  0  0  0  0  0
    8.2789   47.7018  134.5793 Cl  0  0  0  0  0  0  0  0  0  0  0  0
    9.7142   43.6395  131.2582 C   0  0  0  0  0  0  0  0  0  0  0  0
    8.9558   42.5645  130.8790 C   0  0  0  0  0  0  0  0  0  0  0  0
    9.4897   41.2826  130.8486 C   0  0  0  0  0  0  0  0  0  0  0  0
   10.7969   41.0273  131.1938 C   0  0  0  0  0  0  0  0  0  0  0  0
   11.4853   39.4173  131.1595 Cl  0  0  0  0  0  0  0  0  0  0  0  0
   11.5714   42.1015  131.5780 C   0  0  0  0  0  0  0  0  0  0  0  0
   11.0252   43.3700  131.6044 C   0  0  0  0  0  0  0  0  0  0  0  0
    9.5759   44.9569  128.2406 C   0  0  0  0  0  0  0  0  0  0  0  0
    8.2356   45.2344  128.9856 C   0  0  0  0  0  0  0  0  0  0  0  0
 31 32  1  0  0  0
 32  1  1  0  0  0
  1  2  1  0  0  0
  2  6  1  0  0  0
  6  7  2  0  0  0
  7  8  1  0  0  0
  8  9  1  0  0  0
  9 10  1  0  0  0
 10 11  1  0  0  0
  8 12  1  0  0  0
 12 13  2  0  0  0
 12 14  1  0  0  0
  2  3  2  0  0  0
  3  4  1  0  0  0
  4 16  1  0  0  0
 16 17  2  0  0  0
 17 18  1  0  0  0
 18 19  2  0  0  0
 19 20  1  0  0  0
 19 21  1  0  0  0
 21 22  2  0  0  0
 22 23  1  0  0  0
  4  5  1  0  0  0
  5 24  1  0  0  0
 24 25  2  0  0  0
 25 26  1  0  0  0
 26 27  2  0  0  0
 27 28  1  0  0  0
 27 29  1  0  0  0
 29 30  2  0  0  0
  5  1  2  0  0  0
 30 24  1  0  0  0
 14  6  1  0  0  0
 22 16  1  0  0  0
 11  8  1  0  0  0
 14 15  1  0  0  0
M  END
> <minimizedAffinity>
13.39107

> <CNNscore>
0.3897252381

> <CNNaffinity>
8.1745195389

> <CNN_VS>
3.1858165264

> <CNNaffinity_variance>
2.2846910954

$$$$
[H]c1nc(OC([H])([H])C([H])([H])Oc2nc([H])c(Br)c([H])n2)c(-c2c([H])c([H])c(C([H])([H])[H])c([H])c2[H])c(N([H])S(=O)(=O)c2c([H])c([H])c(Cl)c([H])c2[H])n1


 36 39  0  0  0  0  0  0  0  0999 V2000
    7.4497   48.0122  130.2377 C   0  0  0  0  0  0  0  0  0  0  0  0
    6.9436   46.8148  129.8675 C   0  0  0  0  0  0  0  0  0  0  0  0
    6.0286   46.7983  128.7326 N   0  0  0  0  0  0  0  0  0  0  0  0
    5.7028   47.8802  128.0887 C   0  0  0  0  0  0  0  0  0  0  0  0
    6.1976   49.0717  128.4449 N   0  0  0  0  0  0  0  0  0  0  0  0
    6.9963   49.1617  129.4370 C   0  0  0  0  0  0  0  0  0  0  0  0
   11.4545   47.5138  134.2286 C   0  0  0  0  0  0  0  0  0  0  0  0
   10.4121   47.9016  133.2570 C   0  0  0  0  0  0  0  0  0  0  0  0
    9.0910   47.8628  133.4968 C   0  0  0  0  0  0  0  0  0  0  0  0
    8.0893   48.0322  132.5874 C   0  0  0  0  0  0  0  0  0  0  0  0
    8.4260   48.2890  131.2355 C   0  0  0  0  0  0  0  0  0  0  0  0
    9.7844   48.3696  130.9677 C   0  0  0  0  0  0  0  0  0  0  0  0
   10.8132   48.1981  131.8989 C   0  0  0  0  0  0  0  0  0  0  0  0
    7.1709   45.6288  130.5321 N   0  0  0  0  0  0  0  0  0  0  0  0
    6.6438   45.1868  131.2245 H   0  0  0  0  0  0  0  0  0  0  0  0
    8.7110   44.8147  130.1146 S   0  0  0  0  0  0  0  0  0  0  0  0
    8.1929   43.3685  129.7641 O   0  0  0  0  0  0  0  0  0  0  0  0
    9.2480   45.3320  128.8313 O   0  0  0  0  0  0  0  0  0  0  0  0
    9.8304   44.6558  131.3641 C   0  0  0  0  0  0  0  0  0  0  0  0
   11.1474   44.7467  131.1355 C   0  0  0  0  0  0  0  0  0  0  0  0
   12.1714   44.5557  131.9703 C   0  0  0  0  0  0  0  0  0  0  0  0
   11.8621   44.1939  133.2635 C   0  0  0  0  0  0  0  0  0  0  0  0
   13.1184   43.8984  134.4637 Cl  0  0  0  0  0  0  0  0  0  0  0  0
   10.5113   44.0260  133.6764 C   0  0  0  0  0  0  0  0  0  0  0  0
    9.5100   44.2689  132.7031 C   0  0  0  0  0  0  0  0  0  0  0  0
    7.5182   50.3131  129.9470 O   0  0  0  0  0  0  0  0  0  0  0  0
    7.5129   51.5566  129.7617 C   0  0  0  0  0  0  0  0  0  0  0  0
    6.8880   52.6296  129.0102 C   0  0  0  0  0  0  0  0  0  0  0  0
    7.0162   53.1124  127.8271 O   0  0  0  0  0  0  0  0  0  0  0  0
    7.1501   53.5858  126.6569 C   0  0  0  0  0  0  0  0  0  0  0  0
    8.1563   52.9876  125.7671 N   0  0  0  0  0  0  0  0  0  0  0  0
    8.3443   53.3913  124.5120 C   0  0  0  0  0  0  0  0  0  0  0  0
    7.5598   54.4306  123.9956 C   0  0  0  0  0  0  0  0  0  0  0  0
    7.8639   55.0349  122.2190 Br  0  0  0  0  0  0  0  0  0  0  0  0
    6.6237   55.0163  124.8065 C   0  0  0  0  0  0  0  0  0  0  0  0
    6.5050   54.5876  125.9952 N   0  0  0  0  0  0  0  0  0  0  0  0
  7  8  1  0  0  0
  8  9  2  0  0  0
  9 10  1  0  0  0
 10 11  2  0  0  0
 11  1  1  0  0  0
  1  2  1  0  0  0
  2 14  1  0  0  0
 14 16  1  0  0  0
 16 17  2  0  0  0
 16 18  2  0  0  0
 16 19  1  0  0  0
 19 20  2  0  0  0
 20 21  1  0  0  0
 21 22  2  0  0  0
 22 23  1  0  0  0
 22 24  1  0  0  0
 24 25  2  0  0  0
  2  3  2  0  0  0
  3  4  1  0  0  0
  4  5  2  0  0  0
  5  6  1  0  0  0
  6 26  1  0  0  0
 26 27  1  0  0  0
 27 28  1  0  0  0
 28 29  1  0  0  0
 29 30  1  0  0  0
 30 31  2  0  0  0
 31 32  1  0  0  0
 32 33  2  0  0  0
 33 34  1  0  0  0
 33 35  1  0  0  0
 35 36  2  0  0  0
 11 12  1  0  0  0
 12 13  2  0  0  0
 13  8  1  0  0  0
  6  1  2  0  0  0
 36 30  1  0  0  0
 25 19  1  0  0  0
 14 15  1  0  0  0
M  END
> <minimizedAffinity>
-1.07935

> <CNNscore>
0.2519228458

> <CNNaffinity>
7.2651777267

> <CNN_VS>
1.8302642107

> <CNNaffinity_variance>
0.3068115115

$$$$
[H]c1nc(OC([H])([H])C([H])([H])Oc2nc([H])c(Br)c([H])n2)c(-c2c([H])c([H])c(C([H])([H])[H])c([H])c2[H])c(N([H])S(=O)(=O)c2c([H])c([H])c(Cl)c([H])c2[H])n1


 36 39  0  0  0  0  0  0  0  0999 V2000
   10.0701   44.6388  130.9812 C   0  0  0  0  0  0  0  0  0  0  0  0
   11.2929   44.1898  131.3421 C   0  0  0  0  0  0  0  0  0  0  0  0
   11.5047   42.7474  131.3316 N   0  0  0  0  0  0  0  0  0  0  0  0
   10.5690   41.9115  130.9895 C   0  0  0  0  0  0  0  0  0  0  0  0
    9.3545   42.3435  130.6294 N   0  0  0  0  0  0  0  0  0  0  0  0
    9.0954   43.5938  130.6264 C   0  0  0  0  0  0  0  0  0  0  0  0
    9.4217   50.2558  131.4750 C   0  0  0  0  0  0  0  0  0  0  0  0
    9.3788   48.8084  131.1849 C   0  0  0  0  0  0  0  0  0  0  0  0
    8.7226   47.8995  131.9250 C   0  0  0  0  0  0  0  0  0  0  0  0
    8.7984   46.5428  131.8106 C   0  0  0  0  0  0  0  0  0  0  0  0
    9.6361   45.9839  130.8143 C   0  0  0  0  0  0  0  0  0  0  0  0
   10.2979   46.9019  130.0127 C   0  0  0  0  0  0  0  0  0  0  0  0
   10.2203   48.2933  130.1268 C   0  0  0  0  0  0  0  0  0  0  0  0
   12.3211   44.9911  131.7901 N   0  0  0  0  0  0  0  0  0  0  0  0
   13.0446   45.4189  131.2940 H   0  0  0  0  0  0  0  0  0  0  0  0
   12.3814   45.2163  133.5661 S   0  0  0  0  0  0  0  0  0  0  0  0
   12.2078   43.7290  134.0567 O   0  0  0  0  0  0  0  0  0  0  0  0
   13.7504   45.5881  134.0027 O   0  0  0  0  0  0  0  0  0  0  0  0
   11.1285   46.1161  134.2445 C   0  0  0  0  0  0  0  0  0  0  0  0
   10.0186   45.5261  134.7081 C   0  0  0  0  0  0  0  0  0  0  0  0
    8.8985   46.0744  135.1841 C   0  0  0  0  0  0  0  0  0  0  0  0
    8.8360   47.4509  135.1991 C   0  0  0  0  0  0  0  0  0  0  0  0
    7.4105   48.3027  135.7896 Cl  0  0  0  0  0  0  0  0  0  0  0  0
    9.9171   48.2408  134.7191 C   0  0  0  0  0  0  0  0  0  0  0  0
   11.0588   47.5446  134.2492 C   0  0  0  0  0  0  0  0  0  0  0  0
    7.8888   44.1641  130.3488 O   0  0  0  0  0  0  0  0  0  0  0  0
    7.3779   45.0966  129.6779 C   0  0  0  0  0  0  0  0  0  0  0  0
    6.4507   46.2118  129.7328 C   0  0  0  0  0  0  0  0  0  0  0  0
    6.5332   47.4796  129.5450 O   0  0  0  0  0  0  0  0  0  0  0  0
    6.6070   48.7328  129.3569 C   0  0  0  0  0  0  0  0  0  0  0  0
    7.4094   49.2286  128.2289 N   0  0  0  0  0  0  0  0  0  0  0  0
    7.5168   50.5219  127.9301 C   0  0  0  0  0  0  0  0  0  0  0  0
    6.8439   51.4698  128.7117 C   0  0  0  0  0  0  0  0  0  0  0  0
    7.0381   53.3177  128.3097 Br  0  0  0  0  0  0  0  0  0  0  0  0
    6.0999   51.0377  129.7778 C   0  0  0  0  0  0  0  0  0  0  0  0
    6.0496   49.7911  130.0103 N   0  0  0  0  0  0  0  0  0  0  0  0
  7  8  1  0  0  0
  8  9  2  0  0  0
  9 10  1  0  0  0
 10 11  2  0  0  0
 11  1  1  0  0  0
  1  2  1  0  0  0
  2 14  1  0  0  0
 14 16  1  0  0  0
 16 17  2  0  0  0
 16 18  2  0  0  0
 16 19  1  0  0  0
 19 20  2  0  0  0
 20 21  1  0  0  0
 21 22  2  0  0  0
 22 23  1  0  0  0
 22 24  1  0  0  0
 24 25  2  0  0  0
  2  3  2  0  0  0
  3  4  1  0  0  0
  4  5  2  0  0  0
  5  6  1  0  0  0
  6 26  1  0  0  0
 26 27  1  0  0  0
 27 28  1  0  0  0
 28 29  1  0  0  0
 29 30  1  0  0  0
 30 31  2  0  0  0
 31 32  1  0  0  0
 32 33  2  0  0  0
 33 34  1  0  0  0
 33 35  1  0  0  0
 35 36  2  0  0  0
 11 12  1  0  0  0
 12 13  2  0  0  0
 13  8  1  0  0  0
  6  1  2  0  0  0
 36 30  1  0  0  0
 25 19  1  0  0  0
 14 15  1  0  0  0
M  END
> <minimizedAffinity>
3.53376

> <CNNscore>
0.1731410474

> <CNNaffinity>
7.6681642532

> <CNN_VS>
1.3276740313

> <CNNaffinity_variance>
0.3494881690

$$$$
[H]c1nc(OC([H])([H])C([H])([H])Oc2nc([H])c(Br)c([H])n2)c(-c2c([H])c([H])c(C([H])([H])[H])c([H])c2[H])c(N([H])S(=O)(=O)c2c([H])c([H])c(Cl)c([H])c2[H])n1


 36 39  0  0  0  0  0  0  0  0999 V2000
    8.7155   46.3079  129.3557 C   0  0  0  0  0  0  0  0  0  0  0  0
    8.5519   47.6489  129.3993 C   0  0  0  0  0  0  0  0  0  0  0  0
    7.1954   48.1617  129.2497 N   0  0  0  0  0  0  0  0  0  0  0  0
    6.1718   47.3769  129.0829 C   0  0  0  0  0  0  0  0  0  0  0  0
    6.3204   46.0475  129.0387 N   0  0  0  0  0  0  0  0  0  0  0  0
    7.4821   45.5298  129.1519 C   0  0  0  0  0  0  0  0  0  0  0  0
   14.1160   44.5654  129.4687 C   0  0  0  0  0  0  0  0  0  0  0  0
   12.6555   44.7750  129.5318 C   0  0  0  0  0  0  0  0  0  0  0  0
   11.8070   44.5550  128.5140 C   0  0  0  0  0  0  0  0  0  0  0  0
   10.4893   44.9011  128.4582 C   0  0  0  0  0  0  0  0  0  0  0  0
    9.9038   45.5548  129.5704 C   0  0  0  0  0  0  0  0  0  0  0  0
   10.7501   45.7620  130.6494 C   0  0  0  0  0  0  0  0  0  0  0  0
   12.1010   45.4062  130.7095 C   0  0  0  0  0  0  0  0  0  0  0  0
    9.5807   48.5610  129.4973 N   0  0  0  0  0  0  0  0  0  0  0  0
   10.3051   48.7588  128.8736 H   0  0  0  0  0  0  0  0  0  0  0  0
    9.6402   49.4662  131.0419 S   0  0  0  0  0  0  0  0  0  0  0  0
   11.0980   50.0608  130.9776 O   0  0  0  0  0  0  0  0  0  0  0  0
    8.7565   50.6573  130.9875 O   0  0  0  0  0  0  0  0  0  0  0  0
    9.5379   48.5439  132.4485 C   0  0  0  0  0  0  0  0  0  0  0  0
   10.5715   48.4478  133.2954 C   0  0  0  0  0  0  0  0  0  0  0  0
   10.7061   47.6997  134.3928 C   0  0  0  0  0  0  0  0  0  0  0  0
    9.6482   46.8803  134.7221 C   0  0  0  0  0  0  0  0  0  0  0  0
    9.7001   45.8318  136.1377 Cl  0  0  0  0  0  0  0  0  0  0  0  0
    8.4757   46.8353  133.9180 C   0  0  0  0  0  0  0  0  0  0  0  0
    8.4448   47.6848  132.7839 C   0  0  0  0  0  0  0  0  0  0  0  0
    7.7841   44.2038  129.0578 O   0  0  0  0  0  0  0  0  0  0  0  0
    7.7713   43.1462  129.7375 C   0  0  0  0  0  0  0  0  0  0  0  0
    8.3998   42.4570  130.8495 C   0  0  0  0  0  0  0  0  0  0  0  0
    9.3404   42.7297  131.6803 O   0  0  0  0  0  0  0  0  0  0  0  0
   10.2739   43.0034  132.4957 C   0  0  0  0  0  0  0  0  0  0  0  0
   11.6613   42.7263  132.0952 N   0  0  0  0  0  0  0  0  0  0  0  0
   12.7084   43.0126  132.8667 C   0  0  0  0  0  0  0  0  0  0  0  0
   12.5024   43.6045  134.1194 C   0  0  0  0  0  0  0  0  0  0  0  0
   13.9970   43.9682  135.2365 Br  0  0  0  0  0  0  0  0  0  0  0  0
   11.2193   43.8614  134.5248 C   0  0  0  0  0  0  0  0  0  0  0  0
   10.2684   43.5537  133.7427 N   0  0  0  0  0  0  0  0  0  0  0  0
  7  8  1  0  0  0
  8  9  2  0  0  0
  9 10  1  0  0  0
 10 11  2  0  0  0
 11  1  1  0  0  0
  1  2  1  0  0  0
  2 14  1  0  0  0
 14 16  1  0  0  0
 16 17  2  0  0  0
 16 18  2  0  0  0
 16 19  1  0  0  0
 19 20  2  0  0  0
 20 21  1  0  0  0
 21 22  2  0  0  0
 22 23  1  0  0  0
 22 24  1  0  0  0
 24 25  2  0  0  0
  2  3  2  0  0  0
  3  4  1  0  0  0
  4  5  2  0  0  0
  5  6  1  0  0  0
  6 26  1  0  0  0
 26 27  1  0  0  0
 27 28  1  0  0  0
 28 29  1  0  0  0
 29 30  1  0  0  0
 30 31  2  0  0  0
 31 32  1  0  0  0
 32 33  2  0  0  0
 33 34  1  0  0  0
 33 35  1  0  0  0
 35 36  2  0  0  0
 11 12  1  0  0  0
 12 13  2  0  0  0
 13  8  1  0  0  0
  6  1  2  0  0  0
 36 30  1  0  0  0
 25 19  1  0  0  0
 14 15  1  0  0  0
M  END
> <minimizedAffinity>
2.83566

> <CNNscore>
0.1667843759

> <CNNaffinity>
7.6241846085

> <CNN_VS>
1.2715948820

> <CNNaffinity_variance>
0.3670496345

$$$$
[H]c1nc(OC([H])([H])C([H])([H])Oc2nc([H])c(Br)c([H])n2)c(-c2c([H])c([H])c(C([H])([H])[H])c([H])c2[H])c(N([H])S(=O)(=O)c2c([H])c([H])c(Cl)c([H])c2[H])n1


 36 39  0  0  0  0  0  0  0  0999 V2000
   10.7547   43.5872  131.3115 C   0  0  0  0  0  0  0  0  0  0  0  0
   11.4524   42.9016  132.2443 C   0  0  0  0  0  0  0  0  0  0  0  0
   11.5323   41.4542  132.0888 N   0  0  0  0  0  0  0  0  0  0  0  0
   10.9644   40.8307  131.0988 C   0  0  0  0  0  0  0  0  0  0  0  0
   10.2714   41.4981  130.1684 N   0  0  0  0  0  0  0  0  0  0  0  0
   10.1510   42.7667  130.2481 C   0  0  0  0  0  0  0  0  0  0  0  0
   10.0742   49.1206  132.3760 C   0  0  0  0  0  0  0  0  0  0  0  0
   10.2230   47.7512  131.8434 C   0  0  0  0  0  0  0  0  0  0  0  0
    9.2147   46.8772  131.6889 C   0  0  0  0  0  0  0  0  0  0  0  0
    9.3198   45.5537  131.3781 C   0  0  0  0  0  0  0  0  0  0  0  0
   10.6065   44.9962  131.1769 C   0  0  0  0  0  0  0  0  0  0  0  0
   11.6635   45.8861  131.2957 C   0  0  0  0  0  0  0  0  0  0  0  0
   11.5581   47.2439  131.6124 C   0  0  0  0  0  0  0  0  0  0  0  0
   12.0239   43.4639  133.3655 N   0  0  0  0  0  0  0  0  0  0  0  0
   12.9452   43.7433  133.5269 H   0  0  0  0  0  0  0  0  0  0  0  0
   10.9219   43.6353  134.7672 S   0  0  0  0  0  0  0  0  0  0  0  0
    9.9610   42.4078  134.5369 O   0  0  0  0  0  0  0  0  0  0  0  0
   11.6276   43.3150  136.0330 O   0  0  0  0  0  0  0  0  0  0  0  0
    9.9644   45.0217  134.7950 C   0  0  0  0  0  0  0  0  0  0  0  0
   10.4414   46.1889  135.2477 C   0  0  0  0  0  0  0  0  0  0  0  0
    9.8120   47.3517  135.4319 C   0  0  0  0  0  0  0  0  0  0  0  0
    8.4663   47.3854  135.1372 C   0  0  0  0  0  0  0  0  0  0  0  0
    7.5130   48.8528  135.3473 Cl  0  0  0  0  0  0  0  0  0  0  0  0
    7.7876   46.2268  134.6677 C   0  0  0  0  0  0  0  0  0  0  0  0
    8.5653   45.0537  134.5005 C   0  0  0  0  0  0  0  0  0  0  0  0
    9.4215   43.5592  129.4128 O   0  0  0  0  0  0  0  0  0  0  0  0
    9.5568   44.3330  128.4311 C   0  0  0  0  0  0  0  0  0  0  0  0
    9.2599   45.6643  127.9351 C   0  0  0  0  0  0  0  0  0  0  0  0
    8.5810   46.6681  128.3604 O   0  0  0  0  0  0  0  0  0  0  0  0
    7.9166   47.6649  128.7801 C   0  0  0  0  0  0  0  0  0  0  0  0
    6.4698   47.5077  128.9902 N   0  0  0  0  0  0  0  0  0  0  0  0
    5.6964   48.4838  129.4620 C   0  0  0  0  0  0  0  0  0  0  0  0
    6.2654   49.7240  129.7790 C   0  0  0  0  0  0  0  0  0  0  0  0
    5.1496   51.1289  130.4076 Br  0  0  0  0  0  0  0  0  0  0  0  0
    7.6089   49.9038  129.5802 C   0  0  0  0  0  0  0  0  0  0  0  0
    8.2837   48.9331  129.1184 N   0  0  0  0  0  0  0  0  0  0  0  0
  7  8  1  0  0  0
  8  9  2  0  0  0
  9 10  1  0  0  0
 10 11  2  0  0  0
 11  1  1  0  0  0
  1  2  1  0  0  0
  2 14  1  0  0  0
 14 16  1  0  0  0
 16 17  2  0  0  0
 16 18  2  0  0  0
 16 19  1  0  0  0
 19 20  2  0  0  0
 20 21  1  0  0  0
 21 22  2  0  0  0
 22 23  1  0  0  0
 22 24  1  0  0  0
 24 25  2  0  0  0
  2  3  2  0  0  0
  3  4  1  0  0  0
  4  5  2  0  0  0
  5  6  1  0  0  0
  6 26  1  0  0  0
 26 27  1  0  0  0
 27 28  1  0  0  0
 28 29  1  0  0  0
 29 30  1  0  0  0
 30 31  2  0  0  0
 31 32  1  0  0  0
 32 33  2  0  0  0
 33 34  1  0  0  0
 33 35  1  0  0  0
 35 36  2  0  0  0
 11 12  1  0  0  0
 12 13  2  0  0  0
 13  8  1  0  0  0
  6  1  2  0  0  0
 36 30  1  0  0  0
 25 19  1  0  0  0
 14 15  1  0  0  0
M  END
> <minimizedAffinity>
5.39764

> <CNNscore>
0.1589459926

> <CNNaffinity>
7.4315643311

> <CNN_VS>
1.1812173128

> <CNNaffinity_variance>
0.5370530486

$$$$
[H]c1nc(OC([H])([H])C([H])([H])Oc2nc([H])c(Br)c([H])n2)c(-c2c([H])c([H])c(C([H])([H])[H])c([H])c2[H])c(N([H])S(=O)(=O)c2c([H])c([H])c(Cl)c([H])c2[H])n1


 36 39  0  0  0  0  0  0  0  0999 V2000
    8.7174   49.1125  130.0246 C   0  0  0  0  0  0  0  0  0  0  0  0
    7.6148   49.1237  129.2428 C   0  0  0  0  0  0  0  0  0  0  0  0
    6.6831   50.2313  129.4176 N   0  0  0  0  0  0  0  0  0  0  0  0
    6.8884   51.1802  130.2830 C   0  0  0  0  0  0  0  0  0  0  0  0
    7.9764   51.1810  131.0624 N   0  0  0  0  0  0  0  0  0  0  0  0
    8.8295   50.2354  130.9705 C   0  0  0  0  0  0  0  0  0  0  0  0
   11.9353   44.4560  129.6042 C   0  0  0  0  0  0  0  0  0  0  0  0
   11.3237   45.7874  129.7894 C   0  0  0  0  0  0  0  0  0  0  0  0
   10.7454   46.2118  130.9252 C   0  0  0  0  0  0  0  0  0  0  0  0
   10.0115   47.3484  131.0942 C   0  0  0  0  0  0  0  0  0  0  0  0
    9.8183   48.2114  129.9875 C   0  0  0  0  0  0  0  0  0  0  0  0
   10.4354   47.8140  128.8108 C   0  0  0  0  0  0  0  0  0  0  0  0
   11.1901   46.6500  128.6357 C   0  0  0  0  0  0  0  0  0  0  0  0
    7.2749   48.1272  128.3531 N   0  0  0  0  0  0  0  0  0  0  0  0
    7.3734   48.0925  127.3826 H   0  0  0  0  0  0  0  0  0  0  0  0
    6.4555   46.7121  129.0843 S   0  0  0  0  0  0  0  0  0  0  0  0
    5.9080   47.3469  130.4185 O   0  0  0  0  0  0  0  0  0  0  0  0
    5.2338   46.3587  128.3190 O   0  0  0  0  0  0  0  0  0  0  0  0
    7.4471   45.4196  129.5154 C   0  0  0  0  0  0  0  0  0  0  0  0
    8.1551   44.7481  128.5975 C   0  0  0  0  0  0  0  0  0  0  0  0
    8.9084   43.6548  128.7359 C   0  0  0  0  0  0  0  0  0  0  0  0
    8.9755   43.0997  129.9954 C   0  0  0  0  0  0  0  0  0  0  0  0
    9.9235   41.6484  130.3139 Cl  0  0  0  0  0  0  0  0  0  0  0  0
    8.2641   43.6684  131.0879 C   0  0  0  0  0  0  0  0  0  0  0  0
    7.5075   44.8365  130.8199 C   0  0  0  0  0  0  0  0  0  0  0  0
    9.9402   50.0765  131.7448 O   0  0  0  0  0  0  0  0  0  0  0  0
   10.2816   49.8897  132.9403 C   0  0  0  0  0  0  0  0  0  0  0  0
   10.4667   48.8783  133.9647 C   0  0  0  0  0  0  0  0  0  0  0  0
   10.3944   47.5968  134.0079 O   0  0  0  0  0  0  0  0  0  0  0  0
   10.3285   46.3297  134.0449 C   0  0  0  0  0  0  0  0  0  0  0  0
    9.0025   45.6942  134.0481 N   0  0  0  0  0  0  0  0  0  0  0  0
    8.8328   44.3733  134.0486 C   0  0  0  0  0  0  0  0  0  0  0  0
    9.9533   43.5327  134.0459 C   0  0  0  0  0  0  0  0  0  0  0  0
    9.7061   41.6484  134.0941 Br  0  0  0  0  0  0  0  0  0  0  0  0
   11.2016   44.0970  134.0569 C   0  0  0  0  0  0  0  0  0  0  0  0
   11.2892   45.3631  134.0658 N   0  0  0  0  0  0  0  0  0  0  0  0
  7  8  1  0  0  0
  8  9  2  0  0  0
  9 10  1  0  0  0
 10 11  2  0  0  0
 11  1  1  0  0  0
  1  2  1  0  0  0
  2 14  1  0  0  0
 14 16  1  0  0  0
 16 17  2  0  0  0
 16 18  2  0  0  0
 16 19  1  0  0  0
 19 20  2  0  0  0
 20 21  1  0  0  0
 21 22  2  0  0  0
 22 23  1  0  0  0
 22 24  1  0  0  0
 24 25  2  0  0  0
  2  3  2  0  0  0
  3  4  1  0  0  0
  4  5  2  0  0  0
  5  6  1  0  0  0
  6 26  1  0  0  0
 26 27  1  0  0  0
 27 28  1  0  0  0
 28 29  1  0  0  0
 29 30  1  0  0  0
 30 31  2  0  0  0
 31 32  1  0  0  0
 32 33  2  0  0  0
 33 34  1  0  0  0
 33 35  1  0  0  0
 35 36  2  0  0  0
 11 12  1  0  0  0
 12 13  2  0  0  0
 13  8  1  0  0  0
  6  1  2  0  0  0
 36 30  1  0  0  0
 25 19  1  0  0  0
 14 15  1  0  0  0
M  END
> <minimizedAffinity>
3.14788

> <CNNscore>
0.1573663652

> <CNNaffinity>
7.5392303467

> <CNN_VS>
1.1864212751

> <CNNaffinity_variance>
0.2541255653

$$$$
[H]c1nc(OC([H])([H])C([H])([H])Oc2nc([H])c(Br)c([H])n2)c(-c2c([H])c([H])c(C([H])([H])[H])c([H])c2[H])c(N([H])S(=O)(=O)c2c([H])c([H])c(Cl)c([H])c2[H])n1


 36 39  0  0  0  0  0  0  0  0999 V2000
    9.6538   45.6154  129.9963 C   0  0  0  0  0  0  0  0  0  0  0  0
   10.5683   44.6823  129.6502 C   0  0  0  0  0  0  0  0  0  0  0  0
   10.0978   43.5414  128.8740 N   0  0  0  0  0  0  0  0  0  0  0  0
    8.8539   43.4106  128.5177 C   0  0  0  0  0  0  0  0  0  0  0  0
    7.9390   44.3279  128.8535 N   0  0  0  0  0  0  0  0  0  0  0  0
    8.2788   45.3477  129.5425 C   0  0  0  0  0  0  0  0  0  0  0  0
    9.1148   50.9333  131.9053 C   0  0  0  0  0  0  0  0  0  0  0  0
    9.4960   49.5589  131.5223 C   0  0  0  0  0  0  0  0  0  0  0  0
   10.0835   49.2238  130.3617 C   0  0  0  0  0  0  0  0  0  0  0  0
   10.2889   47.9637  129.8828 C   0  0  0  0  0  0  0  0  0  0  0  0
    9.8649   46.8571  130.6591 C   0  0  0  0  0  0  0  0  0  0  0  0
    9.2869   47.1750  131.8790 C   0  0  0  0  0  0  0  0  0  0  0  0
    9.0771   48.4662  132.3729 C   0  0  0  0  0  0  0  0  0  0  0  0
   11.8894   44.6962  130.0434 N   0  0  0  0  0  0  0  0  0  0  0  0
   12.6901   44.9438  129.5430 H   0  0  0  0  0  0  0  0  0  0  0  0
   12.1877   44.0923  131.7032 S   0  0  0  0  0  0  0  0  0  0  0  0
   11.7399   42.5890  131.5534 O   0  0  0  0  0  0  0  0  0  0  0  0
   13.6436   44.0144  131.9805 O   0  0  0  0  0  0  0  0  0  0  0  0
   11.2469   44.7752  132.9231 C   0  0  0  0  0  0  0  0  0  0  0  0
   11.7041   45.7884  133.6710 C   0  0  0  0  0  0  0  0  0  0  0  0
   11.1481   46.3845  134.7281 C   0  0  0  0  0  0  0  0  0  0  0  0
    9.9292   45.8979  135.1484 C   0  0  0  0  0  0  0  0  0  0  0  0
    9.0921   46.5851  136.5387 Cl  0  0  0  0  0  0  0  0  0  0  0  0
    9.3059   44.8052  134.4846 C   0  0  0  0  0  0  0  0  0  0  0  0
    9.9875   44.2628  133.3666 C   0  0  0  0  0  0  0  0  0  0  0  0
    7.4425   46.3180  130.0087 O   0  0  0  0  0  0  0  0  0  0  0  0
    6.7346   47.2762  129.6070 C   0  0  0  0  0  0  0  0  0  0  0  0
    6.3348   48.6419  129.8929 C   0  0  0  0  0  0  0  0  0  0  0  0
    6.5893   49.7941  129.3861 O   0  0  0  0  0  0  0  0  0  0  0  0
    6.8371   50.9366  128.8915 C   0  0  0  0  0  0  0  0  0  0  0  0
    7.2047   51.0230  127.4704 N   0  0  0  0  0  0  0  0  0  0  0  0
    7.4465   52.1785  126.8541 C   0  0  0  0  0  0  0  0  0  0  0  0
    7.3522   53.3775  127.5722 C   0  0  0  0  0  0  0  0  0  0  0  0
    7.7441   55.0207  126.7000 Br  0  0  0  0  0  0  0  0  0  0  0  0
    7.0252   53.3265  128.9016 C   0  0  0  0  0  0  0  0  0  0  0  0
    6.8174   52.1899  129.4267 N   0  0  0  0  0  0  0  0  0  0  0  0
  7  8  1  0  0  0
  8  9  2  0  0  0
  9 10  1  0  0  0
 10 11  2  0  0  0
 11  1  1  0  0  0
  1  2  1  0  0  0
  2 14  1  0  0  0
 14 16  1  0  0  0
 16 17  2  0  0  0
 16 18  2  0  0  0
 16 19  1  0  0  0
 19 20  2  0  0  0
 20 21  1  0  0  0
 21 22  2  0  0  0
 22 23  1  0  0  0
 22 24  1  0  0  0
 24 25  2  0  0  0
  2  3  2  0  0  0
  3  4  1  0  0  0
  4  5  2  0  0  0
  5  6  1  0  0  0
  6 26  1  0  0  0
 26 27  1  0  0  0
 27 28  1  0  0  0
 28 29  1  0  0  0
 29 30  1  0  0  0
 30 31  2  0  0  0
 31 32  1  0  0  0
 32 33  2  0  0  0
 33 34  1  0  0  0
 33 35  1  0  0  0
 35 36  2  0  0  0
 11 12  1  0  0  0
 12 13  2  0  0  0
 13  8  1  0  0  0
  6  1  2  0  0  0
 36 30  1  0  0  0
 25 19  1  0  0  0
 14 15  1  0  0  0
M  END
> <minimizedAffinity>
6.52177

> <CNNscore>
0.1450910717

> <CNNaffinity>
7.3733687401

> <CNN_VS>
1.0698099136

> <CNNaffinity_variance>
0.4560223520

$$$$
[H]c1nc(OC([H])([H])C([H])([H])Oc2nc([H])c(Br)c([H])n2)c(-c2c([H])c([H])c(C([H])([H])[H])c([H])c2[H])c(N([H])S(=O)(=O)c2c([H])c([H])c(Cl)c([H])c2[H])n1


 36 39  0  0  0  0  0  0  0  0999 V2000
   10.7137   46.3730  133.1427 C   0  0  0  0  0  0  0  0  0  0  0  0
   10.2898   45.4528  134.0373 C   0  0  0  0  0  0  0  0  0  0  0  0
    9.4709   45.9270  135.1464 N   0  0  0  0  0  0  0  0  0  0  0  0
    9.1489   47.1794  135.2848 C   0  0  0  0  0  0  0  0  0  0  0  0
    9.5617   48.1001  134.4054 N   0  0  0  0  0  0  0  0  0  0  0  0
   10.2915   47.7570  133.4155 C   0  0  0  0  0  0  0  0  0  0  0  0
   12.8203   44.1260  128.3753 C   0  0  0  0  0  0  0  0  0  0  0  0
   12.4485   44.9060  129.5730 C   0  0  0  0  0  0  0  0  0  0  0  0
   12.9774   44.7291  130.7950 C   0  0  0  0  0  0  0  0  0  0  0  0
   12.5465   45.2883  131.9616 C   0  0  0  0  0  0  0  0  0  0  0  0
   11.4330   46.1638  131.9326 C   0  0  0  0  0  0  0  0  0  0  0  0
   10.8902   46.3914  130.6769 C   0  0  0  0  0  0  0  0  0  0  0  0
   11.3315   45.8206  129.4792 C   0  0  0  0  0  0  0  0  0  0  0  0
   10.6400   44.1198  134.0159 N   0  0  0  0  0  0  0  0  0  0  0  0
   11.4669   43.6839  134.2968 H   0  0  0  0  0  0  0  0  0  0  0  0
    9.4176   43.0316  133.2876 S   0  0  0  0  0  0  0  0  0  0  0  0
   10.0459   41.6240  133.6144 O   0  0  0  0  0  0  0  0  0  0  0  0
    8.1564   43.0597  134.0695 O   0  0  0  0  0  0  0  0  0  0  0  0
    9.2422   43.1247  131.6142 C   0  0  0  0  0  0  0  0  0  0  0  0
   10.0248   42.4141  130.7910 C   0  0  0  0  0  0  0  0  0  0  0  0
   10.0952   42.4310  129.4581 C   0  0  0  0  0  0  0  0  0  0  0  0
    9.2635   43.3117  128.8012 C   0  0  0  0  0  0  0  0  0  0  0  0
    9.2646   43.4444  127.0437 Cl  0  0  0  0  0  0  0  0  0  0  0  0
    8.3813   44.1647  129.5204 C   0  0  0  0  0  0  0  0  0  0  0  0
    8.3876   44.0469  130.9328 C   0  0  0  0  0  0  0  0  0  0  0  0
   10.8346   48.5958  132.4883 O   0  0  0  0  0  0  0  0  0  0  0  0
   10.5117   49.3062  131.5025 C   0  0  0  0  0  0  0  0  0  0  0  0
    9.4913   49.5199  130.4926 C   0  0  0  0  0  0  0  0  0  0  0  0
    8.3320   49.0259  130.2454 O   0  0  0  0  0  0  0  0  0  0  0  0
    7.1850   48.5363  130.0089 C   0  0  0  0  0  0  0  0  0  0  0  0
    6.9568   47.1113  130.2908 N   0  0  0  0  0  0  0  0  0  0  0  0
    5.7788   46.5171  130.1101 C   0  0  0  0  0  0  0  0  0  0  0  0
    4.6946   47.2638  129.6310 C   0  0  0  0  0  0  0  0  0  0  0  0
    3.0277   46.4006  129.3302 Br  0  0  0  0  0  0  0  0  0  0  0  0
    4.8816   48.5908  129.3465 C   0  0  0  0  0  0  0  0  0  0  0  0
    6.0336   49.0894  129.5334 N   0  0  0  0  0  0  0  0  0  0  0  0
  7  8  1  0  0  0
  8  9  2  0  0  0
  9 10  1  0  0  0
 10 11  2  0  0  0
 11  1  1  0  0  0
  1  2  1  0  0  0
  2 14  1  0  0  0
 14 16  1  0  0  0
 16 17  2  0  0  0
 16 18  2  0  0  0
 16 19  1  0  0  0
 19 20  2  0  0  0
 20 21  1  0  0  0
 21 22  2  0  0  0
 22 23  1  0  0  0
 22 24  1  0  0  0
 24 25  2  0  0  0
  2  3  2  0  0  0
  3  4  1  0  0  0
  4  5  2  0  0  0
  5  6  1  0  0  0
  6 26  1  0  0  0
 26 27  1  0  0  0
 27 28  1  0  0  0
 28 29  1  0  0  0
 29 30  1  0  0  0
 30 31  2  0  0  0
 31 32  1  0  0  0
 32 33  2  0  0  0
 33 34  1  0  0  0
 33 35  1  0  0  0
 35 36  2  0  0  0
 11 12  1  0  0  0
 12 13  2  0  0  0
 13  8  1  0  0  0
  6  1  2  0  0  0
 36 30  1  0  0  0
 25 19  1  0  0  0
 14 15  1  0  0  0
M  END
> <minimizedAffinity>
2.00632

> <CNNscore>
0.1418656260

> <CNNaffinity>
7.6634740829

> <CNN_VS>
1.0871835947

> <CNNaffinity_variance>
0.2213411629

$$$$
[H]c1nc(OC([H])([H])C([H])([H])Oc2nc([H])c(Br)c([H])n2)c(-c2c([H])c([H])c(C([H])([H])[H])c([H])c2[H])c(N([H])S(=O)(=O)c2c([H])c([H])c(Cl)c([H])c2[H])n1


 36 39  0  0  0  0  0  0  0  0999 V2000
    9.8522   43.3254  131.6230 C   0  0  0  0  0  0  0  0  0  0  0  0
    8.7602   43.0532  132.3715 C   0  0  0  0  0  0  0  0  0  0  0  0
    7.7024   42.2667  131.7487 N   0  0  0  0  0  0  0  0  0  0  0  0
    7.7889   41.8336  130.5254 C   0  0  0  0  0  0  0  0  0  0  0  0
    8.8652   42.0956  129.7742 N   0  0  0  0  0  0  0  0  0  0  0  0
    9.8252   42.7888  130.2521 C   0  0  0  0  0  0  0  0  0  0  0  0
   13.6789   46.5157  134.3420 C   0  0  0  0  0  0  0  0  0  0  0  0
   12.8755   45.6527  133.4528 C   0  0  0  0  0  0  0  0  0  0  0  0
   12.0656   46.1013  132.4795 C   0  0  0  0  0  0  0  0  0  0  0  0
   11.1708   45.3684  131.7573 C   0  0  0  0  0  0  0  0  0  0  0  0
   11.0528   43.9806  132.0164 C   0  0  0  0  0  0  0  0  0  0  0  0
   11.9039   43.4852  132.9929 C   0  0  0  0  0  0  0  0  0  0  0  0
   12.8234   44.2344  133.7333 C   0  0  0  0  0  0  0  0  0  0  0  0
    8.5458   43.5298  133.6470 N   0  0  0  0  0  0  0  0  0  0  0  0
    8.7670   43.1322  134.5106 H   0  0  0  0  0  0  0  0  0  0  0  0
    7.6543   45.0812  133.7314 S   0  0  0  0  0  0  0  0  0  0  0  0
    7.0061   45.1257  132.2959 O   0  0  0  0  0  0  0  0  0  0  0  0
    6.4958   44.9723  134.6528 O   0  0  0  0  0  0  0  0  0  0  0  0
    8.5935   46.4702  133.8993 C   0  0  0  0  0  0  0  0  0  0  0  0
    8.5703   47.4426  132.9780 C   0  0  0  0  0  0  0  0  0  0  0  0
    9.3054   48.5537  132.8944 C   0  0  0  0  0  0  0  0  0  0  0  0
   10.2496   48.7518  133.8783 C   0  0  0  0  0  0  0  0  0  0  0  0
   11.2955   50.1703  133.8802 Cl  0  0  0  0  0  0  0  0  0  0  0  0
   10.4301   47.8053  134.9247 C   0  0  0  0  0  0  0  0  0  0  0  0
    9.5815   46.6701  134.9138 C   0  0  0  0  0  0  0  0  0  0  0  0
   10.9429   43.1852  129.5799 O   0  0  0  0  0  0  0  0  0  0  0  0
   11.3679   44.1171  128.8508 C   0  0  0  0  0  0  0  0  0  0  0  0
   11.0836   45.4580  128.3736 C   0  0  0  0  0  0  0  0  0  0  0  0
   10.2610   46.3891  128.6989 O   0  0  0  0  0  0  0  0  0  0  0  0
    9.4421   47.3056  129.0162 C   0  0  0  0  0  0  0  0  0  0  0  0
    8.0018   47.0222  128.9314 N   0  0  0  0  0  0  0  0  0  0  0  0
    7.0683   47.9066  129.2776 C   0  0  0  0  0  0  0  0  0  0  0  0
    7.4529   49.1695  129.7461 C   0  0  0  0  0  0  0  0  0  0  0  0
    6.1164   50.4450  130.1944 Br  0  0  0  0  0  0  0  0  0  0  0  0
    8.7881   49.4665  129.8224 C   0  0  0  0  0  0  0  0  0  0  0  0
    9.6229   48.5792  129.4669 N   0  0  0  0  0  0  0  0  0  0  0  0
  7  8  1  0  0  0
  8  9  2  0  0  0
  9 10  1  0  0  0
 10 11  2  0  0  0
 11  1  1  0  0  0
  1  2  1  0  0  0
  2 14  1  0  0  0
 14 16  1  0  0  0
 16 17  2  0  0  0
 16 18  2  0  0  0
 16 19  1  0  0  0
 19 20  2  0  0  0
 20 21  1  0  0  0
 21 22  2  0  0  0
 22 23  1  0  0  0
 22 24  1  0  0  0
 24 25  2  0  0  0
  2  3  2  0  0  0
  3  4  1  0  0  0
  4  5  2  0  0  0
  5  6  1  0  0  0
  6 26  1  0  0  0
 26 27  1  0  0  0
 27 28  1  0  0  0
 28 29  1  0  0  0
 29 30  1  0  0  0
 30 31  2  0  0  0
 31 32  1  0  0  0
 32 33  2  0  0  0
 33 34  1  0  0  0
 33 35  1  0  0  0
 35 36  2  0  0  0
 11 12  1  0  0  0
 12 13  2  0  0  0
 13  8  1  0  0  0
  6  1  2  0  0  0
 36 30  1  0  0  0
 25 19  1  0  0  0
 14 15  1  0  0  0
M  END
> <minimizedAffinity>
3.53161

> <CNNscore>
0.1181354821

> <CNNaffinity>
7.3622727394

> <CNN_VS>
0.8697456121

> <CNNaffinity_variance>
0.3336564600

$$$$
[H]c1nc(OC([H])([H])C([H])([H])Oc2nc([H])c(Br)c([H])n2)c(-c2c([H])c([H])c(C([H])([H])[H])c([H])c2[H])c(N([H])S(=O)(=O)c2c([H])c([H])c(Cl)c([H])c2[H])n1


 36 39  0  0  0  0  0  0  0  0999 V2000
   10.7788   44.3741  132.7921 C   0  0  0  0  0  0  0  0  0  0  0  0
   10.7732   43.1266  132.2719 C   0  0  0  0  0  0  0  0  0  0  0  0
   11.9731   42.6909  131.5677 N   0  0  0  0  0  0  0  0  0  0  0  0
   13.0168   43.4557  131.4373 C   0  0  0  0  0  0  0  0  0  0  0  0
   13.0352   44.6926  131.9483 N   0  0  0  0  0  0  0  0  0  0  0  0
   12.0141   45.1437  132.5683 C   0  0  0  0  0  0  0  0  0  0  0  0
    7.7314   48.1642  135.7184 C   0  0  0  0  0  0  0  0  0  0  0  0
    8.3609   46.9981  135.0664 C   0  0  0  0  0  0  0  0  0  0  0  0
    9.4055   46.3157  135.5638 C   0  0  0  0  0  0  0  0  0  0  0  0
   10.1351   45.3570  134.9252 C   0  0  0  0  0  0  0  0  0  0  0  0
    9.7876   45.0000  133.5990 C   0  0  0  0  0  0  0  0  0  0  0  0
    8.6895   45.6650  133.0743 C   0  0  0  0  0  0  0  0  0  0  0  0
    7.9388   46.6470  133.7279 C   0  0  0  0  0  0  0  0  0  0  0  0
    9.6910   42.2731  132.2945 N   0  0  0  0  0  0  0  0  0  0  0  0
    9.4064   41.6391  132.9799 H   0  0  0  0  0  0  0  0  0  0  0  0
    8.7003   42.2734  130.8021 S   0  0  0  0  0  0  0  0  0  0  0  0
    9.0920   40.8753  130.1897 O   0  0  0  0  0  0  0  0  0  0  0  0
    7.2586   42.1391  131.1281 O   0  0  0  0  0  0  0  0  0  0  0  0
    9.0840   43.4469  129.6553 C   0  0  0  0  0  0  0  0  0  0  0  0
    9.9824   43.2103  128.6900 C   0  0  0  0  0  0  0  0  0  0  0  0
   10.4770   44.0374  127.7663 C   0  0  0  0  0  0  0  0  0  0  0  0
   10.0294   45.3405  127.7927 C   0  0  0  0  0  0  0  0  0  0  0  0
   10.6110   46.5386  126.6384 Cl  0  0  0  0  0  0  0  0  0  0  0  0
    9.0906   45.7752  128.7688 C   0  0  0  0  0  0  0  0  0  0  0  0
    8.6285   44.8021  129.6899 C   0  0  0  0  0  0  0  0  0  0  0  0
   11.8725   46.4006  133.0764 O   0  0  0  0  0  0  0  0  0  0  0  0
   11.4569   47.5438  132.7588 C   0  0  0  0  0  0  0  0  0  0  0  0
   10.9746   48.3536  131.6550 C   0  0  0  0  0  0  0  0  0  0  0  0
    9.8202   48.6884  131.2027 O   0  0  0  0  0  0  0  0  0  0  0  0
    8.6815   49.0173  130.7482 C   0  0  0  0  0  0  0  0  0  0  0  0
    7.7831   47.9572  130.2674 N   0  0  0  0  0  0  0  0  0  0  0  0
    6.5572   48.2005  129.8078 C   0  0  0  0  0  0  0  0  0  0  0  0
    6.0815   49.5176  129.7718 C   0  0  0  0  0  0  0  0  0  0  0  0
    4.3486   49.8648  129.0712 Br  0  0  0  0  0  0  0  0  0  0  0  0
    6.9020   50.5274  130.2005 C   0  0  0  0  0  0  0  0  0  0  0  0
    8.0619   50.2241  130.6169 N   0  0  0  0  0  0  0  0  0  0  0  0
  7  8  1  0  0  0
  8  9  2  0  0  0
  9 10  1  0  0  0
 10 11  2  0  0  0
 11  1  1  0  0  0
  1  2  1  0  0  0
  2 14  1  0  0  0
 14 16  1  0  0  0
 16 17  2  0  0  0
 16 18  2  0  0  0
 16 19  1  0  0  0
 19 20  2  0  0  0
 20 21  1  0  0  0
 21 22  2  0  0  0
 22 23  1  0  0  0
 22 24  1  0  0  0
 24 25  2  0  0  0
  2  3  2  0  0  0
  3  4  1  0  0  0
  4  5  2  0  0  0
  5  6  1  0  0  0
  6 26  1  0  0  0
 26 27  1  0  0  0
 27 28  1  0  0  0
 28 29  1  0  0  0
 29 30  1  0  0  0
 30 31  2  0  0  0
 31 32  1  0  0  0
 32 33  2  0  0  0
 33 34  1  0  0  0
 33 35  1  0  0  0
 35 36  2  0  0  0
 11 12  1  0  0  0
 12 13  2  0  0  0
 13  8  1  0  0  0
  6  1  2  0  0  0
 36 30  1  0  0  0
 25 19  1  0  0  0
 14 15  1  0  0  0
M  END
> <minimizedAffinity>
2.68490

> <CNNscore>
0.1125912219

> <CNNaffinity>
7.3962926865

> <CNN_VS>
0.8327576518

> <CNNaffinity_variance>
0.3179630935

$$$$
[H]c1nc(N([H])[C@@]([H])(c2c([H])c([H])c(Cl)c([H])c2[H])C([H])([H])N([H])C([H])([H])[H])c2nc([H])c([H])c(C(=O)N([H])[H])c2n1


 29 31  0  0  0  0  0  0  0  0999 V2000
    7.2527   46.3764  130.4138 C   0  0  0  0  0  0  0  0  0  0  0  0
    6.1477   46.2572  129.6558 N   0  0  0  0  0  0  0  0  0  0  0  0
    5.5753   47.3452  129.0713 C   0  0  0  0  0  0  0  0  0  0  0  0
    6.0936   48.5865  129.2288 N   0  0  0  0  0  0  0  0  0  0  0  0
    7.1867   48.7612  129.9687 C   0  0  0  0  0  0  0  0  0  0  0  0
    7.7159   50.0253  130.1294 C   0  0  0  0  0  0  0  0  0  0  0  0
    8.8474   50.1265  130.9086 C   0  0  0  0  0  0  0  0  0  0  0  0
    9.4083   49.0138  131.4895 C   0  0  0  0  0  0  0  0  0  0  0  0
    8.8657   47.8015  131.3105 N   0  0  0  0  0  0  0  0  0  0  0  0
    7.7705   47.6430  130.5666 C   0  0  0  0  0  0  0  0  0  0  0  0
    7.1339   51.2146  129.5180 C   0  0  0  0  0  0  0  0  0  0  0  0
    7.2533   51.4080  128.1320 N   0  0  0  0  0  0  0  0  0  0  0  0
    6.5211   52.0809  130.2084 O   0  0  0  0  0  0  0  0  0  0  0  0
    7.4468   52.3967  127.8067 H   0  0  0  0  0  0  0  0  0  0  0  0
    7.1558   50.6185  127.4740 H   0  0  0  0  0  0  0  0  0  0  0  0
    7.8395   45.2296  131.0153 N   0  0  0  0  0  0  0  0  0  0  0  0
    7.3940   44.8694  131.8926 H   0  0  0  0  0  0  0  0  0  0  0  0
    9.0005   44.5769  130.4538 C   0  0  0  0  0  0  0  0  0  0  0  0
   10.0599   44.4745  131.4579 C   0  0  0  0  0  0  0  0  0  0  0  0
   11.3098   45.0386  131.3253 C   0  0  0  0  0  0  0  0  0  0  0  0
   12.2735   44.9126  132.3033 C   0  0  0  0  0  0  0  0  0  0  0  0
   12.0012   44.2077  133.4527 C   0  0  0  0  0  0  0  0  0  0  0  0
   13.2275   44.0450  134.7016 Cl  0  0  0  0  0  0  0  0  0  0  0  0
   10.7554   43.6325  133.6099 C   0  0  0  0  0  0  0  0  0  0  0  0
    9.8148   43.7741  132.6194 C   0  0  0  0  0  0  0  0  0  0  0  0
    8.5823   43.2600  129.8484 C   0  0  0  0  0  0  0  0  0  0  0  0
   10.0059   43.4238  127.9106 C   0  0  0  0  0  0  0  0  0  0  0  0
    9.5906   42.6502  129.0417 N   0  0  0  0  0  0  0  0  0  0  0  0
   10.4118   42.4470  129.6255 H   0  0  0  0  0  0  0  0  0  0  0  0
 27 28  1  0  0  0
 28 26  1  0  0  0
 26 18  1  0  0  0
 18 16  1  0  0  0
 16  1  1  0  0  0
  1  2  2  0  0  0
  2  3  1  0  0  0
  3  4  2  0  0  0
  4  5  1  0  0  0
  5  6  2  0  0  0
  6 11  1  0  0  0
 11 12  1  0  0  0
 11 13  2  0  0  0
  6  7  1  0  0  0
  7  8  2  0  0  0
  8  9  1  0  0  0
  9 10  2  0  0  0
 18 19  1  0  0  0
 19 20  2  0  0  0
 20 21  1  0  0  0
 21 22  2  0  0  0
 22 23  1  0  0  0
 22 24  1  0  0  0
 24 25  2  0  0  0
 10  1  1  0  0  0
 25 19  1  0  0  0
 10  5  1  0  0  0
 28 29  1  0  0  0
 16 17  1  0  0  0
 12 14  1  0  0  0
 12 15  1  0  0  0
M  END
> <minimizedAffinity>
-5.59699

> <CNNscore>
0.7107223272

> <CNNaffinity>
7.7905220985

> <CNN_VS>
5.5368981361

> <CNNaffinity_variance>
0.4812163413

$$$$
[H]c1nc(N([H])[C@@]([H])(c2c([H])c([H])c(Cl)c([H])c2[H])C([H])([H])N([H])C([H])([H])[H])c2nc([H])c([H])c(C(=O)N([H])[H])c2n1


 29 31  0  0  0  0  0  0  0  0999 V2000
    9.5640   46.6987  129.7874 C   0  0  0  0  0  0  0  0  0  0  0  0
   10.5360   47.5426  130.1782 N   0  0  0  0  0  0  0  0  0  0  0  0
   10.2858   48.8687  130.3566 C   0  0  0  0  0  0  0  0  0  0  0  0
    9.0530   49.3895  130.1488 N   0  0  0  0  0  0  0  0  0  0  0  0
    8.0543   48.5987  129.7615 C   0  0  0  0  0  0  0  0  0  0  0  0
    6.7978   49.1280  129.5499 C   0  0  0  0  0  0  0  0  0  0  0  0
    5.8162   48.2479  129.1506 C   0  0  0  0  0  0  0  0  0  0  0  0
    6.0917   46.9123  128.9764 C   0  0  0  0  0  0  0  0  0  0  0  0
    7.3252   46.4344  129.1918 N   0  0  0  0  0  0  0  0  0  0  0  0
    8.3150   47.2394  129.5794 C   0  0  0  0  0  0  0  0  0  0  0  0
    6.4894   50.5417  129.7327 C   0  0  0  0  0  0  0  0  0  0  0  0
    7.0081   51.4846  128.8300 N   0  0  0  0  0  0  0  0  0  0  0  0
    5.7627   50.9421  130.6889 O   0  0  0  0  0  0  0  0  0  0  0  0
    7.3481   52.3982  129.2429 H   0  0  0  0  0  0  0  0  0  0  0  0
    7.0507   51.2853  127.8180 H   0  0  0  0  0  0  0  0  0  0  0  0
    9.8413   45.3159  129.6080 N   0  0  0  0  0  0  0  0  0  0  0  0
    9.4286   44.8513  128.7643 H   0  0  0  0  0  0  0  0  0  0  0  0
   10.6552   44.5684  130.5397 C   0  0  0  0  0  0  0  0  0  0  0  0
   10.3691   44.9869  131.9123 C   0  0  0  0  0  0  0  0  0  0  0  0
    9.1093   45.0058  132.4696 C   0  0  0  0  0  0  0  0  0  0  0  0
    8.8941   45.4091  133.7703 C   0  0  0  0  0  0  0  0  0  0  0  0
    9.9528   45.8082  134.5526 C   0  0  0  0  0  0  0  0  0  0  0  0
    9.6820   46.3230  136.2113 Cl  0  0  0  0  0  0  0  0  0  0  0  0
   11.2260   45.7982  134.0173 C   0  0  0  0  0  0  0  0  0  0  0  0
   11.4110   45.3918  132.7187 C   0  0  0  0  0  0  0  0  0  0  0  0
   10.4706   43.0932  130.2836 C   0  0  0  0  0  0  0  0  0  0  0  0
    8.2070   42.3241  130.5891 C   0  0  0  0  0  0  0  0  0  0  0  0
    9.2196   42.7654  129.6779 N   0  0  0  0  0  0  0  0  0  0  0  0
    8.8701   43.5833  129.1628 H   0  0  0  0  0  0  0  0  0  0  0  0
 27 28  1  0  0  0
 28 26  1  0  0  0
 26 18  1  0  0  0
 18 16  1  0  0  0
 16  1  1  0  0  0
  1  2  2  0  0  0
  2  3  1  0  0  0
  3  4  2  0  0  0
  4  5  1  0  0  0
  5  6  2  0  0  0
  6 11  1  0  0  0
 11 12  1  0  0  0
 11 13  2  0  0  0
  6  7  1  0  0  0
  7  8  2  0  0  0
  8  9  1  0  0  0
  9 10  2  0  0  0
 18 19  1  0  0  0
 19 20  2  0  0  0
 20 21  1  0  0  0
 21 22  2  0  0  0
 22 23  1  0  0  0
 22 24  1  0  0  0
 24 25  2  0  0  0
 10  1  1  0  0  0
 25 19  1  0  0  0
 10  5  1  0  0  0
 28 29  1  0  0  0
 16 17  1  0  0  0
 12 14  1  0  0  0
 12 15  1  0  0  0
M  END
> <minimizedAffinity>
-5.73848

> <CNNscore>
0.6531466842

> <CNNaffinity>
7.7215247154

> <CNN_VS>
5.0432882309

> <CNNaffinity_variance>
0.3636769056

$$$$
[H]c1nc(N([H])[C@@]([H])(c2c([H])c([H])c(Cl)c([H])c2[H])C([H])([H])N([H])C([H])([H])[H])c2nc([H])c([H])c(C(=O)N([H])[H])c2n1


 29 31  0  0  0  0  0  0  0  0999 V2000
    8.8953   46.2422  129.7493 C   0  0  0  0  0  0  0  0  0  0  0  0
    7.8267   45.8468  129.0342 N   0  0  0  0  0  0  0  0  0  0  0  0
    6.8248   46.7160  128.7281 C   0  0  0  0  0  0  0  0  0  0  0  0
    6.8638   48.0089  129.1296 N   0  0  0  0  0  0  0  0  0  0  0  0
    7.8987   48.4532  129.8398 C   0  0  0  0  0  0  0  0  0  0  0  0
    7.9397   49.7703  130.2490 C   0  0  0  0  0  0  0  0  0  0  0  0
    9.0420   50.1558  130.9797 C   0  0  0  0  0  0  0  0  0  0  0  0
   10.0420   49.2605  131.2774 C   0  0  0  0  0  0  0  0  0  0  0  0
    9.9672   47.9884  130.8623 N   0  0  0  0  0  0  0  0  0  0  0  0
    8.9239   47.5586  130.1518 C   0  0  0  0  0  0  0  0  0  0  0  0
    6.8883   50.7323  129.9392 C   0  0  0  0  0  0  0  0  0  0  0  0
    6.9925   51.5214  128.7820 N   0  0  0  0  0  0  0  0  0  0  0  0
    5.8793   50.8745  130.6906 O   0  0  0  0  0  0  0  0  0  0  0  0
    6.6914   52.5325  128.8697 H   0  0  0  0  0  0  0  0  0  0  0  0
    7.3465   51.1245  127.8971 H   0  0  0  0  0  0  0  0  0  0  0  0
    9.9343   45.3223  130.0585 N   0  0  0  0  0  0  0  0  0  0  0  0
   10.8268   45.4097  129.5167 H   0  0  0  0  0  0  0  0  0  0  0  0
    9.7821   44.3043  131.0733 C   0  0  0  0  0  0  0  0  0  0  0  0
    9.6822   44.9189  132.3974 C   0  0  0  0  0  0  0  0  0  0  0  0
    8.4940   45.1603  133.0516 C   0  0  0  0  0  0  0  0  0  0  0  0
    8.4553   45.7424  134.3008 C   0  0  0  0  0  0  0  0  0  0  0  0
    9.6244   46.1008  134.9309 C   0  0  0  0  0  0  0  0  0  0  0  0
    9.5787   46.8433  136.5236 Cl  0  0  0  0  0  0  0  0  0  0  0  0
   10.8290   45.8693  134.2961 C   0  0  0  0  0  0  0  0  0  0  0  0
   10.8376   45.2880  133.0520 C   0  0  0  0  0  0  0  0  0  0  0  0
    8.6217   43.4124  130.7079 C   0  0  0  0  0  0  0  0  0  0  0  0
   10.0571   42.9081  128.8386 C   0  0  0  0  0  0  0  0  0  0  0  0
    8.7654   42.7694  129.4409 N   0  0  0  0  0  0  0  0  0  0  0  0
    8.5523   41.7693  129.5445 H   0  0  0  0  0  0  0  0  0  0  0  0
 27 28  1  0  0  0
 28 26  1  0  0  0
 26 18  1  0  0  0
 18 16  1  0  0  0
 16  1  1  0  0  0
  1  2  2  0  0  0
  2  3  1  0  0  0
  3  4  2  0  0  0
  4  5  1  0  0  0
  5  6  2  0  0  0
  6 11  1  0  0  0
 11 12  1  0  0  0
 11 13  2  0  0  0
  6  7  1  0  0  0
  7  8  2  0  0  0
  8  9  1  0  0  0
  9 10  2  0  0  0
 18 19  1  0  0  0
 19 20  2  0  0  0
 20 21  1  0  0  0
 21 22  2  0  0  0
 22 23  1  0  0  0
 22 24  1  0  0  0
 24 25  2  0  0  0
 10  1  1  0  0  0
 25 19  1  0  0  0
 10  5  1  0  0  0
 28 29  1  0  0  0
 16 17  1  0  0  0
 12 14  1  0  0  0
 12 15  1  0  0  0
M  END
> <minimizedAffinity>
-6.13730

> <CNNscore>
0.6389213204

> <CNNaffinity>
7.7731933594

> <CNN_VS>
4.9664587975

> <CNNaffinity_variance>
0.4689725339

$$$$
[H]c1nc(N([H])[C@@]([H])(c2c([H])c([H])c(Cl)c([H])c2[H])C([H])([H])N([H])C([H])([H])[H])c2nc([H])c([H])c(C(=O)N([H])[H])c2n1


 29 31  0  0  0  0  0  0  0  0999 V2000
    8.5732   46.2559  132.2914 C   0  0  0  0  0  0  0  0  0  0  0  0
    7.6239   45.5531  131.6475 N   0  0  0  0  0  0  0  0  0  0  0  0
    6.8683   46.1239  130.6696 C   0  0  0  0  0  0  0  0  0  0  0  0
    7.0416   47.4173  130.3071 N   0  0  0  0  0  0  0  0  0  0  0  0
    7.9677   48.1585  130.9118 C   0  0  0  0  0  0  0  0  0  0  0  0
    8.1455   49.4761  130.5429 C   0  0  0  0  0  0  0  0  0  0  0  0
    9.1225   50.1786  131.2135 C   0  0  0  0  0  0  0  0  0  0  0  0
    9.8736   49.5816  132.1982 C   0  0  0  0  0  0  0  0  0  0  0  0
    9.6721   48.2986  132.5292 N   0  0  0  0  0  0  0  0  0  0  0  0
    8.7403   47.5694  131.9142 C   0  0  0  0  0  0  0  0  0  0  0  0
    7.3585   50.1227  129.4991 C   0  0  0  0  0  0  0  0  0  0  0  0
    7.2481   49.5127  128.2388 N   0  0  0  0  0  0  0  0  0  0  0  0
    6.7698   51.2251  129.7015 O   0  0  0  0  0  0  0  0  0  0  0  0
    7.2872   50.1539  127.3973 H   0  0  0  0  0  0  0  0  0  0  0  0
    7.1352   48.4904  128.1503 H   0  0  0  0  0  0  0  0  0  0  0  0
    9.3554   45.6440  133.3087 N   0  0  0  0  0  0  0  0  0  0  0  0
    9.1083   45.8689  134.3018 H   0  0  0  0  0  0  0  0  0  0  0  0
   10.4479   44.7481  133.0035 C   0  0  0  0  0  0  0  0  0  0  0  0
   10.3754   44.3171  131.6071 C   0  0  0  0  0  0  0  0  0  0  0  0
   11.0154   44.9531  130.5659 C   0  0  0  0  0  0  0  0  0  0  0  0
   10.9146   44.5047  129.2661 C   0  0  0  0  0  0  0  0  0  0  0  0
   10.1586   43.3925  128.9771 C   0  0  0  0  0  0  0  0  0  0  0  0
   10.0279   42.8181  127.3209 Cl  0  0  0  0  0  0  0  0  0  0  0  0
    9.5071   42.7367  130.0033 C   0  0  0  0  0  0  0  0  0  0  0  0
    9.6251   43.2056  131.2886 C   0  0  0  0  0  0  0  0  0  0  0  0
   11.7492   45.4070  133.3885 C   0  0  0  0  0  0  0  0  0  0  0  0
   11.7917   43.6525  135.0404 C   0  0  0  0  0  0  0  0  0  0  0  0
   12.5225   44.6535  134.3232 N   0  0  0  0  0  0  0  0  0  0  0  0
   13.3044   44.2050  133.8294 H   0  0  0  0  0  0  0  0  0  0  0  0
 27 28  1  0  0  0
 28 26  1  0  0  0
 26 18  1  0  0  0
 18 16  1  0  0  0
 16  1  1  0  0  0
  1  2  2  0  0  0
  2  3  1  0  0  0
  3  4  2  0  0  0
  4  5  1  0  0  0
  5  6  2  0  0  0
  6 11  1  0  0  0
 11 12  1  0  0  0
 11 13  2  0  0  0
  6  7  1  0  0  0
  7  8  2  0  0  0
  8  9  1  0  0  0
  9 10  2  0  0  0
 18 19  1  0  0  0
 19 20  2  0  0  0
 20 21  1  0  0  0
 21 22  2  0  0  0
 22 23  1  0  0  0
 22 24  1  0  0  0
 24 25  2  0  0  0
 10  1  1  0  0  0
 25 19  1  0  0  0
 10  5  1  0  0  0
 28 29  1  0  0  0
 16 17  1  0  0  0
 12 14  1  0  0  0
 12 15  1  0  0  0
M  END
> <minimizedAffinity>
-6.86743

> <CNNscore>
0.6325826645

> <CNNaffinity>
7.8305501938

> <CNN_VS>
4.9534702301

> <CNNaffinity_variance>
0.3414532542

$$$$
[H]c1nc(N([H])[C@@]([H])(c2c([H])c([H])c(Cl)c([H])c2[H])C([H])([H])N([H])C([H])([H])[H])c2nc([H])c([H])c(C(=O)N([H])[H])c2n1


 29 31  0  0  0  0  0  0  0  0999 V2000
    8.8709   46.7182  131.8213 C   0  0  0  0  0  0  0  0  0  0  0  0
    9.7222   47.5672  132.4247 N   0  0  0  0  0  0  0  0  0  0  0  0
    9.6710   48.9055  132.1812 C   0  0  0  0  0  0  0  0  0  0  0  0
    8.7643   49.4338  131.3250 N   0  0  0  0  0  0  0  0  0  0  0  0
    7.8977   48.6385  130.7009 C   0  0  0  0  0  0  0  0  0  0  0  0
    6.9732   49.1756  129.8288 C   0  0  0  0  0  0  0  0  0  0  0  0
    6.1103   48.2901  129.2214 C   0  0  0  0  0  0  0  0  0  0  0  0
    6.1804   46.9421  129.4823 C   0  0  0  0  0  0  0  0  0  0  0  0
    7.0925   46.4570  130.3361 N   0  0  0  0  0  0  0  0  0  0  0  0
    7.9537   47.2666  130.9533 C   0  0  0  0  0  0  0  0  0  0  0  0
    6.8849   50.6031  129.5436 C   0  0  0  0  0  0  0  0  0  0  0  0
    7.3167   51.0870  128.2978 N   0  0  0  0  0  0  0  0  0  0  0  0
    6.4266   51.4206  130.3947 O   0  0  0  0  0  0  0  0  0  0  0  0
    7.8441   52.0050  128.3034 H   0  0  0  0  0  0  0  0  0  0  0  0
    7.1240   50.5652  127.4281 H   0  0  0  0  0  0  0  0  0  0  0  0
    8.9361   45.3233  132.0885 N   0  0  0  0  0  0  0  0  0  0  0  0
    8.8720   45.0253  133.0910 H   0  0  0  0  0  0  0  0  0  0  0  0
    9.0844   44.3454  131.0345 C   0  0  0  0  0  0  0  0  0  0  0  0
   10.4472   44.3757  130.5025 C   0  0  0  0  0  0  0  0  0  0  0  0
   10.7544   44.5229  129.1676 C   0  0  0  0  0  0  0  0  0  0  0  0
   12.0576   44.5458  128.7181 C   0  0  0  0  0  0  0  0  0  0  0  0
   13.0969   44.4196  129.6103 C   0  0  0  0  0  0  0  0  0  0  0  0
   14.7596   44.4483  129.0407 Cl  0  0  0  0  0  0  0  0  0  0  0  0
   12.8154   44.2709  130.9543 C   0  0  0  0  0  0  0  0  0  0  0  0
   11.5079   44.2515  131.3738 C   0  0  0  0  0  0  0  0  0  0  0  0
    8.6419   42.9970  131.5461 C   0  0  0  0  0  0  0  0  0  0  0  0
    9.7379   42.4465  133.6209 C   0  0  0  0  0  0  0  0  0  0  0  0
    8.5543   42.9209  132.9695 N   0  0  0  0  0  0  0  0  0  0  0  0
    8.3183   43.8491  133.3426 H   0  0  0  0  0  0  0  0  0  0  0  0
 27 28  1  0  0  0
 28 26  1  0  0  0
 26 18  1  0  0  0
 18 16  1  0  0  0
 16  1  1  0  0  0
  1  2  2  0  0  0
  2  3  1  0  0  0
  3  4  2  0  0  0
  4  5  1  0  0  0
  5  6  2  0  0  0
  6 11  1  0  0  0
 11 12  1  0  0  0
 11 13  2  0  0  0
  6  7  1  0  0  0
  7  8  2  0  0  0
  8  9  1  0  0  0
  9 10  2  0  0  0
 18 19  1  0  0  0
 19 20  2  0  0  0
 20 21  1  0  0  0
 21 22  2  0  0  0
 22 23  1  0  0  0
 22 24  1  0  0  0
 24 25  2  0  0  0
 10  1  1  0  0  0
 25 19  1  0  0  0
 10  5  1  0  0  0
 28 29  1  0  0  0
 16 17  1  0  0  0
 12 14  1  0  0  0
 12 15  1  0  0  0
M  END
> <minimizedAffinity>
-6.92360

> <CNNscore>
0.6191682816

> <CNNaffinity>
7.5163931847

> <CNN_VS>
4.6539120674

> <CNNaffinity_variance>
0.1459724307

$$$$
[H]c1nc(N([H])[C@@]([H])(c2c([H])c([H])c(Cl)c([H])c2[H])C([H])([H])N([H])C([H])([H])[H])c2nc([H])c([H])c(C(=O)N([H])[H])c2n1


 29 31  0  0  0  0  0  0  0  0999 V2000
    9.5479   47.0125  130.2223 C   0  0  0  0  0  0  0  0  0  0  0  0
   10.4088   47.9008  130.7508 N   0  0  0  0  0  0  0  0  0  0  0  0
   10.0645   49.2090  130.9024 C   0  0  0  0  0  0  0  0  0  0  0  0
    8.8458   49.6668  130.5289 N   0  0  0  0  0  0  0  0  0  0  0  0
    7.9550   48.8300  130.0005 C   0  0  0  0  0  0  0  0  0  0  0  0
    6.7130   49.2951  129.6200 C   0  0  0  0  0  0  0  0  0  0  0  0
    5.8456   48.3703  129.0815 C   0  0  0  0  0  0  0  0  0  0  0  0
    6.2151   47.0539  128.9375 C   0  0  0  0  0  0  0  0  0  0  0  0
    7.4310   46.6389  129.3189 N   0  0  0  0  0  0  0  0  0  0  0  0
    8.3122   47.4893  129.8465 C   0  0  0  0  0  0  0  0  0  0  0  0
    6.3056   50.6876  129.7686 C   0  0  0  0  0  0  0  0  0  0  0  0
    6.8728   51.6663  128.9360 N   0  0  0  0  0  0  0  0  0  0  0  0
    5.4496   51.0379  130.6330 O   0  0  0  0  0  0  0  0  0  0  0  0
    7.1094   52.5936  129.3884 H   0  0  0  0  0  0  0  0  0  0  0  0
    7.0458   51.4789  127.9356 H   0  0  0  0  0  0  0  0  0  0  0  0
    9.9224   45.6491  130.0730 N   0  0  0  0  0  0  0  0  0  0  0  0
    9.1817   44.9829  129.7482 H   0  0  0  0  0  0  0  0  0  0  0  0
   11.2625   45.1855  130.3531 C   0  0  0  0  0  0  0  0  0  0  0  0
   11.3739   44.7714  131.7520 C   0  0  0  0  0  0  0  0  0  0  0  0
   12.2894   45.2886  132.6423 C   0  0  0  0  0  0  0  0  0  0  0  0
   12.3522   44.8632  133.9523 C   0  0  0  0  0  0  0  0  0  0  0  0
   11.4857   43.8956  134.4053 C   0  0  0  0  0  0  0  0  0  0  0  0
   11.5629   43.3510  136.0748 Cl  0  0  0  0  0  0  0  0  0  0  0  0
   10.5583   43.3612  133.5323 C   0  0  0  0  0  0  0  0  0  0  0  0
   10.5184   43.8036  132.2330 C   0  0  0  0  0  0  0  0  0  0  0  0
   11.6354   44.1195  129.3530 C   0  0  0  0  0  0  0  0  0  0  0  0
    9.8222   43.2278  128.0392 C   0  0  0  0  0  0  0  0  0  0  0  0
   10.8861   44.1808  128.1387 N   0  0  0  0  0  0  0  0  0  0  0  0
   10.4974   45.1261  128.0301 H   0  0  0  0  0  0  0  0  0  0  0  0
 27 28  1  0  0  0
 28 26  1  0  0  0
 26 18  1  0  0  0
 18 16  1  0  0  0
 16  1  1  0  0  0
  1  2  2  0  0  0
  2  3  1  0  0  0
  3  4  2  0  0  0
  4  5  1  0  0  0
  5  6  2  0  0  0
  6 11  1  0  0  0
 11 12  1  0  0  0
 11 13  2  0  0  0
  6  7  1  0  0  0
  7  8  2  0  0  0
  8  9  1  0  0  0
  9 10  2  0  0  0
 18 19  1  0  0  0
 19 20  2  0  0  0
 20 21  1  0  0  0
 21 22  2  0  0  0
 22 23  1  0  0  0
 22 24  1  0  0  0
 24 25  2  0  0  0
 10  1  1  0  0  0
 25 19  1  0  0  0
 10  5  1  0  0  0
 28 29  1  0  0  0
 16 17  1  0  0  0
 12 14  1  0  0  0
 12 15  1  0  0  0
M  END
> <minimizedAffinity>
-6.17260

> <CNNscore>
0.6017504930

> <CNNaffinity>
7.5655431747

> <CNN_VS>
4.5525693893

> <CNNaffinity_variance>
0.4237264693

$$$$
[H]c1nc(N([H])[C@@]([H])(c2c([H])c([H])c(Cl)c([H])c2[H])C([H])([H])N([H])C([H])([H])[H])c2nc([H])c([H])c(C(=O)N([H])[H])c2n1


 29 31  0  0  0  0  0  0  0  0999 V2000
    7.7781   46.2173  130.7912 C   0  0  0  0  0  0  0  0  0  0  0  0
    6.6831   45.9632  130.0523 N   0  0  0  0  0  0  0  0  0  0  0  0
    6.0092   46.9664  129.4259 C   0  0  0  0  0  0  0  0  0  0  0  0
    6.4129   48.2557  129.5210 N   0  0  0  0  0  0  0  0  0  0  0  0
    7.4909   48.5631  130.2395 C   0  0  0  0  0  0  0  0  0  0  0  0
    7.9033   49.8762  130.3368 C   0  0  0  0  0  0  0  0  0  0  0  0
    9.0266   50.1159  131.0974 C   0  0  0  0  0  0  0  0  0  0  0  0
    9.6912   49.0869  131.7215 C   0  0  0  0  0  0  0  0  0  0  0  0
    9.2605   47.8232  131.6038 N   0  0  0  0  0  0  0  0  0  0  0  0
    8.1789   47.5314  130.8806 C   0  0  0  0  0  0  0  0  0  0  0  0
    7.2105   50.9781  129.6790 C   0  0  0  0  0  0  0  0  0  0  0  0
    7.2944   51.1125  128.2834 N   0  0  0  0  0  0  0  0  0  0  0  0
    6.5323   51.8203  130.3373 O   0  0  0  0  0  0  0  0  0  0  0  0
    7.3953   52.0971  127.9077 H   0  0  0  0  0  0  0  0  0  0  0  0
    7.2587   50.2859  127.6659 H   0  0  0  0  0  0  0  0  0  0  0  0
    8.4718   45.1576  131.4371 N   0  0  0  0  0  0  0  0  0  0  0  0
    8.6449   45.2568  132.4658 H   0  0  0  0  0  0  0  0  0  0  0  0
    8.9257   43.9873  130.7205 C   0  0  0  0  0  0  0  0  0  0  0  0
   10.3398   44.1237  130.3704 C   0  0  0  0  0  0  0  0  0  0  0  0
   11.3724   44.0634  131.2805 C   0  0  0  0  0  0  0  0  0  0  0  0
   12.6900   44.1976  130.8974 C   0  0  0  0  0  0  0  0  0  0  0  0
   13.0061   44.3982  129.5738 C   0  0  0  0  0  0  0  0  0  0  0  0
   14.6850   44.5697  129.0819 Cl  0  0  0  0  0  0  0  0  0  0  0  0
   11.9891   44.4623  128.6415 C   0  0  0  0  0  0  0  0  0  0  0  0
   10.6856   44.3255  129.0515 C   0  0  0  0  0  0  0  0  0  0  0  0
    8.5963   42.7558  131.5270 C   0  0  0  0  0  0  0  0  0  0  0  0
    9.6494   42.6073  133.6898 C   0  0  0  0  0  0  0  0  0  0  0  0
    8.4986   42.9956  132.9314 N   0  0  0  0  0  0  0  0  0  0  0  0
    8.3165   43.9945  133.0907 H   0  0  0  0  0  0  0  0  0  0  0  0
 27 28  1  0  0  0
 28 26  1  0  0  0
 26 18  1  0  0  0
 18 16  1  0  0  0
 16  1  1  0  0  0
  1  2  2  0  0  0
  2  3  1  0  0  0
  3  4  2  0  0  0
  4  5  1  0  0  0
  5  6  2  0  0  0
  6 11  1  0  0  0
 11 12  1  0  0  0
 11 13  2  0  0  0
  6  7  1  0  0  0
  7  8  2  0  0  0
  8  9  1  0  0  0
  9 10  2  0  0  0
 18 19  1  0  0  0
 19 20  2  0  0  0
 20 21  1  0  0  0
 21 22  2  0  0  0
 22 23  1  0  0  0
 22 24  1  0  0  0
 24 25  2  0  0  0
 10  1  1  0  0  0
 25 19  1  0  0  0
 10  5  1  0  0  0
 28 29  1  0  0  0
 16 17  1  0  0  0
 12 14  1  0  0  0
 12 15  1  0  0  0
M  END
> <minimizedAffinity>
-6.17565

> <CNNscore>
0.5859131217

> <CNNaffinity>
7.4547491074

> <CNN_VS>
4.3678355217

> <CNNaffinity_variance>
0.2210159749

$$$$
[H]c1nc(N([H])[C@@]([H])(c2c([H])c([H])c(Cl)c([H])c2[H])C([H])([H])N([H])C([H])([H])[H])c2nc([H])c([H])c(C(=O)N([H])[H])c2n1


 29 31  0  0  0  0  0  0  0  0999 V2000
    9.4860   46.1815  129.9471 C   0  0  0  0  0  0  0  0  0  0  0  0
    8.4749   45.6154  129.2637 N   0  0  0  0  0  0  0  0  0  0  0  0
    7.3765   46.3364  128.9075 C   0  0  0  0  0  0  0  0  0  0  0  0
    7.2584   47.6476  129.2255 N   0  0  0  0  0  0  0  0  0  0  0  0
    8.2302   48.2577  129.9009 C   0  0  0  0  0  0  0  0  0  0  0  0
    8.1111   49.5936  130.2250 C   0  0  0  0  0  0  0  0  0  0  0  0
    9.1569   50.1549  130.9243 C   0  0  0  0  0  0  0  0  0  0  0  0
   10.2565   49.4073  131.2738 C   0  0  0  0  0  0  0  0  0  0  0  0
   10.3366   48.1115  130.9411 N   0  0  0  0  0  0  0  0  0  0  0  0
    9.3547   47.5148  130.2645 C   0  0  0  0  0  0  0  0  0  0  0  0
    6.9524   50.4003  129.8594 C   0  0  0  0  0  0  0  0  0  0  0  0
    6.9542   51.1006  128.6419 N   0  0  0  0  0  0  0  0  0  0  0  0
    5.9405   50.4855  130.6154 O   0  0  0  0  0  0  0  0  0  0  0  0
    6.5385   52.0741  128.6550 H   0  0  0  0  0  0  0  0  0  0  0  0
    7.3439   50.6772  127.7848 H   0  0  0  0  0  0  0  0  0  0  0  0
   10.6272   45.4150  130.3094 N   0  0  0  0  0  0  0  0  0  0  0  0
   11.4324   45.4105  129.6389 H   0  0  0  0  0  0  0  0  0  0  0  0
   10.6902   44.6681  131.5453 C   0  0  0  0  0  0  0  0  0  0  0  0
   10.0120   45.4002  132.6154 C   0  0  0  0  0  0  0  0  0  0  0  0
    8.6923   45.2147  132.9649 C   0  0  0  0  0  0  0  0  0  0  0  0
    8.1007   45.9314  133.9834 C   0  0  0  0  0  0  0  0  0  0  0  0
    8.8300   46.8636  134.6843 C   0  0  0  0  0  0  0  0  0  0  0  0
    8.0790   47.7791  135.9835 Cl  0  0  0  0  0  0  0  0  0  0  0  0
   10.1553   47.0682  134.3534 C   0  0  0  0  0  0  0  0  0  0  0  0
   10.7185   46.3402  133.3343 C   0  0  0  0  0  0  0  0  0  0  0  0
   10.1626   43.2750  131.3079 C   0  0  0  0  0  0  0  0  0  0  0  0
   12.1508   42.7096  132.5472 C   0  0  0  0  0  0  0  0  0  0  0  0
   10.9663   42.2474  131.8889 N   0  0  0  0  0  0  0  0  0  0  0  0
   10.3987   41.7149  132.5602 H   0  0  0  0  0  0  0  0  0  0  0  0
 27 28  1  0  0  0
 28 26  1  0  0  0
 26 18  1  0  0  0
 18 16  1  0  0  0
 16  1  1  0  0  0
  1  2  2  0  0  0
  2  3  1  0  0  0
  3  4  2  0  0  0
  4  5  1  0  0  0
  5  6  2  0  0  0
  6 11  1  0  0  0
 11 12  1  0  0  0
 11 13  2  0  0  0
  6  7  1  0  0  0
  7  8  2  0  0  0
  8  9  1  0  0  0
  9 10  2  0  0  0
 18 19  1  0  0  0
 19 20  2  0  0  0
 20 21  1  0  0  0
 21 22  2  0  0  0
 22 23  1  0  0  0
 22 24  1  0  0  0
 24 25  2  0  0  0
 10  1  1  0  0  0
 25 19  1  0  0  0
 10  5  1  0  0  0
 28 29  1  0  0  0
 16 17  1  0  0  0
 12 14  1  0  0  0
 12 15  1  0  0  0
M  END
> <minimizedAffinity>
-6.12789

> <CNNscore>
0.5596788526

> <CNNaffinity>
7.5768461227

> <CNN_VS>
4.2406005859

> <CNNaffinity_variance>
0.2536623478

$$$$
[H]c1nc(N([H])[C@@]([H])(c2c([H])c([H])c(Cl)c([H])c2[H])C([H])([H])N([H])C([H])([H])[H])c2nc([H])c([H])c(C(=O)N([H])[H])c2n1


 29 31  0  0  0  0  0  0  0  0999 V2000
    9.2725   47.0225  132.6485 C   0  0  0  0  0  0  0  0  0  0  0  0
    9.9418   48.0720  133.1587 N   0  0  0  0  0  0  0  0  0  0  0  0
    9.7306   49.3339  132.6939 C   0  0  0  0  0  0  0  0  0  0  0  0
    8.8414   49.5824  131.7031 N   0  0  0  0  0  0  0  0  0  0  0  0
    8.1516   48.5799  131.1626 C   0  0  0  0  0  0  0  0  0  0  0  0
    7.2451   48.8319  130.1534 C   0  0  0  0  0  0  0  0  0  0  0  0
    6.5696   47.7446  129.6444 C   0  0  0  0  0  0  0  0  0  0  0  0
    6.7992   46.4787  130.1291 C   0  0  0  0  0  0  0  0  0  0  0  0
    7.6880   46.2728  131.1109 N   0  0  0  0  0  0  0  0  0  0  0  0
    8.3712   47.2874  131.6419 C   0  0  0  0  0  0  0  0  0  0  0  0
    6.9888   50.1690  129.6303 C   0  0  0  0  0  0  0  0  0  0  0  0
    7.5480   50.5484  128.3990 N   0  0  0  0  0  0  0  0  0  0  0  0
    6.2717   51.0000  130.2612 O   0  0  0  0  0  0  0  0  0  0  0  0
    7.9194   51.5375  128.3323 H   0  0  0  0  0  0  0  0  0  0  0  0
    7.5893   49.8875  127.6069 H   0  0  0  0  0  0  0  0  0  0  0  0
    9.5030   45.7111  133.1469 N   0  0  0  0  0  0  0  0  0  0  0  0
    8.8168   45.3378  133.8451 H   0  0  0  0  0  0  0  0  0  0  0  0
   10.6306   44.9141  132.7195 C   0  0  0  0  0  0  0  0  0  0  0  0
   10.4356   44.4561  131.3436 C   0  0  0  0  0  0  0  0  0  0  0  0
   11.1166   44.9582  130.2562 C   0  0  0  0  0  0  0  0  0  0  0  0
   10.8953   44.4903  128.9784 C   0  0  0  0  0  0  0  0  0  0  0  0
    9.9725   43.4940  128.7592 C   0  0  0  0  0  0  0  0  0  0  0  0
    9.6878   42.8950  127.1313 Cl  0  0  0  0  0  0  0  0  0  0  0  0
    9.2766   42.9736  129.8328 C   0  0  0  0  0  0  0  0  0  0  0  0
    9.5173   43.4589  131.0947 C   0  0  0  0  0  0  0  0  0  0  0  0
   11.9013   45.6953  132.9451 C   0  0  0  0  0  0  0  0  0  0  0  0
   12.3279   43.8650  134.4541 C   0  0  0  0  0  0  0  0  0  0  0  0
   12.8209   45.0565  133.8316 N   0  0  0  0  0  0  0  0  0  0  0  0
   13.6826   44.8318  133.3184 H   0  0  0  0  0  0  0  0  0  0  0  0
 27 28  1  0  0  0
 28 26  1  0  0  0
 26 18  1  0  0  0
 18 16  1  0  0  0
 16  1  1  0  0  0
  1  2  2  0  0  0
  2  3  1  0  0  0
  3  4  2  0  0  0
  4  5  1  0  0  0
  5  6  2  0  0  0
  6 11  1  0  0  0
 11 12  1  0  0  0
 11 13  2  0  0  0
  6  7  1  0  0  0
  7  8  2  0  0  0
  8  9  1  0  0  0
  9 10  2  0  0  0
 18 19  1  0  0  0
 19 20  2  0  0  0
 20 21  1  0  0  0
 21 22  2  0  0  0
 22 23  1  0  0  0
 22 24  1  0  0  0
 24 25  2  0  0  0
 10  1  1  0  0  0
 25 19  1  0  0  0
 10  5  1  0  0  0
 28 29  1  0  0  0
 16 17  1  0  0  0
 12 14  1  0  0  0
 12 15  1  0  0  0
M  END
> <minimizedAffinity>
-6.70459

> <CNNscore>
0.5174052119

> <CNNaffinity>
7.6766753197

> <CNN_VS>
3.9719517231

> <CNNaffinity_variance>
0.1245794073

$$$$
[H]Oc1c(OC([H])([H])[H])c(OC([H])([H])[H])c2c3c1-c1c([H])c([H])c([H])c([H])c1C([H])([H])[C@@]3([H])N([H])C([H])([H])C2([H])[H]


 24 27  0  0  0  0  0  0  0  0999 V2000
    9.8084   47.1082  133.2119 C   0  0  0  0  0  0  0  0  0  0  0  0
    9.9621   45.9569  132.4518 C   0  0  0  0  0  0  0  0  0  0  0  0
   10.5283   44.8962  133.1065 O   0  0  0  0  0  0  0  0  0  0  0  0
    9.5428   45.9789  131.1409 C   0  0  0  0  0  0  0  0  0  0  0  0
    8.9834   47.1029  130.5753 C   0  0  0  0  0  0  0  0  0  0  0  0
    8.8462   48.2357  131.3710 C   0  0  0  0  0  0  0  0  0  0  0  0
    9.2490   48.2571  132.6786 C   0  0  0  0  0  0  0  0  0  0  0  0
    8.2491   49.4337  130.7557 C   0  0  0  0  0  0  0  0  0  0  0  0
    7.2329   49.1537  129.7171 C   0  0  0  0  0  0  0  0  0  0  0  0
    7.3942   47.9874  128.9570 N   0  0  0  0  0  0  0  0  0  0  0  0
    8.5741   47.1997  129.1940 C   0  0  0  0  0  0  0  0  0  0  0  0
    8.4236   45.9212  128.4752 C   0  0  0  0  0  0  0  0  0  0  0  0
    9.1457   44.7750  129.0343 C   0  0  0  0  0  0  0  0  0  0  0  0
    9.2982   43.6255  128.2377 C   0  0  0  0  0  0  0  0  0  0  0  0
    9.9072   42.4994  128.7009 C   0  0  0  0  0  0  0  0  0  0  0  0
   10.3716   42.5240  129.9834 C   0  0  0  0  0  0  0  0  0  0  0  0
   10.2538   43.6352  130.8297 C   0  0  0  0  0  0  0  0  0  0  0  0
    9.6389   44.7548  130.3411 C   0  0  0  0  0  0  0  0  0  0  0  0
   10.8278   44.8919  134.0581 H   0  0  0  0  0  0  0  0  0  0  0  0
    7.3562   48.1636  127.9145 H   0  0  0  0  0  0  0  0  0  0  0  0
    9.5709   46.4675  135.5850 C   0  0  0  0  0  0  0  0  0  0  0  0
   10.2211   47.1120  134.5291 O   0  0  0  0  0  0  0  0  0  0  0  0
    9.0929   49.4095  133.4354 O   0  0  0  0  0  0  0  0  0  0  0  0
    9.9678   50.4984  133.2522 C   0  0  0  0  0  0  0  0  0  0  0  0
 21 22  1  0  0  0
 22  1  1  0  0  0
  1  2  2  0  0  0
  2  3  1  0  0  0
  2  4  1  0  0  0
  4  5  2  0  0  0
  5  6  1  0  0  0
  6  7  2  0  0  0
  7 23  1  0  0  0
 23 24  1  0  0  0
  6  8  1  0  0  0
  8  9  1  0  0  0
  9 10  1  0  0  0
 10 11  1  0  0  0
 11 12  1  0  0  0
 12 13  1  0  0  0
 13 14  2  0  0  0
 14 15  1  0  0  0
 15 16  2  0  0  0
 16 17  1  0  0  0
 17 18  2  0  0  0
  7  1  1  0  0  0
 18 13  1  0  0  0
 18  4  1  0  0  0
 11  5  1  0  0  0
  3 19  1  0  0  0
 10 20  1  0  0  0
M  END
> <minimizedAffinity>
-3.82201

> <CNNscore>
0.3697377443

> <CNNaffinity>
6.6884393692

> <CNN_VS>
2.4729685783

> <CNNaffinity_variance>
0.6343010664

$$$$
[H]Oc1c(OC([H])([H])[H])c(OC([H])([H])[H])c2c3c1-c1c([H])c([H])c([H])c([H])c1C([H])([H])[C@@]3([H])N([H])C([H])([H])C2([H])[H]


 24 27  0  0  0  0  0  0  0  0999 V2000
   11.3652   44.8351  130.1510 C   0  0  0  0  0  0  0  0  0  0  0  0
   11.1769   44.9654  131.5202 C   0  0  0  0  0  0  0  0  0  0  0  0
   12.0016   44.1983  132.2986 O   0  0  0  0  0  0  0  0  0  0  0  0
   10.2045   45.8315  131.9662 C   0  0  0  0  0  0  0  0  0  0  0  0
    9.4249   46.5599  131.0957 C   0  0  0  0  0  0  0  0  0  0  0  0
    9.6457   46.4013  129.7314 C   0  0  0  0  0  0  0  0  0  0  0  0
   10.6019   45.5519  129.2450 C   0  0  0  0  0  0  0  0  0  0  0  0
    8.8046   47.1831  128.8085 C   0  0  0  0  0  0  0  0  0  0  0  0
    8.3872   48.5063  129.3232 C   0  0  0  0  0  0  0  0  0  0  0  0
    8.2030   48.6293  130.7070 N   0  0  0  0  0  0  0  0  0  0  0  0
    8.3575   47.4424  131.5044 C   0  0  0  0  0  0  0  0  0  0  0  0
    8.3588   47.8410  132.9240 C   0  0  0  0  0  0  0  0  0  0  0  0
    9.0893   46.9632  133.8425 C   0  0  0  0  0  0  0  0  0  0  0  0
    8.8699   47.1078  135.2246 C   0  0  0  0  0  0  0  0  0  0  0  0
    9.5483   46.3702  136.1463 C   0  0  0  0  0  0  0  0  0  0  0  0
   10.4618   45.4724  135.6767 C   0  0  0  0  0  0  0  0  0  0  0  0
   10.7282   45.2774  134.3144 C   0  0  0  0  0  0  0  0  0  0  0  0
   10.0333   46.0296  133.4080 C   0  0  0  0  0  0  0  0  0  0  0  0
   12.7040   43.5743  131.9636 H   0  0  0  0  0  0  0  0  0  0  0  0
    7.2640   49.0431  130.9648 H   0  0  0  0  0  0  0  0  0  0  0  0
   13.6810   44.2921  129.4871 C   0  0  0  0  0  0  0  0  0  0  0  0
   12.3339   43.9729  129.6782 O   0  0  0  0  0  0  0  0  0  0  0  0
   10.7878   45.4250  127.8759 O   0  0  0  0  0  0  0  0  0  0  0  0
   10.4843   44.2094  127.2318 C   0  0  0  0  0  0  0  0  0  0  0  0
 21 22  1  0  0  0
 22  1  1  0  0  0
  1  2  2  0  0  0
  2  3  1  0  0  0
  2  4  1  0  0  0
  4  5  2  0  0  0
  5  6  1  0  0  0
  6  7  2  0  0  0
  7 23  1  0  0  0
 23 24  1  0  0  0
  6  8  1  0  0  0
  8  9  1  0  0  0
  9 10  1  0  0  0
 10 11  1  0  0  0
 11 12  1  0  0  0
 12 13  1  0  0  0
 13 14  2  0  0  0
 14 15  1  0  0  0
 15 16  2  0  0  0
 16 17  1  0  0  0
 17 18  2  0  0  0
  7  1  1  0  0  0
 18 13  1  0  0  0
 18  4  1  0  0  0
 11  5  1  0  0  0
  3 19  1  0  0  0
 10 20  1  0  0  0
M  END
> <minimizedAffinity>
-2.89676

> <CNNscore>
0.3080503643

> <CNNaffinity>
6.6677980423

> <CNN_VS>
2.0540175438

> <CNNaffinity_variance>
1.0231368542

$$$$
[H]Oc1c(OC([H])([H])[H])c(OC([H])([H])[H])c2c3c1-c1c([H])c([H])c([H])c([H])c1C([H])([H])[C@@]3([H])N([H])C([H])([H])C2([H])[H]


 24 27  0  0  0  0  0  0  0  0999 V2000
   10.2505   45.2448  133.5870 C   0  0  0  0  0  0  0  0  0  0  0  0
   10.3227   44.6830  132.3197 C   0  0  0  0  0  0  0  0  0  0  0  0
   10.4931   43.3249  132.2919 O   0  0  0  0  0  0  0  0  0  0  0  0
   10.2188   45.5162  131.2289 C   0  0  0  0  0  0  0  0  0  0  0  0
   10.0485   46.8758  131.3663 C   0  0  0  0  0  0  0  0  0  0  0  0
    9.9802   47.3992  132.6533 C   0  0  0  0  0  0  0  0  0  0  0  0
   10.0782   46.6072  133.7650 C   0  0  0  0  0  0  0  0  0  0  0  0
    9.8006   48.8551  132.7895 C   0  0  0  0  0  0  0  0  0  0  0  0
    9.0044   49.4829  131.7117 C   0  0  0  0  0  0  0  0  0  0  0  0
    9.0807   48.9069  130.4364 N   0  0  0  0  0  0  0  0  0  0  0  0
    9.9855   47.8027  130.2609 C   0  0  0  0  0  0  0  0  0  0  0  0
    9.7321   47.2087  128.9354 C   0  0  0  0  0  0  0  0  0  0  0  0
   10.0541   45.7863  128.7908 C   0  0  0  0  0  0  0  0  0  0  0  0
   10.1336   45.2456  127.4945 C   0  0  0  0  0  0  0  0  0  0  0  0
   10.3734   43.9234  127.2752 C   0  0  0  0  0  0  0  0  0  0  0  0
   10.5364   43.1288  128.3720 C   0  0  0  0  0  0  0  0  0  0  0  0
   10.4707   43.6026  129.6897 C   0  0  0  0  0  0  0  0  0  0  0  0
   10.2297   44.9346  129.8840 C   0  0  0  0  0  0  0  0  0  0  0  0
   10.5663   42.7308  133.0899 H   0  0  0  0  0  0  0  0  0  0  0  0
    9.3128   49.6076  129.6784 H   0  0  0  0  0  0  0  0  0  0  0  0
   11.5336   43.8629  135.1815 C   0  0  0  0  0  0  0  0  0  0  0  0
   10.3521   44.4308  134.6971 O   0  0  0  0  0  0  0  0  0  0  0  0
   10.0047   47.1723  135.0300 O   0  0  0  0  0  0  0  0  0  0  0  0
    8.7623   47.2758  135.6859 C   0  0  0  0  0  0  0  0  0  0  0  0
 21 22  1  0  0  0
 22  1  1  0  0  0
  1  2  2  0  0  0
  2  3  1  0  0  0
  2  4  1  0  0  0
  4  5  2  0  0  0
  5  6  1  0  0  0
  6  7  2  0  0  0
  7 23  1  0  0  0
 23 24  1  0  0  0
  6  8  1  0  0  0
  8  9  1  0  0  0
  9 10  1  0  0  0
 10 11  1  0  0  0
 11 12  1  0  0  0
 12 13  1  0  0  0
 13 14  2  0  0  0
 14 15  1  0  0  0
 15 16  2  0  0  0
 16 17  1  0  0  0
 17 18  2  0  0  0
  7  1  1  0  0  0
 18 13  1  0  0  0
 18  4  1  0  0  0
 11  5  1  0  0  0
  3 19  1  0  0  0
 10 20  1  0  0  0
M  END
> <minimizedAffinity>
-3.73890

> <CNNscore>
0.3076417148

> <CNNaffinity>
6.6893434525

> <CNN_VS>
2.0579211712

> <CNNaffinity_variance>
0.7567014694

$$$$
[H]Oc1c(OC([H])([H])[H])c(OC([H])([H])[H])c2c3c1-c1c([H])c([H])c([H])c([H])c1C([H])([H])[C@@]3([H])N([H])C([H])([H])C2([H])[H]


 24 27  0  0  0  0  0  0  0  0999 V2000
    9.9027   48.6907  131.8089 C   0  0  0  0  0  0  0  0  0  0  0  0
   10.3458   47.3965  132.0452 C   0  0  0  0  0  0  0  0  0  0  0  0
   11.2758   47.2706  133.0419 O   0  0  0  0  0  0  0  0  0  0  0  0
    9.8259   46.3781  131.2788 C   0  0  0  0  0  0  0  0  0  0  0  0
    8.8902   46.6125  130.2961 C   0  0  0  0  0  0  0  0  0  0  0  0
    8.4718   47.9233  130.0915 C   0  0  0  0  0  0  0  0  0  0  0  0
    8.9618   48.9654  130.8308 C   0  0  0  0  0  0  0  0  0  0  0  0
    7.4724   48.1639  129.0361 C   0  0  0  0  0  0  0  0  0  0  0  0
    6.5094   47.0588  128.8334 C   0  0  0  0  0  0  0  0  0  0  0  0
    6.9646   45.7560  129.0777 N   0  0  0  0  0  0  0  0  0  0  0  0
    8.3497   45.5926  129.4286 C   0  0  0  0  0  0  0  0  0  0  0  0
    8.5498   44.1997  129.8688 C   0  0  0  0  0  0  0  0  0  0  0  0
    9.6456   43.9704  130.8146 C   0  0  0  0  0  0  0  0  0  0  0  0
   10.0837   42.6503  131.0255 C   0  0  0  0  0  0  0  0  0  0  0  0
   11.0578   42.3462  131.9268 C   0  0  0  0  0  0  0  0  0  0  0  0
   11.6029   43.3810  132.6290 C   0  0  0  0  0  0  0  0  0  0  0  0
   11.2141   44.7181  132.4673 C   0  0  0  0  0  0  0  0  0  0  0  0
   10.2343   44.9982  131.5553 C   0  0  0  0  0  0  0  0  0  0  0  0
   11.6448   48.0167  133.5917 H   0  0  0  0  0  0  0  0  0  0  0  0
    6.7795   45.0947  128.2727 H   0  0  0  0  0  0  0  0  0  0  0  0
    9.6701   50.5329  133.4371 C   0  0  0  0  0  0  0  0  0  0  0  0
   10.4086   49.7297  132.5638 O   0  0  0  0  0  0  0  0  0  0  0  0
    8.5159   50.2574  130.5923 O   0  0  0  0  0  0  0  0  0  0  0  0
    7.1348   50.5338  130.5650 C   0  0  0  0  0  0  0  0  0  0  0  0
 21 22  1  0  0  0
 22  1  1  0  0  0
  1  2  2  0  0  0
  2  3  1  0  0  0
  2  4  1  0  0  0
  4  5  2  0  0  0
  5  6  1  0  0  0
  6  7  2  0  0  0
  7 23  1  0  0  0
 23 24  1  0  0  0
  6  8  1  0  0  0
  8  9  1  0  0  0
  9 10  1  0  0  0
 10 11  1  0  0  0
 11 12  1  0  0  0
 12 13  1  0  0  0
 13 14  2  0  0  0
 14 15  1  0  0  0
 15 16  2  0  0  0
 16 17  1  0  0  0
 17 18  2  0  0  0
  7  1  1  0  0  0
 18 13  1  0  0  0
 18  4  1  0  0  0
 11  5  1  0  0  0
  3 19  1  0  0  0
 10 20  1  0  0  0
M  END
> <minimizedAffinity>
-5.44987

> <CNNscore>
0.2861856222

> <CNNaffinity>
6.7125182152

> <CNN_VS>
1.9210262299

> <CNNaffinity_variance>
0.5331980586

$$$$
[H]Oc1c(OC([H])([H])[H])c(OC([H])([H])[H])c2c3c1-c1c([H])c([H])c([H])c([H])c1C([H])([H])[C@@]3([H])N([H])C([H])([H])C2([H])[H]


 24 27  0  0  0  0  0  0  0  0999 V2000
    8.1501   45.9956  131.7446 C   0  0  0  0  0  0  0  0  0  0  0  0
    9.0719   45.7276  130.7419 C   0  0  0  0  0  0  0  0  0  0  0  0
    8.6806   46.0827  129.4789 O   0  0  0  0  0  0  0  0  0  0  0  0
   10.2682   45.1445  131.0934 C   0  0  0  0  0  0  0  0  0  0  0  0
   10.5652   44.8248  132.3995 C   0  0  0  0  0  0  0  0  0  0  0  0
    9.6150   45.1104  133.3745 C   0  0  0  0  0  0  0  0  0  0  0  0
    8.4135   45.6900  133.0692 C   0  0  0  0  0  0  0  0  0  0  0  0
    9.9412   44.7621  134.7683 C   0  0  0  0  0  0  0  0  0  0  0  0
   11.3778   44.8601  135.1097 C   0  0  0  0  0  0  0  0  0  0  0  0
   12.3010   44.5912  134.0902 N   0  0  0  0  0  0  0  0  0  0  0  0
   11.7797   44.1661  132.8190 C   0  0  0  0  0  0  0  0  0  0  0  0
   12.8862   44.1729  131.8444 C   0  0  0  0  0  0  0  0  0  0  0  0
   12.5134   44.3825  130.4427 C   0  0  0  0  0  0  0  0  0  0  0  0
   13.4623   44.0906  129.4459 C   0  0  0  0  0  0  0  0  0  0  0  0
   13.2151   44.3090  128.1250 C   0  0  0  0  0  0  0  0  0  0  0  0
   11.9973   44.8284  127.7959 C   0  0  0  0  0  0  0  0  0  0  0  0
   11.0071   45.1406  128.7378 C   0  0  0  0  0  0  0  0  0  0  0  0
   11.2789   44.9114  130.0583 C   0  0  0  0  0  0  0  0  0  0  0  0
    7.8105   46.5059  129.2363 H   0  0  0  0  0  0  0  0  0  0  0  0
   13.0298   43.8766  134.3691 H   0  0  0  0  0  0  0  0  0  0  0  0
    6.3434   46.5533  130.1561 C   0  0  0  0  0  0  0  0  0  0  0  0
    6.9429   46.5799  131.4182 O   0  0  0  0  0  0  0  0  0  0  0  0
    7.4951   45.9572  134.0743 O   0  0  0  0  0  0  0  0  0  0  0  0
    7.8106   46.8785  135.0923 C   0  0  0  0  0  0  0  0  0  0  0  0
 21 22  1  0  0  0
 22  1  1  0  0  0
  1  2  2  0  0  0
  2  3  1  0  0  0
  2  4  1  0  0  0
  4  5  2  0  0  0
  5  6  1  0  0  0
  6  7  2  0  0  0
  7 23  1  0  0  0
 23 24  1  0  0  0
  6  8  1  0  0  0
  8  9  1  0  0  0
  9 10  1  0  0  0
 10 11  1  0  0  0
 11 12  1  0  0  0
 12 13  1  0  0  0
 13 14  2  0  0  0
 14 15  1  0  0  0
 15 16  2  0  0  0
 16 17  1  0  0  0
 17 18  2  0  0  0
  7  1  1  0  0  0
 18 13  1  0  0  0
 18  4  1  0  0  0
 11  5  1  0  0  0
  3 19  1  0  0  0
 10 20  1  0  0  0
M  END
> <minimizedAffinity>
0.55634

> <CNNscore>
0.2843119204

> <CNNaffinity>
6.5826520920

> <CNN_VS>
1.8715264797

> <CNNaffinity_variance>
1.5149283409

$$$$
[H]Oc1c(OC([H])([H])[H])c(OC([H])([H])[H])c2c3c1-c1c([H])c([H])c([H])c([H])c1C([H])([H])[C@@]3([H])N([H])C([H])([H])C2([H])[H]


 24 27  0  0  0  0  0  0  0  0999 V2000
   10.4464   45.1788  133.8365 C   0  0  0  0  0  0  0  0  0  0  0  0
   11.3576   44.9044  132.8258 C   0  0  0  0  0  0  0  0  0  0  0  0
   12.5686   44.4237  133.2461 O   0  0  0  0  0  0  0  0  0  0  0  0
   10.9760   45.1319  131.5229 C   0  0  0  0  0  0  0  0  0  0  0  0
    9.7282   45.6201  131.2055 C   0  0  0  0  0  0  0  0  0  0  0  0
    8.8442   45.8814  132.2474 C   0  0  0  0  0  0  0  0  0  0  0  0
    9.1821   45.6691  133.5563 C   0  0  0  0  0  0  0  0  0  0  0  0
    7.5127   46.4060  131.8975 C   0  0  0  0  0  0  0  0  0  0  0  0
    6.9807   45.9271  130.6023 C   0  0  0  0  0  0  0  0  0  0  0  0
    7.9081   45.6493  129.5891 N   0  0  0  0  0  0  0  0  0  0  0  0
    9.2925   45.9263  129.8634 C   0  0  0  0  0  0  0  0  0  0  0  0
   10.1005   45.3456  128.7752 C   0  0  0  0  0  0  0  0  0  0  0  0
   11.4721   44.9619  129.1209 C   0  0  0  0  0  0  0  0  0  0  0  0
   12.3786   44.7020  128.0770 C   0  0  0  0  0  0  0  0  0  0  0  0
   13.6539   44.2875  128.3121 C   0  0  0  0  0  0  0  0  0  0  0  0
   14.0286   44.1305  129.6145 C   0  0  0  0  0  0  0  0  0  0  0  0
   13.1768   44.3730  130.7012 C   0  0  0  0  0  0  0  0  0  0  0  0
   11.9009   44.7894  130.4391 C   0  0  0  0  0  0  0  0  0  0  0  0
   12.8336   44.2619  134.1941 H   0  0  0  0  0  0  0  0  0  0  0  0
    7.6812   46.1327  128.6757 H   0  0  0  0  0  0  0  0  0  0  0  0
   11.0903   43.7140  135.7175 C   0  0  0  0  0  0  0  0  0  0  0  0
   10.8047   44.9594  135.1513 O   0  0  0  0  0  0  0  0  0  0  0  0
    8.2684   45.9437  134.5637 O   0  0  0  0  0  0  0  0  0  0  0  0
    8.3287   47.1687  135.2569 C   0  0  0  0  0  0  0  0  0  0  0  0
 21 22  1  0  0  0
 22  1  1  0  0  0
  1  2  2  0  0  0
  2  3  1  0  0  0
  2  4  1  0  0  0
  4  5  2  0  0  0
  5  6  1  0  0  0
  6  7  2  0  0  0
  7 23  1  0  0  0
 23 24  1  0  0  0
  6  8  1  0  0  0
  8  9  1  0  0  0
  9 10  1  0  0  0
 10 11  1  0  0  0
 11 12  1  0  0  0
 12 13  1  0  0  0
 13 14  2  0  0  0
 14 15  1  0  0  0
 15 16  2  0  0  0
 16 17  1  0  0  0
 17 18  2  0  0  0
  7  1  1  0  0  0
 18 13  1  0  0  0
 18  4  1  0  0  0
 11  5  1  0  0  0
  3 19  1  0  0  0
 10 20  1  0  0  0
M  END
> <minimizedAffinity>
-1.73681

> <CNNscore>
0.2761158943

> <CNNaffinity>
6.5758886337

> <CNN_VS>
1.8157073259

> <CNNaffinity_variance>
1.2306120396

$$$$
[H]Oc1c(OC([H])([H])[H])c(OC([H])([H])[H])c2c3c1-c1c([H])c([H])c([H])c([H])c1C([H])([H])[C@@]3([H])N([H])C([H])([H])C2([H])[H]


 24 27  0  0  0  0  0  0  0  0999 V2000
    8.5048   45.5228  129.5921 C   0  0  0  0  0  0  0  0  0  0  0  0
    9.1459   44.9059  130.6577 C   0  0  0  0  0  0  0  0  0  0  0  0
    9.3870   43.5677  130.4986 O   0  0  0  0  0  0  0  0  0  0  0  0
    9.4762   45.6714  131.7530 C   0  0  0  0  0  0  0  0  0  0  0  0
    9.1873   47.0164  131.8138 C   0  0  0  0  0  0  0  0  0  0  0  0
    8.5449   47.5968  130.7248 C   0  0  0  0  0  0  0  0  0  0  0  0
    8.1992   46.8731  129.6160 C   0  0  0  0  0  0  0  0  0  0  0  0
    8.2379   49.0356  130.8008 C   0  0  0  0  0  0  0  0  0  0  0  0
    9.2136   49.8358  131.5738 C   0  0  0  0  0  0  0  0  0  0  0  0
    9.8585   49.2037  132.6455 N   0  0  0  0  0  0  0  0  0  0  0  0
    9.4629   47.8561  132.9556 C   0  0  0  0  0  0  0  0  0  0  0  0
   10.4175   47.3131  133.9395 C   0  0  0  0  0  0  0  0  0  0  0  0
   10.5967   45.8586  133.9334 C   0  0  0  0  0  0  0  0  0  0  0  0
   11.2382   45.2577  135.0318 C   0  0  0  0  0  0  0  0  0  0  0  0
   11.4926   43.9211  135.0792 C   0  0  0  0  0  0  0  0  0  0  0  0
   11.0982   43.1728  134.0088 C   0  0  0  0  0  0  0  0  0  0  0  0
   10.4541   43.7070  132.8842 C   0  0  0  0  0  0  0  0  0  0  0  0
   10.2089   45.0522  132.8607 C   0  0  0  0  0  0  0  0  0  0  0  0
    9.1435   43.0232  129.6990 H   0  0  0  0  0  0  0  0  0  0  0  0
    9.7933   49.7504  133.5490 H   0  0  0  0  0  0  0  0  0  0  0  0
    9.0150   43.9102  127.7927 C   0  0  0  0  0  0  0  0  0  0  0  0
    8.1627   44.7771  128.4821 O   0  0  0  0  0  0  0  0  0  0  0  0
    7.5593   47.4934  128.5526 O   0  0  0  0  0  0  0  0  0  0  0  0
    6.1633   47.6804  128.5805 C   0  0  0  0  0  0  0  0  0  0  0  0
 21 22  1  0  0  0
 22  1  1  0  0  0
  1  2  2  0  0  0
  2  3  1  0  0  0
  2  4  1  0  0  0
  4  5  2  0  0  0
  5  6  1  0  0  0
  6  7  2  0  0  0
  7 23  1  0  0  0
 23 24  1  0  0  0
  6  8  1  0  0  0
  8  9  1  0  0  0
  9 10  1  0  0  0
 10 11  1  0  0  0
 11 12  1  0  0  0
 12 13  1  0  0  0
 13 14  2  0  0  0
 14 15  1  0  0  0
 15 16  2  0  0  0
 16 17  1  0  0  0
 17 18  2  0  0  0
  7  1  1  0  0  0
 18 13  1  0  0  0
 18  4  1  0  0  0
 11  5  1  0  0  0
  3 19  1  0  0  0
 10 20  1  0  0  0
M  END
> <minimizedAffinity>
-5.69556

> <CNNscore>
0.2672021389

> <CNNaffinity>
6.8310914040

> <CNN_VS>
1.8252822161

> <CNNaffinity_variance>
0.8987566829

$$$$
[H]Oc1c(OC([H])([H])[H])c(OC([H])([H])[H])c2c3c1-c1c([H])c([H])c([H])c([H])c1C([H])([H])[C@@]3([H])N([H])C([H])([H])C2([H])[H]


 24 27  0  0  0  0  0  0  0  0999 V2000
    9.3826   43.5147  130.9513 C   0  0  0  0  0  0  0  0  0  0  0  0
    9.4672   44.1541  132.1805 C   0  0  0  0  0  0  0  0  0  0  0  0
    9.9322   43.3808  133.2102 O   0  0  0  0  0  0  0  0  0  0  0  0
    9.0877   45.4750  132.2572 C   0  0  0  0  0  0  0  0  0  0  0  0
    8.6312   46.1653  131.1566 C   0  0  0  0  0  0  0  0  0  0  0  0
    8.5623   45.4887  129.9431 C   0  0  0  0  0  0  0  0  0  0  0  0
    8.9301   44.1762  129.8221 C   0  0  0  0  0  0  0  0  0  0  0  0
    8.0702   46.2353  128.7722 C   0  0  0  0  0  0  0  0  0  0  0  0
    8.3989   47.6781  128.7766 C   0  0  0  0  0  0  0  0  0  0  0  0
    8.4856   48.3144  130.0222 N   0  0  0  0  0  0  0  0  0  0  0  0
    8.1715   47.5338  131.1886 C   0  0  0  0  0  0  0  0  0  0  0  0
    8.5544   48.3145  132.3794 C   0  0  0  0  0  0  0  0  0  0  0  0
    8.9044   47.5425  133.5750 C   0  0  0  0  0  0  0  0  0  0  0  0
    8.9704   48.2129  134.8101 C   0  0  0  0  0  0  0  0  0  0  0  0
    9.3413   47.5811  135.9576 C   0  0  0  0  0  0  0  0  0  0  0  0
    9.6514   46.2556  135.8677 C   0  0  0  0  0  0  0  0  0  0  0  0
    9.6054   45.5279  134.6705 C   0  0  0  0  0  0  0  0  0  0  0  0
    9.2290   46.1845  133.5315 C   0  0  0  0  0  0  0  0  0  0  0  0
   10.2053   42.4238  133.1423 H   0  0  0  0  0  0  0  0  0  0  0  0
    7.8967   49.1915  130.0814 H   0  0  0  0  0  0  0  0  0  0  0  0
   10.9173   41.6303  131.3898 C   0  0  0  0  0  0  0  0  0  0  0  0
    9.7571   42.1902  130.8480 O   0  0  0  0  0  0  0  0  0  0  0  0
    8.8450   43.5408  128.5916 O   0  0  0  0  0  0  0  0  0  0  0  0
   10.0075   43.3286  127.8246 C   0  0  0  0  0  0  0  0  0  0  0  0
 21 22  1  0  0  0
 22  1  1  0  0  0
  1  2  2  0  0  0
  2  3  1  0  0  0
  2  4  1  0  0  0
  4  5  2  0  0  0
  5  6  1  0  0  0
  6  7  2  0  0  0
  7 23  1  0  0  0
 23 24  1  0  0  0
  6  8  1  0  0  0
  8  9  1  0  0  0
  9 10  1  0  0  0
 10 11  1  0  0  0
 11 12  1  0  0  0
 12 13  1  0  0  0
 13 14  2  0  0  0
 14 15  1  0  0  0
 15 16  2  0  0  0
 16 17  1  0  0  0
 17 18  2  0  0  0
  7  1  1  0  0  0
 18 13  1  0  0  0
 18  4  1  0  0  0
 11  5  1  0  0  0
  3 19  1  0  0  0
 10 20  1  0  0  0
M  END
> <minimizedAffinity>
-2.69442

> <CNNscore>
0.2405238301

> <CNNaffinity>
6.6391897202

> <CNN_VS>
1.5968832970

> <CNNaffinity_variance>
0.5888659358

$$$$
[H]Oc1c(OC([H])([H])[H])c(OC([H])([H])[H])c2c3c1-c1c([H])c([H])c([H])c([H])c1C([H])([H])[C@@]3([H])N([H])C([H])([H])C2([H])[H]


 24 27  0  0  0  0  0  0  0  0999 V2000
    9.4915   47.6450  132.6172 C   0  0  0  0  0  0  0  0  0  0  0  0
    9.6651   47.1155  131.3458 C   0  0  0  0  0  0  0  0  0  0  0  0
    9.3812   47.9694  130.3139 O   0  0  0  0  0  0  0  0  0  0  0  0
   10.0968   45.8133  131.2339 C   0  0  0  0  0  0  0  0  0  0  0  0
   10.3551   45.0354  132.3404 C   0  0  0  0  0  0  0  0  0  0  0  0
   10.1696   45.6036  133.5965 C   0  0  0  0  0  0  0  0  0  0  0  0
    9.7426   46.8942  133.7533 C   0  0  0  0  0  0  0  0  0  0  0  0
   10.4462   44.7623  134.7738 C   0  0  0  0  0  0  0  0  0  0  0  0
   11.5262   43.7687  134.5834 C   0  0  0  0  0  0  0  0  0  0  0  0
   11.6962   43.2423  133.2957 N   0  0  0  0  0  0  0  0  0  0  0  0
   10.7593   43.6503  132.2837 C   0  0  0  0  0  0  0  0  0  0  0  0
   11.2587   43.1775  130.9794 C   0  0  0  0  0  0  0  0  0  0  0  0
   10.8493   43.9572  129.8079 C   0  0  0  0  0  0  0  0  0  0  0  0
   11.0245   43.3915  128.5318 C   0  0  0  0  0  0  0  0  0  0  0  0
   10.7214   44.0704  127.3913 C   0  0  0  0  0  0  0  0  0  0  0  0
   10.2346   45.3372  127.5302 C   0  0  0  0  0  0  0  0  0  0  0  0
   10.0349   45.9597  128.7702 C   0  0  0  0  0  0  0  0  0  0  0  0
   10.3459   45.2569  129.9013 C   0  0  0  0  0  0  0  0  0  0  0  0
    9.0696   48.9124  130.4075 H   0  0  0  0  0  0  0  0  0  0  0  0
   11.7129   42.1845  133.2794 H   0  0  0  0  0  0  0  0  0  0  0  0
    9.8846   50.0744  132.8224 C   0  0  0  0  0  0  0  0  0  0  0  0
    9.0593   48.9484  132.7564 O   0  0  0  0  0  0  0  0  0  0  0  0
    9.5711   47.4201  135.0257 O   0  0  0  0  0  0  0  0  0  0  0  0
    8.2741   47.6318  135.5333 C   0  0  0  0  0  0  0  0  0  0  0  0
 21 22  1  0  0  0
 22  1  1  0  0  0
  1  2  2  0  0  0
  2  3  1  0  0  0
  2  4  1  0  0  0
  4  5  2  0  0  0
  5  6  1  0  0  0
  6  7  2  0  0  0
  7 23  1  0  0  0
 23 24  1  0  0  0
  6  8  1  0  0  0
  8  9  1  0  0  0
  9 10  1  0  0  0
 10 11  1  0  0  0
 11 12  1  0  0  0
 12 13  1  0  0  0
 13 14  2  0  0  0
 14 15  1  0  0  0
 15 16  2  0  0  0
 16 17  1  0  0  0
 17 18  2  0  0  0
  7  1  1  0  0  0
 18 13  1  0  0  0
 18  4  1  0  0  0
 11  5  1  0  0  0
  3 19  1  0  0  0
 10 20  1  0  0  0
M  END
> <minimizedAffinity>
-4.08582

> <CNNscore>
0.2173422277

> <CNNaffinity>
6.4335632324

> <CNN_VS>
1.3982849121

> <CNNaffinity_variance>
0.3895726502

$$$$
[H]c1c([H])c([H])c(N([H])[C@@]2([H])c3c([H])c(-c4c([H])c([H])c(C(F)(F)F)c([H])c4[H])c([H])c([H])c3N(C(=O)C([H])([H])[H])[C@@]([H])(C([H])([H])[H])C2([H])[H])c([H])c1[H]


 32 35  0  0  0  0  0  0  0  0999 V2000
    6.8175   41.7639  133.4831 C   0  0  0  0  0  0  0  0  0  0  0  0
    7.1159   41.8532  132.0480 C   0  0  0  0  0  0  0  0  0  0  0  0
    6.3701   41.1814  131.2565 O   0  0  0  0  0  0  0  0  0  0  0  0
    8.1699   42.6233  131.5162 N   0  0  0  0  0  0  0  0  0  0  0  0
    8.9343   43.6006  132.1895 C   0  0  0  0  0  0  0  0  0  0  0  0
    8.3468   44.3363  133.2126 C   0  0  0  0  0  0  0  0  0  0  0  0
    9.1394   45.2265  133.8969 C   0  0  0  0  0  0  0  0  0  0  0  0
   10.4793   45.4423  133.6376 C   0  0  0  0  0  0  0  0  0  0  0  0
   11.0291   44.7062  132.6159 C   0  0  0  0  0  0  0  0  0  0  0  0
   10.2621   43.7875  131.8917 C   0  0  0  0  0  0  0  0  0  0  0  0
   10.9452   43.1114  130.7814 C   0  0  0  0  0  0  0  0  0  0  0  0
   10.0850   42.0857  130.0967 C   0  0  0  0  0  0  0  0  0  0  0  0
    8.6207   42.3673  130.1331 C   0  0  0  0  0  0  0  0  0  0  0  0
    8.0933   43.3985  129.2076 C   0  0  0  0  0  0  0  0  0  0  0  0
   11.2964   46.3773  134.4183 C   0  0  0  0  0  0  0  0  0  0  0  0
   12.6703   46.1971  134.5062 C   0  0  0  0  0  0  0  0  0  0  0  0
   13.4996   47.0670  135.1783 C   0  0  0  0  0  0  0  0  0  0  0  0
   12.9334   48.1717  135.7990 C   0  0  0  0  0  0  0  0  0  0  0  0
   11.5730   48.3814  135.7355 C   0  0  0  0  0  0  0  0  0  0  0  0
   10.7674   47.4755  135.0424 C   0  0  0  0  0  0  0  0  0  0  0  0
   13.8609   49.1167  136.5182 C   0  0  0  0  0  0  0  0  0  0  0  0
   13.2681   49.5651  137.6870 F   0  0  0  0  0  0  0  0  0  0  0  0
   14.1845   50.2032  135.7630 F   0  0  0  0  0  0  0  0  0  0  0  0
   14.9636   48.3680  136.9207 F   0  0  0  0  0  0  0  0  0  0  0  0
   11.3332   44.1493  129.8043 N   0  0  0  0  0  0  0  0  0  0  0  0
   10.5772   44.7970  129.4909 H   0  0  0  0  0  0  0  0  0  0  0  0
   12.6706   44.2378  129.3248 C   0  0  0  0  0  0  0  0  0  0  0  0
   13.7000   44.5678  130.1919 C   0  0  0  0  0  0  0  0  0  0  0  0
   14.9840   44.5844  129.7039 C   0  0  0  0  0  0  0  0  0  0  0  0
   15.3132   44.2951  128.4036 C   0  0  0  0  0  0  0  0  0  0  0  0
   14.2923   43.9641  127.5220 C   0  0  0  0  0  0  0  0  0  0  0  0
   12.9999   43.9423  127.9982 C   0  0  0  0  0  0  0  0  0  0  0  0
  1  2  1  0  0  0
  2  3  2  0  0  0
  2  4  1  0  0  0
  4  5  1  0  0  0
  5  6  2  0  0  0
  6  7  1  0  0  0
  7  8  2  0  0  0
  8 15  1  0  0  0
 15 16  2  0  0  0
 16 17  1  0  0  0
 17 18  2  0  0  0
 18 21  1  0  0  0
 21 22  1  0  0  0
 21 23  1  0  0  0
 21 24  1  0  0  0
 18 19  1  0  0  0
 19 20  2  0  0  0
  8  9  1  0  0  0
  9 10  2  0  0  0
 10 11  1  0  0  0
 11 25  1  0  0  0
 25 27  1  0  0  0
 27 28  2  0  0  0
 28 29  1  0  0  0
 29 30  2  0  0  0
 30 31  1  0  0  0
 31 32  2  0  0  0
 11 12  1  0  0  0
 12 13  1  0  0  0
 13 14  1  0  0  0
 13  4  1  0  0  0
 10  5  1  0  0  0
 32 27  1  0  0  0
 20 15  1  0  0  0
 25 26  1  0  0  0
M  END
> <minimizedAffinity>
26.67994

> <CNNscore>
0.5469475389

> <CNNaffinity>
7.3906316757

> <CNN_VS>
4.0422878265

> <CNNaffinity_variance>
3.5448594093

$$$$
[H]c1c([H])c([H])c(N([H])[C@@]2([H])c3c([H])c(-c4c([H])c([H])c(C(F)(F)F)c([H])c4[H])c([H])c([H])c3N(C(=O)C([H])([H])[H])[C@@]([H])(C([H])([H])[H])C2([H])[H])c([H])c1[H]


 32 35  0  0  0  0  0  0  0  0999 V2000
    6.6410   42.1856  132.9625 C   0  0  0  0  0  0  0  0  0  0  0  0
    7.3176   41.9758  131.6760 C   0  0  0  0  0  0  0  0  0  0  0  0
    6.7119   41.2545  130.8118 O   0  0  0  0  0  0  0  0  0  0  0  0
    8.5810   42.5156  131.3613 N   0  0  0  0  0  0  0  0  0  0  0  0
    9.2831   43.5115  132.0740 C   0  0  0  0  0  0  0  0  0  0  0  0
    8.5683   44.4826  132.7663 C   0  0  0  0  0  0  0  0  0  0  0  0
    9.2808   45.3924  133.5103 C   0  0  0  0  0  0  0  0  0  0  0  0
   10.6583   45.4099  133.6169 C   0  0  0  0  0  0  0  0  0  0  0  0
   11.3367   44.4428  132.9151 C   0  0  0  0  0  0  0  0  0  0  0  0
   10.6547   43.4951  132.1449 C   0  0  0  0  0  0  0  0  0  0  0  0
   11.4927   42.5557  131.3886 C   0  0  0  0  0  0  0  0  0  0  0  0
   10.6949   41.5208  130.6447 C   0  0  0  0  0  0  0  0  0  0  0  0
    9.3351   41.9615  130.2185 C   0  0  0  0  0  0  0  0  0  0  0  0
    9.2376   42.8554  129.0397 C   0  0  0  0  0  0  0  0  0  0  0  0
   11.3756   46.3786  134.4527 C   0  0  0  0  0  0  0  0  0  0  0  0
   12.7518   46.2803  134.6092 C   0  0  0  0  0  0  0  0  0  0  0  0
   13.4907   47.1868  135.3361 C   0  0  0  0  0  0  0  0  0  0  0  0
   12.8269   48.2440  135.9427 C   0  0  0  0  0  0  0  0  0  0  0  0
   11.4613   48.3721  135.8117 C   0  0  0  0  0  0  0  0  0  0  0  0
   10.7491   47.4315  135.0644 C   0  0  0  0  0  0  0  0  0  0  0  0
   13.6569   49.2304  136.7230 C   0  0  0  0  0  0  0  0  0  0  0  0
   13.0513   49.5028  137.9384 F   0  0  0  0  0  0  0  0  0  0  0  0
   13.8250   50.4082  136.0596 F   0  0  0  0  0  0  0  0  0  0  0  0
   14.8529   48.5899  137.0355 F   0  0  0  0  0  0  0  0  0  0  0  0
   12.2813   43.3473  130.4221 N   0  0  0  0  0  0  0  0  0  0  0  0
   13.3121   43.1836  130.4202 H   0  0  0  0  0  0  0  0  0  0  0  0
   11.6487   44.2821  129.5548 C   0  0  0  0  0  0  0  0  0  0  0  0
   11.1955   43.8786  128.3089 C   0  0  0  0  0  0  0  0  0  0  0  0
   10.5371   44.7954  127.5259 C   0  0  0  0  0  0  0  0  0  0  0  0
   10.3004   46.0939  127.9011 C   0  0  0  0  0  0  0  0  0  0  0  0
   10.7500   46.5137  129.1463 C   0  0  0  0  0  0  0  0  0  0  0  0
   11.4107   45.6044  129.9427 C   0  0  0  0  0  0  0  0  0  0  0  0
  1  2  1  0  0  0
  2  3  2  0  0  0
  2  4  1  0  0  0
  4  5  1  0  0  0
  5  6  2  0  0  0
  6  7  1  0  0  0
  7  8  2  0  0  0
  8 15  1  0  0  0
 15 16  2  0  0  0
 16 17  1  0  0  0
 17 18  2  0  0  0
 18 21  1  0  0  0
 21 22  1  0  0  0
 21 23  1  0  0  0
 21 24  1  0  0  0
 18 19  1  0  0  0
 19 20  2  0  0  0
  8  9  1  0  0  0
  9 10  2  0  0  0
 10 11  1  0  0  0
 11 25  1  0  0  0
 25 27  1  0  0  0
 27 28  2  0  0  0
 28 29  1  0  0  0
 29 30  2  0  0  0
 30 31  1  0  0  0
 31 32  2  0  0  0
 11 12  1  0  0  0
 12 13  1  0  0  0
 13 14  1  0  0  0
 13  4  1  0  0  0
 10  5  1  0  0  0
 32 27  1  0  0  0
 20 15  1  0  0  0
 25 26  1  0  0  0
M  END
> <minimizedAffinity>
18.57946

> <CNNscore>
0.5330138803

> <CNNaffinity>
7.3106522560

> <CNN_VS>
3.8966791630

> <CNNaffinity_variance>
1.5321871042

$$$$
[H]c1c([H])c([H])c(N([H])[C@@]2([H])c3c([H])c(-c4c([H])c([H])c(C(F)(F)F)c([H])c4[H])c([H])c([H])c3N(C(=O)C([H])([H])[H])[C@@]([H])(C([H])([H])[H])C2([H])[H])c([H])c1[H]


 32 35  0  0  0  0  0  0  0  0999 V2000
    6.1974   49.6131  128.7667 C   0  0  0  0  0  0  0  0  0  0  0  0
    6.9806   50.1294  129.8966 C   0  0  0  0  0  0  0  0  0  0  0  0
    6.7710   51.3419  130.2431 O   0  0  0  0  0  0  0  0  0  0  0  0
    7.9381   49.3673  130.5959 N   0  0  0  0  0  0  0  0  0  0  0  0
    8.1352   47.9714  130.5211 C   0  0  0  0  0  0  0  0  0  0  0  0
    7.0488   47.1455  130.2550 C   0  0  0  0  0  0  0  0  0  0  0  0
    7.2879   45.7994  130.1150 C   0  0  0  0  0  0  0  0  0  0  0  0
    8.5329   45.2095  130.2219 C   0  0  0  0  0  0  0  0  0  0  0  0
    9.5850   46.0507  130.4930 C   0  0  0  0  0  0  0  0  0  0  0  0
    9.3906   47.4278  130.6431 C   0  0  0  0  0  0  0  0  0  0  0  0
   10.5809   48.2117  130.9971 C   0  0  0  0  0  0  0  0  0  0  0  0
   10.3140   49.6897  131.0680 C   0  0  0  0  0  0  0  0  0  0  0  0
    8.9214   50.0597  131.4535 C   0  0  0  0  0  0  0  0  0  0  0  0
    8.5475   49.9436  132.8834 C   0  0  0  0  0  0  0  0  0  0  0  0
    8.7470   43.7714  130.0287 C   0  0  0  0  0  0  0  0  0  0  0  0
    9.6106   43.3218  129.0388 C   0  0  0  0  0  0  0  0  0  0  0  0
    9.8954   41.9893  128.8402 C   0  0  0  0  0  0  0  0  0  0  0  0
    9.2871   41.0543  129.6660 C   0  0  0  0  0  0  0  0  0  0  0  0
    8.4219   41.4633  130.6574 C   0  0  0  0  0  0  0  0  0  0  0  0
    8.1611   42.8248  130.8263 C   0  0  0  0  0  0  0  0  0  0  0  0
    9.6227   39.6029  129.4388 C   0  0  0  0  0  0  0  0  0  0  0  0
    8.4936   38.8214  129.6194 F   0  0  0  0  0  0  0  0  0  0  0  0
   10.5895   39.1537  130.2867 F   0  0  0  0  0  0  0  0  0  0  0  0
    9.9563   39.4741  128.0932 F   0  0  0  0  0  0  0  0  0  0  0  0
   11.0444   47.7385  132.3176 N   0  0  0  0  0  0  0  0  0  0  0  0
   11.2287   48.4737  133.0352 H   0  0  0  0  0  0  0  0  0  0  0  0
   11.2292   46.3503  132.5726 C   0  0  0  0  0  0  0  0  0  0  0  0
   10.4191   45.6973  133.4878 C   0  0  0  0  0  0  0  0  0  0  0  0
   10.5894   44.3454  133.6617 C   0  0  0  0  0  0  0  0  0  0  0  0
   11.5183   43.5966  132.9839 C   0  0  0  0  0  0  0  0  0  0  0  0
   12.3389   44.2372  132.0645 C   0  0  0  0  0  0  0  0  0  0  0  0
   12.1781   45.5927  131.8790 C   0  0  0  0  0  0  0  0  0  0  0  0
  1  2  1  0  0  0
  2  3  2  0  0  0
  2  4  1  0  0  0
  4  5  1  0  0  0
  5  6  2  0  0  0
  6  7  1  0  0  0
  7  8  2  0  0  0
  8 15  1  0  0  0
 15 16  2  0  0  0
 16 17  1  0  0  0
 17 18  2  0  0  0
 18 21  1  0  0  0
 21 22  1  0  0  0
 21 23  1  0  0  0
 21 24  1  0  0  0
 18 19  1  0  0  0
 19 20  2  0  0  0
  8  9  1  0  0  0
  9 10  2  0  0  0
 10 11  1  0  0  0
 11 25  1  0  0  0
 25 27  1  0  0  0
 27 28  2  0  0  0
 28 29  1  0  0  0
 29 30  2  0  0  0
 30 31  1  0  0  0
 31 32  2  0  0  0
 11 12  1  0  0  0
 12 13  1  0  0  0
 13 14  1  0  0  0
 13  4  1  0  0  0
 10  5  1  0  0  0
 32 27  1  0  0  0
 20 15  1  0  0  0
 25 26  1  0  0  0
M  END
> <minimizedAffinity>
7.60956

> <CNNscore>
0.5228887200

> <CNNaffinity>
7.7613782883

> <CNN_VS>
4.0583372116

> <CNNaffinity_variance>
0.6229464412

$$$$
[H]c1c([H])c([H])c(N([H])[C@@]2([H])c3c([H])c(-c4c([H])c([H])c(C(F)(F)F)c([H])c4[H])c([H])c([H])c3N(C(=O)C([H])([H])[H])[C@@]([H])(C([H])([H])[H])C2([H])[H])c([H])c1[H]


 32 35  0  0  0  0  0  0  0  0999 V2000
    7.9795   42.1756  132.8551 C   0  0  0  0  0  0  0  0  0  0  0  0
    9.3449   42.4001  133.3470 C   0  0  0  0  0  0  0  0  0  0  0  0
    9.9557   41.3940  133.8457 O   0  0  0  0  0  0  0  0  0  0  0  0
    9.9952   43.6498  133.3023 N   0  0  0  0  0  0  0  0  0  0  0  0
    9.5873   44.7969  132.5877 C   0  0  0  0  0  0  0  0  0  0  0  0
    8.8861   44.6417  131.3972 C   0  0  0  0  0  0  0  0  0  0  0  0
    8.4392   45.7774  130.7653 C   0  0  0  0  0  0  0  0  0  0  0  0
    8.6397   47.0630  131.2302 C   0  0  0  0  0  0  0  0  0  0  0  0
    9.3427   47.1841  132.4046 C   0  0  0  0  0  0  0  0  0  0  0  0
    9.8168   46.0569  133.0839 C   0  0  0  0  0  0  0  0  0  0  0  0
   10.6110   46.3189  134.2910 C   0  0  0  0  0  0  0  0  0  0  0  0
   11.0230   45.0641  135.0097 C   0  0  0  0  0  0  0  0  0  0  0  0
   11.1943   43.8667  134.1369 C   0  0  0  0  0  0  0  0  0  0  0  0
   12.4281   43.7799  133.3194 C   0  0  0  0  0  0  0  0  0  0  0  0
    8.1128   48.2456  130.5409 C   0  0  0  0  0  0  0  0  0  0  0  0
    8.3723   49.5158  131.0381 C   0  0  0  0  0  0  0  0  0  0  0  0
    7.9520   50.6673  130.4106 C   0  0  0  0  0  0  0  0  0  0  0  0
    7.2326   50.5503  129.2295 C   0  0  0  0  0  0  0  0  0  0  0  0
    6.9535   49.3059  128.7078 C   0  0  0  0  0  0  0  0  0  0  0  0
    7.3994   48.1629  129.3749 C   0  0  0  0  0  0  0  0  0  0  0  0
    6.7933   51.8235  128.5538 C   0  0  0  0  0  0  0  0  0  0  0  0
    7.0631   52.9103  129.3689 F   0  0  0  0  0  0  0  0  0  0  0  0
    5.4614   51.8279  128.2682 F   0  0  0  0  0  0  0  0  0  0  0  0
    7.6050   51.9842  127.4341 F   0  0  0  0  0  0  0  0  0  0  0  0
   11.8201   47.0573  133.8724 N   0  0  0  0  0  0  0  0  0  0  0  0
   11.9865   47.1299  132.8445 H   0  0  0  0  0  0  0  0  0  0  0  0
   12.7000   47.6248  134.8367 C   0  0  0  0  0  0  0  0  0  0  0  0
   12.3107   48.7389  135.5631 C   0  0  0  0  0  0  0  0  0  0  0  0
   13.1637   49.2205  136.5261 C   0  0  0  0  0  0  0  0  0  0  0  0
   14.3853   48.6660  136.8144 C   0  0  0  0  0  0  0  0  0  0  0  0
   14.7903   47.5500  136.0936 C   0  0  0  0  0  0  0  0  0  0  0  0
   13.9441   47.0554  135.1256 C   0  0  0  0  0  0  0  0  0  0  0  0
  1  2  1  0  0  0
  2  3  2  0  0  0
  2  4  1  0  0  0
  4  5  1  0  0  0
  5  6  2  0  0  0
  6  7  1  0  0  0
  7  8  2  0  0  0
  8 15  1  0  0  0
 15 16  2  0  0  0
 16 17  1  0  0  0
 17 18  2  0  0  0
 18 21  1  0  0  0
 21 22  1  0  0  0
 21 23  1  0  0  0
 21 24  1  0  0  0
 18 19  1  0  0  0
 19 20  2  0  0  0
  8  9  1  0  0  0
  9 10  2  0  0  0
 10 11  1  0  0  0
 11 25  1  0  0  0
 25 27  1  0  0  0
 27 28  2  0  0  0
 28 29  1  0  0  0
 29 30  2  0  0  0
 30 31  1  0  0  0
 31 32  2  0  0  0
 11 12  1  0  0  0
 12 13  1  0  0  0
 13 14  1  0  0  0
 13  4  1  0  0  0
 10  5  1  0  0  0
 32 27  1  0  0  0
 20 15  1  0  0  0
 25 26  1  0  0  0
M  END
> <minimizedAffinity>
12.13989

> <CNNscore>
0.4750125110

> <CNNaffinity>
7.4757666588

> <CNN_VS>
3.5510826111

> <CNNaffinity_variance>
1.7352702618

$$$$
[H]c1c([H])c([H])c(N([H])[C@@]2([H])c3c([H])c(-c4c([H])c([H])c(C(F)(F)F)c([H])c4[H])c([H])c([H])c3N(C(=O)C([H])([H])[H])[C@@]([H])(C([H])([H])[H])C2([H])[H])c([H])c1[H]


 32 35  0  0  0  0  0  0  0  0999 V2000
    5.3558   46.6233  131.8703 C   0  0  0  0  0  0  0  0  0  0  0  0
    6.0295   46.3083  130.6039 C   0  0  0  0  0  0  0  0  0  0  0  0
    5.2848   46.0898  129.5882 O   0  0  0  0  0  0  0  0  0  0  0  0
    7.4298   46.2299  130.4630 N   0  0  0  0  0  0  0  0  0  0  0  0
    8.4043   46.6640  131.3875 C   0  0  0  0  0  0  0  0  0  0  0  0
    8.1219   47.7455  132.2143 C   0  0  0  0  0  0  0  0  0  0  0  0
    9.0623   48.0953  133.1535 C   0  0  0  0  0  0  0  0  0  0  0  0
   10.2698   47.4476  133.3321 C   0  0  0  0  0  0  0  0  0  0  0  0
   10.5232   46.3880  132.4948 C   0  0  0  0  0  0  0  0  0  0  0  0
    9.5959   45.9947  131.5242 C   0  0  0  0  0  0  0  0  0  0  0  0
   10.0099   44.8921  130.6470 C   0  0  0  0  0  0  0  0  0  0  0  0
    8.9375   44.4734  129.6798 C   0  0  0  0  0  0  0  0  0  0  0  0
    7.9964   45.5580  129.2760 C   0  0  0  0  0  0  0  0  0  0  0  0
    8.4741   46.5524  128.2854 C   0  0  0  0  0  0  0  0  0  0  0  0
   11.2289   47.8332  134.3727 C   0  0  0  0  0  0  0  0  0  0  0  0
   12.5791   47.5497  134.2161 C   0  0  0  0  0  0  0  0  0  0  0  0
   13.5365   47.9306  135.1296 C   0  0  0  0  0  0  0  0  0  0  0  0
   13.1304   48.6261  136.2599 C   0  0  0  0  0  0  0  0  0  0  0  0
   11.7983   48.9226  136.4505 C   0  0  0  0  0  0  0  0  0  0  0  0
   10.8592   48.5192  135.4989 C   0  0  0  0  0  0  0  0  0  0  0  0
   14.1963   49.0435  137.2399 C   0  0  0  0  0  0  0  0  0  0  0  0
   14.5650   47.9653  138.0271 F   0  0  0  0  0  0  0  0  0  0  0  0
   13.7821   50.0472  138.0625 F   0  0  0  0  0  0  0  0  0  0  0  0
   15.3256   49.3650  136.4918 F   0  0  0  0  0  0  0  0  0  0  0  0
   11.1934   45.3502  129.8908 N   0  0  0  0  0  0  0  0  0  0  0  0
   11.6042   46.2645  130.1815 H   0  0  0  0  0  0  0  0  0  0  0  0
   11.7233   44.5731  128.8223 C   0  0  0  0  0  0  0  0  0  0  0  0
   13.0652   44.2273  128.8126 C   0  0  0  0  0  0  0  0  0  0  0  0
   13.5252   43.4266  127.7956 C   0  0  0  0  0  0  0  0  0  0  0  0
   12.7354   42.9464  126.7815 C   0  0  0  0  0  0  0  0  0  0  0  0
   11.3887   43.2857  126.7764 C   0  0  0  0  0  0  0  0  0  0  0  0
   10.9134   44.0871  127.7911 C   0  0  0  0  0  0  0  0  0  0  0  0
  1  2  1  0  0  0
  2  3  2  0  0  0
  2  4  1  0  0  0
  4  5  1  0  0  0
  5  6  2  0  0  0
  6  7  1  0  0  0
  7  8  2  0  0  0
  8 15  1  0  0  0
 15 16  2  0  0  0
 16 17  1  0  0  0
 17 18  2  0  0  0
 18 21  1  0  0  0
 21 22  1  0  0  0
 21 23  1  0  0  0
 21 24  1  0  0  0
 18 19  1  0  0  0
 19 20  2  0  0  0
  8  9  1  0  0  0
  9 10  2  0  0  0
 10 11  1  0  0  0
 11 25  1  0  0  0
 25 27  1  0  0  0
 27 28  2  0  0  0
 28 29  1  0  0  0
 29 30  2  0  0  0
 30 31  1  0  0  0
 31 32  2  0  0  0
 11 12  1  0  0  0
 12 13  1  0  0  0
 13 14  1  0  0  0
 13  4  1  0  0  0
 10  5  1  0  0  0
 32 27  1  0  0  0
 20 15  1  0  0  0
 25 26  1  0  0  0
M  END
> <minimizedAffinity>
39.76659

> <CNNscore>
0.4658861756

> <CNNaffinity>
7.1625928879

> <CNN_VS>
3.3369529247

> <CNNaffinity_variance>
3.4972100258

$$$$
[H]c1c([H])c([H])c(N([H])[C@@]2([H])c3c([H])c(-c4c([H])c([H])c(C(F)(F)F)c([H])c4[H])c([H])c([H])c3N(C(=O)C([H])([H])[H])[C@@]([H])(C([H])([H])[H])C2([H])[H])c([H])c1[H]


 32 35  0  0  0  0  0  0  0  0999 V2000
    9.8570   42.6150  126.9033 C   0  0  0  0  0  0  0  0  0  0  0  0
    9.0103   43.8150  126.9031 C   0  0  0  0  0  0  0  0  0  0  0  0
    8.4069   44.1001  125.8128 O   0  0  0  0  0  0  0  0  0  0  0  0
    8.8432   44.6527  128.0242 N   0  0  0  0  0  0  0  0  0  0  0  0
    9.2247   44.3797  129.3556 C   0  0  0  0  0  0  0  0  0  0  0  0
    9.2240   43.0644  129.8062 C   0  0  0  0  0  0  0  0  0  0  0  0
    9.6717   42.8254  131.0834 C   0  0  0  0  0  0  0  0  0  0  0  0
   10.1210   43.8021  131.9515 C   0  0  0  0  0  0  0  0  0  0  0  0
   10.1021   45.0926  131.4802 C   0  0  0  0  0  0  0  0  0  0  0  0
    9.6558   45.3844  130.1870 C   0  0  0  0  0  0  0  0  0  0  0  0
    9.6202   46.8068  129.8234 C   0  0  0  0  0  0  0  0  0  0  0  0
    9.2030   47.0407  128.3979 C   0  0  0  0  0  0  0  0  0  0  0  0
    8.2874   46.0077  127.8328 C   0  0  0  0  0  0  0  0  0  0  0  0
    6.8616   46.0544  128.2369 C   0  0  0  0  0  0  0  0  0  0  0  0
   10.6245   43.4967  133.2949 C   0  0  0  0  0  0  0  0  0  0  0  0
   11.7617   44.1328  133.7746 C   0  0  0  0  0  0  0  0  0  0  0  0
   12.2554   43.9305  135.0440 C   0  0  0  0  0  0  0  0  0  0  0  0
   11.5863   43.0466  135.8792 C   0  0  0  0  0  0  0  0  0  0  0  0
   10.4560   42.3948  135.4363 C   0  0  0  0  0  0  0  0  0  0  0  0
    9.9875   42.6293  134.1418 C   0  0  0  0  0  0  0  0  0  0  0  0
   12.1371   42.8498  137.2679 C   0  0  0  0  0  0  0  0  0  0  0  0
   11.7920   43.9238  138.0714 F   0  0  0  0  0  0  0  0  0  0  0  0
   13.4942   42.7320  137.2773 F   0  0  0  0  0  0  0  0  0  0  0  0
   11.4774   41.7497  137.8091 F   0  0  0  0  0  0  0  0  0  0  0  0
    8.6562   47.4691  130.7259 N   0  0  0  0  0  0  0  0  0  0  0  0
    7.6642   47.1516  130.6585 H   0  0  0  0  0  0  0  0  0  0  0  0
    9.0790   48.4879  131.6257 C   0  0  0  0  0  0  0  0  0  0  0  0
    9.6401   48.1486  132.8465 C   0  0  0  0  0  0  0  0  0  0  0  0
   10.0902   49.1591  133.6610 C   0  0  0  0  0  0  0  0  0  0  0  0
   10.0168   50.4914  133.3409 C   0  0  0  0  0  0  0  0  0  0  0  0
    9.4554   50.8474  132.1215 C   0  0  0  0  0  0  0  0  0  0  0  0
    9.0011   49.8441  131.2940 C   0  0  0  0  0  0  0  0  0  0  0  0
  1  2  1  0  0  0
  2  3  2  0  0  0
  2  4  1  0  0  0
  4  5  1  0  0  0
  5  6  2  0  0  0
  6  7  1  0  0  0
  7  8  2  0  0  0
  8 15  1  0  0  0
 15 16  2  0  0  0
 16 17  1  0  0  0
 17 18  2  0  0  0
 18 21  1  0  0  0
 21 22  1  0  0  0
 21 23  1  0  0  0
 21 24  1  0  0  0
 18 19  1  0  0  0
 19 20  2  0  0  0
  8  9  1  0  0  0
  9 10  2  0  0  0
 10 11  1  0  0  0
 11 25  1  0  0  0
 25 27  1  0  0  0
 27 28  2  0  0  0
 28 29  1  0  0  0
 29 30  2  0  0  0
 30 31  1  0  0  0
 31 32  2  0  0  0
 11 12  1  0  0  0
 12 13  1  0  0  0
 13 14  1  0  0  0
 13  4  1  0  0  0
 10  5  1  0  0  0
 32 27  1  0  0  0
 20 15  1  0  0  0
 25 26  1  0  0  0
M  END
> <minimizedAffinity>
25.44468

> <CNNscore>
0.4567229450

> <CNNaffinity>
7.5811796188

> <CNN_VS>
3.4624986649

> <CNNaffinity_variance>
2.0987906456

$$$$
[H]c1c([H])c([H])c(N([H])[C@@]2([H])c3c([H])c(-c4c([H])c([H])c(C(F)(F)F)c([H])c4[H])c([H])c([H])c3N(C(=O)C([H])([H])[H])[C@@]([H])(C([H])([H])[H])C2([H])[H])c([H])c1[H]


 32 35  0  0  0  0  0  0  0  0999 V2000
    4.8753   47.8477  128.2562 C   0  0  0  0  0  0  0  0  0  0  0  0
    5.4578   49.0022  128.9522 C   0  0  0  0  0  0  0  0  0  0  0  0
    4.8343   50.1140  128.8559 O   0  0  0  0  0  0  0  0  0  0  0  0
    6.6518   48.9428  129.6989 N   0  0  0  0  0  0  0  0  0  0  0  0
    7.3402   47.7820  130.1131 C   0  0  0  0  0  0  0  0  0  0  0  0
    6.6198   46.6218  130.3735 C   0  0  0  0  0  0  0  0  0  0  0  0
    7.3269   45.4900  130.7022 C   0  0  0  0  0  0  0  0  0  0  0  0
    8.7042   45.4256  130.7934 C   0  0  0  0  0  0  0  0  0  0  0  0
    9.3874   46.5901  130.5380 C   0  0  0  0  0  0  0  0  0  0  0  0
    8.7110   47.7666  130.1989 C   0  0  0  0  0  0  0  0  0  0  0  0
    9.5467   48.9602  130.0154 C   0  0  0  0  0  0  0  0  0  0  0  0
    8.7632   50.1673  129.5798 C   0  0  0  0  0  0  0  0  0  0  0  0
    7.3465   50.1994  130.0454 C   0  0  0  0  0  0  0  0  0  0  0  0
    7.0929   50.5692  131.4586 C   0  0  0  0  0  0  0  0  0  0  0  0
    9.4195   44.1855  131.1123 C   0  0  0  0  0  0  0  0  0  0  0  0
    9.3340   43.6391  132.3860 C   0  0  0  0  0  0  0  0  0  0  0  0
    9.9374   42.4516  132.7348 C   0  0  0  0  0  0  0  0  0  0  0  0
   10.6674   41.7735  131.7686 C   0  0  0  0  0  0  0  0  0  0  0  0
   10.7767   42.2869  130.4947 C   0  0  0  0  0  0  0  0  0  0  0  0
   10.1481   43.4940  130.1815 C   0  0  0  0  0  0  0  0  0  0  0  0
   11.3089   40.4701  132.1691 C   0  0  0  0  0  0  0  0  0  0  0  0
   12.6168   40.6886  132.5690 F   0  0  0  0  0  0  0  0  0  0  0  0
   11.3221   39.5631  131.1529 F   0  0  0  0  0  0  0  0  0  0  0  0
   10.6388   40.0255  133.3056 F   0  0  0  0  0  0  0  0  0  0  0  0
   10.1984   49.2460  131.3100 N   0  0  0  0  0  0  0  0  0  0  0  0
   10.7369   50.1381  131.3711 H   0  0  0  0  0  0  0  0  0  0  0  0
   10.0900   48.3360  132.3992 C   0  0  0  0  0  0  0  0  0  0  0  0
    8.9415   48.3124  133.1742 C   0  0  0  0  0  0  0  0  0  0  0  0
    8.8511   47.3794  134.1783 C   0  0  0  0  0  0  0  0  0  0  0  0
    9.8332   46.4651  134.4654 C   0  0  0  0  0  0  0  0  0  0  0  0
   10.9911   46.4773  133.6985 C   0  0  0  0  0  0  0  0  0  0  0  0
   11.0947   47.4070  132.6872 C   0  0  0  0  0  0  0  0  0  0  0  0
  1  2  1  0  0  0
  2  3  2  0  0  0
  2  4  1  0  0  0
  4  5  1  0  0  0
  5  6  2  0  0  0
  6  7  1  0  0  0
  7  8  2  0  0  0
  8 15  1  0  0  0
 15 16  2  0  0  0
 16 17  1  0  0  0
 17 18  2  0  0  0
 18 21  1  0  0  0
 21 22  1  0  0  0
 21 23  1  0  0  0
 21 24  1  0  0  0
 18 19  1  0  0  0
 19 20  2  0  0  0
  8  9  1  0  0  0
  9 10  2  0  0  0
 10 11  1  0  0  0
 11 25  1  0  0  0
 25 27  1  0  0  0
 27 28  2  0  0  0
 28 29  1  0  0  0
 29 30  2  0  0  0
 30 31  1  0  0  0
 31 32  2  0  0  0
 11 12  1  0  0  0
 12 13  1  0  0  0
 13 14  1  0  0  0
 13  4  1  0  0  0
 10  5  1  0  0  0
 32 27  1  0  0  0
 20 15  1  0  0  0
 25 26  1  0  0  0
M  END
> <minimizedAffinity>
5.49551

> <CNNscore>
0.4553378522

> <CNNaffinity>
7.8700361252

> <CNN_VS>
3.5835254192

> <CNNaffinity_variance>
1.2769132853

$$$$
[H]c1c([H])c([H])c(N([H])[C@@]2([H])c3c([H])c(-c4c([H])c([H])c(C(F)(F)F)c([H])c4[H])c([H])c([H])c3N(C(=O)C([H])([H])[H])[C@@]([H])(C([H])([H])[H])C2([H])[H])c([H])c1[H]


 32 35  0  0  0  0  0  0  0  0999 V2000
    7.3961   51.6457  130.6838 C   0  0  0  0  0  0  0  0  0  0  0  0
    7.1180   50.9026  129.4480 C   0  0  0  0  0  0  0  0  0  0  0  0
    6.6783   51.5737  128.4529 O   0  0  0  0  0  0  0  0  0  0  0  0
    7.3025   49.5116  129.3152 N   0  0  0  0  0  0  0  0  0  0  0  0
    7.9904   48.6553  130.2020 C   0  0  0  0  0  0  0  0  0  0  0  0
    9.0590   49.1557  130.9374 C   0  0  0  0  0  0  0  0  0  0  0  0
    9.6590   48.3169  131.8457 C   0  0  0  0  0  0  0  0  0  0  0  0
    9.2750   47.0099  132.0777 C   0  0  0  0  0  0  0  0  0  0  0  0
    8.2214   46.5420  131.3301 C   0  0  0  0  0  0  0  0  0  0  0  0
    7.5788   47.3590  130.3940 C   0  0  0  0  0  0  0  0  0  0  0  0
    6.5113   46.7245  129.6102 C   0  0  0  0  0  0  0  0  0  0  0  0
    5.8160   47.6790  128.6795 C   0  0  0  0  0  0  0  0  0  0  0  0
    6.6609   48.8056  128.1875 C   0  0  0  0  0  0  0  0  0  0  0  0
    7.6468   48.5132  127.1195 C   0  0  0  0  0  0  0  0  0  0  0  0
    9.9217   46.1614  133.0842 C   0  0  0  0  0  0  0  0  0  0  0  0
    9.2188   45.7577  134.2116 C   0  0  0  0  0  0  0  0  0  0  0  0
    9.7498   44.9195  135.1664 C   0  0  0  0  0  0  0  0  0  0  0  0
   11.0486   44.4617  134.9940 C   0  0  0  0  0  0  0  0  0  0  0  0
   11.7777   44.8438  133.8890 C   0  0  0  0  0  0  0  0  0  0  0  0
   11.2013   45.6944  132.9432 C   0  0  0  0  0  0  0  0  0  0  0  0
   11.6050   43.5360  136.0448 C   0  0  0  0  0  0  0  0  0  0  0  0
   11.0666   42.2689  135.8934 F   0  0  0  0  0  0  0  0  0  0  0  0
   11.3350   43.9630  137.3098 F   0  0  0  0  0  0  0  0  0  0  0  0
   12.9650   43.3994  135.7799 F   0  0  0  0  0  0  0  0  0  0  0  0
    7.1289   45.6398  128.8201 N   0  0  0  0  0  0  0  0  0  0  0  0
    6.5751   45.2823  128.0108 H   0  0  0  0  0  0  0  0  0  0  0  0
    8.4083   45.1209  129.1666 C   0  0  0  0  0  0  0  0  0  0  0  0
    8.5082   43.9721  129.9352 C   0  0  0  0  0  0  0  0  0  0  0  0
    9.7594   43.4696  130.1978 C   0  0  0  0  0  0  0  0  0  0  0  0
   10.9237   44.0381  129.7462 C   0  0  0  0  0  0  0  0  0  0  0  0
   10.8401   45.1909  128.9761 C   0  0  0  0  0  0  0  0  0  0  0  0
    9.5915   45.7051  128.7037 C   0  0  0  0  0  0  0  0  0  0  0  0
  1  2  1  0  0  0
  2  3  2  0  0  0
  2  4  1  0  0  0
  4  5  1  0  0  0
  5  6  2  0  0  0
  6  7  1  0  0  0
  7  8  2  0  0  0
  8 15  1  0  0  0
 15 16  2  0  0  0
 16 17  1  0  0  0
 17 18  2  0  0  0
 18 21  1  0  0  0
 21 22  1  0  0  0
 21 23  1  0  0  0
 21 24  1  0  0  0
 18 19  1  0  0  0
 19 20  2  0  0  0
  8  9  1  0  0  0
  9 10  2  0  0  0
 10 11  1  0  0  0
 11 25  1  0  0  0
 25 27  1  0  0  0
 27 28  2  0  0  0
 28 29  1  0  0  0
 29 30  2  0  0  0
 30 31  1  0  0  0
 31 32  2  0  0  0
 11 12  1  0  0  0
 12 13  1  0  0  0
 13 14  1  0  0  0
 13  4  1  0  0  0
 10  5  1  0  0  0
 32 27  1  0  0  0
 20 15  1  0  0  0
 25 26  1  0  0  0
M  END
> <minimizedAffinity>
2.15878

> <CNNscore>
0.4371839762

> <CNNaffinity>
7.7216653824

> <CNN_VS>
3.3757884502

> <CNNaffinity_variance>
0.9481161237

$$$$
[H]c1c([H])c([H])c(N([H])[C@@]2([H])c3c([H])c(-c4c([H])c([H])c(C(F)(F)F)c([H])c4[H])c([H])c([H])c3N(C(=O)C([H])([H])[H])[C@@]([H])(C([H])([H])[H])C2([H])[H])c([H])c1[H]


 32 35  0  0  0  0  0  0  0  0999 V2000
    8.8366   43.1775  127.1891 C   0  0  0  0  0  0  0  0  0  0  0  0
    8.2409   44.5187  127.2439 C   0  0  0  0  0  0  0  0  0  0  0  0
    7.5249   44.8776  126.2476 O   0  0  0  0  0  0  0  0  0  0  0  0
    8.4258   45.4117  128.3186 N   0  0  0  0  0  0  0  0  0  0  0  0
    8.9702   45.1164  129.5871 C   0  0  0  0  0  0  0  0  0  0  0  0
    8.8010   43.8430  130.1191 C   0  0  0  0  0  0  0  0  0  0  0  0
    9.4067   43.5663  131.3213 C   0  0  0  0  0  0  0  0  0  0  0  0
   10.1710   44.4664  132.0390 C   0  0  0  0  0  0  0  0  0  0  0  0
   10.3131   45.7186  131.4913 C   0  0  0  0  0  0  0  0  0  0  0  0
    9.7159   46.0463  130.2696 C   0  0  0  0  0  0  0  0  0  0  0  0
    9.8847   47.4346  129.8219 C   0  0  0  0  0  0  0  0  0  0  0  0
    9.2825   47.6954  128.4690 C   0  0  0  0  0  0  0  0  0  0  0  0
    8.1079   46.8415  128.1282 C   0  0  0  0  0  0  0  0  0  0  0  0
    6.8056   47.1793  128.7512 C   0  0  0  0  0  0  0  0  0  0  0  0
   10.8295   44.1159  133.3018 C   0  0  0  0  0  0  0  0  0  0  0  0
   10.1292   44.1935  134.4983 C   0  0  0  0  0  0  0  0  0  0  0  0
   10.6720   43.8290  135.7102 C   0  0  0  0  0  0  0  0  0  0  0  0
   11.9806   43.3673  135.7350 C   0  0  0  0  0  0  0  0  0  0  0  0
   12.7074   43.2796  134.5677 C   0  0  0  0  0  0  0  0  0  0  0  0
   12.1189   43.6581  133.3591 C   0  0  0  0  0  0  0  0  0  0  0  0
   12.5501   42.9626  137.0702 C   0  0  0  0  0  0  0  0  0  0  0  0
   12.0837   41.7073  137.4238 F   0  0  0  0  0  0  0  0  0  0  0  0
   12.2174   43.8338  138.0631 F   0  0  0  0  0  0  0  0  0  0  0  0
   13.9232   42.8159  136.8930 F   0  0  0  0  0  0  0  0  0  0  0  0
    9.2287   48.3034  130.8205 N   0  0  0  0  0  0  0  0  0  0  0  0
    9.5509   48.2004  131.8079 H   0  0  0  0  0  0  0  0  0  0  0  0
    8.2094   49.2193  130.4349 C   0  0  0  0  0  0  0  0  0  0  0  0
    8.4343   50.1159  129.4025 C   0  0  0  0  0  0  0  0  0  0  0  0
    7.4056   50.9424  129.0207 C   0  0  0  0  0  0  0  0  0  0  0  0
    6.1626   50.9374  129.6019 C   0  0  0  0  0  0  0  0  0  0  0  0
    5.9224   50.0455  130.6391 C   0  0  0  0  0  0  0  0  0  0  0  0
    6.9447   49.2098  131.0316 C   0  0  0  0  0  0  0  0  0  0  0  0
  1  2  1  0  0  0
  2  3  2  0  0  0
  2  4  1  0  0  0
  4  5  1  0  0  0
  5  6  2  0  0  0
  6  7  1  0  0  0
  7  8  2  0  0  0
  8 15  1  0  0  0
 15 16  2  0  0  0
 16 17  1  0  0  0
 17 18  2  0  0  0
 18 21  1  0  0  0
 21 22  1  0  0  0
 21 23  1  0  0  0
 21 24  1  0  0  0
 18 19  1  0  0  0
 19 20  2  0  0  0
  8  9  1  0  0  0
  9 10  2  0  0  0
 10 11  1  0  0  0
 11 25  1  0  0  0
 25 27  1  0  0  0
 27 28  2  0  0  0
 28 29  1  0  0  0
 29 30  2  0  0  0
 30 31  1  0  0  0
 31 32  2  0  0  0
 11 12  1  0  0  0
 12 13  1  0  0  0
 13 14  1  0  0  0
 13  4  1  0  0  0
 10  5  1  0  0  0
 32 27  1  0  0  0
 20 15  1  0  0  0
 25 26  1  0  0  0
M  END
> <minimizedAffinity>
26.77184

> <CNNscore>
0.4324058294

> <CNNaffinity>
7.5532445908

> <CNN_VS>
3.2660670280

> <CNNaffinity_variance>
1.9201539755

$$$$
[H]c1nc(OC2([H])C([H])([H])[C@@]3([H])N(C(=O)OC(C([H])([H])[H])(C([H])([H])[H])C([H])([H])[H])[C@]([H])(C2([H])[H])C([H])([H])C3([H])[H])c([N+](=O)[O-])c(N([H])c2c([H])c([H])c(S(=O)(=O)C([H])([H])[H])c([H])c2[H])n1


 37 40  0  0  0  0  0  0  0  0999 V2000
   11.5044   44.9422  132.9602 C   0  0  0  0  0  0  0  0  0  0  0  0
   12.7747   44.8327  133.7504 N   0  0  0  0  0  0  0  0  0  0  0  0
   13.1996   45.9577  134.6468 C   0  0  0  0  0  0  0  0  0  0  0  0
   12.3543   47.1922  134.7532 N   0  0  0  0  0  0  0  0  0  0  0  0
   11.0840   47.3018  133.9630 C   0  0  0  0  0  0  0  0  0  0  0  0
   10.6591   46.1768  133.0665 C   0  0  0  0  0  0  0  0  0  0  0  0
    9.3888   46.2863  132.2763 N   0  0  0  0  0  0  0  0  0  0  0  0
    8.0734   45.9678  132.9231 O   0  0  0  0  0  0  0  0  0  0  0  0
    9.0713   46.6723  130.8620 O   0  0  0  0  0  0  0  0  0  0  0  0
   10.2387   48.5364  134.0693 N   0  0  0  0  0  0  0  0  0  0  0  0
   10.1247   49.2566  135.3801 H   0  0  0  0  0  0  0  0  0  0  0  0
    9.5074   49.0506  132.8648 C   0  0  0  0  0  0  0  0  0  0  0  0
   10.2722   49.4590  131.6408 C   0  0  0  0  0  0  0  0  0  0  0  0
    9.5408   49.9732  130.4364 C   0  0  0  0  0  0  0  0  0  0  0  0
    8.0446   50.0789  130.4559 C   0  0  0  0  0  0  0  0  0  0  0  0
    7.2799   49.6705  131.6800 C   0  0  0  0  0  0  0  0  0  0  0  0
    8.0112   49.1563  132.8844 C   0  0  0  0  0  0  0  0  0  0  0  0
    7.3133   50.5931  129.2515 S   0  0  0  0  0  0  0  0  0  0  0  0
    6.5819   51.1074  128.0470 C   0  0  0  0  0  0  0  0  0  0  0  0
    7.6509   49.3343  128.5090 O   0  0  0  0  0  0  0  0  0  0  0  0
    6.9756   51.8520  129.9940 O   0  0  0  0  0  0  0  0  0  0  0  0
   11.0794   43.8172  132.0637 O   0  0  0  0  0  0  0  0  0  0  0  0
   11.3009   43.9040  130.7406 C   0  0  0  0  0  0  0  0  0  0  0  0
   12.7472   44.1102  131.0809 O   0  0  0  0  0  0  0  0  0  0  0  0
   10.5323   43.8389  129.4541 N   0  0  0  0  0  0  0  0  0  0  0  0
    9.0544   43.6196  129.3202 C   0  0  0  0  0  0  0  0  0  0  0  0
    8.7153   43.6268  127.8591 C   0  0  0  0  0  0  0  0  0  0  0  0
    9.9835   43.8505  127.0899 C   0  0  0  0  0  0  0  0  0  0  0  0
   11.1064   43.9815  128.0757 C   0  0  0  0  0  0  0  0  0  0  0  0
   12.0198   44.0722  129.2744 C   0  0  0  0  0  0  0  0  0  0  0  0
   11.3057   43.9111  130.5838 C   0  0  0  0  0  0  0  0  0  0  0  0
    9.8231   43.6848  130.6066 C   0  0  0  0  0  0  0  0  0  0  0  0
   10.5870   43.7429  132.0498 O   0  0  0  0  0  0  0  0  0  0  0  0
   11.6986   41.9456  132.2348 C   0  0  0  0  0  0  0  0  0  0  0  0
   10.3035   42.3708  132.5857 C   0  0  0  0  0  0  0  0  0  0  0  0
    8.9085   42.7961  132.9365 C   0  0  0  0  0  0  0  0  0  0  0  0
   10.0201   40.9988  133.1215 C   0  0  0  0  0  0  0  0  0  0  0  0
 34 35  1  0  0  0
 35 36  1  0  0  0
 35 37  1  0  0  0
 35 33  1  0  0  0
 33 23  1  0  0  0
 23 24  2  0  0  0
 23 25  1  0  0  0
 25 26  1  0  0  0
 26 27  1  0  0  0
 27 28  1  0  0  0
 28 29  1  0  0  0
 29 30  1  0  0  0
 30 31  1  0  0  0
 31 22  1  0  0  0
 22  1  1  0  0  0
  1  2  2  0  0  0
  2  3  1  0  0  0
  3  4  2  0  0  0
  4  5  1  0  0  0
  5 10  1  0  0  0
 10 12  1  0  0  0
 12 13  2  0  0  0
 13 14  1  0  0  0
 14 15  2  0  0  0
 15 18  1  0  0  0
 18 19  1  0  0  0
 18 20  2  0  0  0
 18 21  2  0  0  0
 15 16  1  0  0  0
 16 17  2  0  0  0
  5  6  2  0  0  0
  6  7  1  0  0  0
  7  8  2  0  0  0
  7  9  1  0  0  0
 31 32  1  0  0  0
 29 25  1  0  0  0
  6  1  1  0  0  0
 32 26  1  0  0  0
 17 12  1  0  0  0
 10 11  1  0  0  0
M  CHG 1   7   1
M  CHG 1   9  -1
M  END
> <minimizedAffinity>
5.55039

> <CNNscore>
0.0886440277

> <CNNaffinity>
7.1860036850

> <CNN_VS>
0.6369963288

> <CNNaffinity_variance>
0.3279452920

$$$$
[H]c1nc(OC2([H])C([H])([H])[C@@]3([H])N(C(=O)OC(C([H])([H])[H])(C([H])([H])[H])C([H])([H])[H])[C@]([H])(C2([H])[H])C([H])([H])C3([H])[H])c([N+](=O)[O-])c(N([H])c2c([H])c([H])c(S(=O)(=O)C([H])([H])[H])c([H])c2[H])n1


 37 40  0  0  0  0  0  0  0  0999 V2000
   10.0826   43.7854  131.3052 C   0  0  0  0  0  0  0  0  0  0  0  0
   10.2009   42.3834  130.7851 N   0  0  0  0  0  0  0  0  0  0  0  0
    9.9209   42.0933  129.3403 C   0  0  0  0  0  0  0  0  0  0  0  0
    9.5225   43.2052  128.4156 N   0  0  0  0  0  0  0  0  0  0  0  0
    9.4042   44.6072  128.9357 C   0  0  0  0  0  0  0  0  0  0  0  0
    9.6843   44.8973  130.3804 C   0  0  0  0  0  0  0  0  0  0  0  0
    9.5660   46.2992  130.9005 N   0  0  0  0  0  0  0  0  0  0  0  0
   10.7518   47.2169  130.8595 O   0  0  0  0  0  0  0  0  0  0  0  0
    8.4498   47.0932  131.5119 O   0  0  0  0  0  0  0  0  0  0  0  0
    9.0059   45.7191  128.0110 N   0  0  0  0  0  0  0  0  0  0  0  0
    9.4416   45.6934  126.5759 H   0  0  0  0  0  0  0  0  0  0  0  0
    8.1718   46.8565  128.5214 C   0  0  0  0  0  0  0  0  0  0  0  0
    6.7324   46.6303  128.8777 C   0  0  0  0  0  0  0  0  0  0  0  0
    5.8984   47.7678  129.3881 C   0  0  0  0  0  0  0  0  0  0  0  0
    6.5039   49.1315  129.5423 C   0  0  0  0  0  0  0  0  0  0  0  0
    7.9433   49.3577  129.1861 C   0  0  0  0  0  0  0  0  0  0  0  0
    8.7772   48.2202  128.6756 C   0  0  0  0  0  0  0  0  0  0  0  0
    5.6699   50.2690  130.0527 S   0  0  0  0  0  0  0  0  0  0  0  0
    4.8358   51.4065  130.5632 C   0  0  0  0  0  0  0  0  0  0  0  0
    6.9104   50.9650  130.5288 O   0  0  0  0  0  0  0  0  0  0  0  0
    4.4293   49.5731  129.5767 O   0  0  0  0  0  0  0  0  0  0  0  0
   10.3627   44.0756  132.7499 O   0  0  0  0  0  0  0  0  0  0  0  0
    9.4468   44.7266  133.4878 C   0  0  0  0  0  0  0  0  0  0  0  0
    8.5773   43.5152  133.3257 O   0  0  0  0  0  0  0  0  0  0  0  0
    9.2797   46.0431  134.1870 N   0  0  0  0  0  0  0  0  0  0  0  0
   10.2899   47.1509  134.2341 C   0  0  0  0  0  0  0  0  0  0  0  0
    9.7076   48.2754  135.0381 C   0  0  0  0  0  0  0  0  0  0  0  0
    8.3375   47.8626  135.4881 C   0  0  0  0  0  0  0  0  0  0  0  0
    8.0731   46.4830  134.9620 C   0  0  0  0  0  0  0  0  0  0  0  0
    8.0839   45.1194  134.3141 C   0  0  0  0  0  0  0  0  0  0  0  0
    9.3540   44.8187  133.5748 C   0  0  0  0  0  0  0  0  0  0  0  0
   10.4570   45.8345  133.5348 C   0  0  0  0  0  0  0  0  0  0  0  0
   10.7168   44.4259  132.7485 O   0  0  0  0  0  0  0  0  0  0  0  0
   12.7218   45.1031  132.6025 C   0  0  0  0  0  0  0  0  0  0  0  0
   11.9830   44.1635  133.5088 C   0  0  0  0  0  0  0  0  0  0  0  0
   11.2441   43.2239  134.4150 C   0  0  0  0  0  0  0  0  0  0  0  0
   13.2491   43.9011  134.2690 C   0  0  0  0  0  0  0  0  0  0  0  0
 34 35  1  0  0  0
 35 36  1  0  0  0
 35 37  1  0  0  0
 35 33  1  0  0  0
 33 23  1  0  0  0
 23 24  2  0  0  0
 23 25  1  0  0  0
 25 26  1  0  0  0
 26 27  1  0  0  0
 27 28  1  0  0  0
 28 29  1  0  0  0
 29 30  1  0  0  0
 30 31  1  0  0  0
 31 22  1  0  0  0
 22  1  1  0  0  0
  1  2  2  0  0  0
  2  3  1  0  0  0
  3  4  2  0  0  0
  4  5  1  0  0  0
  5 10  1  0  0  0
 10 12  1  0  0  0
 12 13  2  0  0  0
 13 14  1  0  0  0
 14 15  2  0  0  0
 15 18  1  0  0  0
 18 19  1  0  0  0
 18 20  2  0  0  0
 18 21  2  0  0  0
 15 16  1  0  0  0
 16 17  2  0  0  0
  5  6  2  0  0  0
  6  7  1  0  0  0
  7  8  2  0  0  0
  7  9  1  0  0  0
 31 32  1  0  0  0
 29 25  1  0  0  0
  6  1  1  0  0  0
 32 26  1  0  0  0
 17 12  1  0  0  0
 10 11  1  0  0  0
M  CHG 1   7   1
M  CHG 1   9  -1
M  END
> <minimizedAffinity>
2.65687

> <CNNscore>
0.0519417711

> <CNNaffinity>
6.8883285522

> <CNN_VS>
0.3577919900

> <CNNaffinity_variance>
0.1330597848

$$$$
[H]c1nc(OC2([H])C([H])([H])[C@@]3([H])N(C(=O)OC(C([H])([H])[H])(C([H])([H])[H])C([H])([H])[H])[C@]([H])(C2([H])[H])C([H])([H])C3([H])[H])c([N+](=O)[O-])c(N([H])c2c([H])c([H])c(S(=O)(=O)C([H])([H])[H])c([H])c2[H])n1


 37 40  0  0  0  0  0  0  0  0999 V2000
   11.3936   44.5660  131.4481 C   0  0  0  0  0  0  0  0  0  0  0  0
   12.7412   44.0941  130.9883 N   0  0  0  0  0  0  0  0  0  0  0  0
   13.1526   44.2789  129.5578 C   0  0  0  0  0  0  0  0  0  0  0  0
   12.2166   44.9358  128.5870 N   0  0  0  0  0  0  0  0  0  0  0  0
   10.8691   45.4078  129.0468 C   0  0  0  0  0  0  0  0  0  0  0  0
   10.4576   45.2229  130.4773 C   0  0  0  0  0  0  0  0  0  0  0  0
    9.1101   45.6948  130.9371 N   0  0  0  0  0  0  0  0  0  0  0  0
    7.9027   44.8279  130.7353 O   0  0  0  0  0  0  0  0  0  0  0  0
    8.6171   46.9388  131.6151 O   0  0  0  0  0  0  0  0  0  0  0  0
    9.9330   46.0646  128.0760 N   0  0  0  0  0  0  0  0  0  0  0  0
    9.9789   45.6951  126.6229 H   0  0  0  0  0  0  0  0  0  0  0  0
    8.9512   47.0909  128.5583 C   0  0  0  0  0  0  0  0  0  0  0  0
    9.4423   48.3790  129.1496 C   0  0  0  0  0  0  0  0  0  0  0  0
    8.4604   49.4053  129.6319 C   0  0  0  0  0  0  0  0  0  0  0  0
    6.9874   49.1435  129.5229 C   0  0  0  0  0  0  0  0  0  0  0  0
    6.4964   47.8554  128.9316 C   0  0  0  0  0  0  0  0  0  0  0  0
    7.4782   46.8291  128.4493 C   0  0  0  0  0  0  0  0  0  0  0  0
    6.0055   50.1697  130.0052 S   0  0  0  0  0  0  0  0  0  0  0  0
    5.0235   51.1960  130.4875 C   0  0  0  0  0  0  0  0  0  0  0  0
    7.1122   50.8981  130.7086 O   0  0  0  0  0  0  0  0  0  0  0  0
    4.8988   49.4415  129.3018 O   0  0  0  0  0  0  0  0  0  0  0  0
   10.9821   44.3812  132.8786 O   0  0  0  0  0  0  0  0  0  0  0  0
   10.8518   45.4542  133.6780 C   0  0  0  0  0  0  0  0  0  0  0  0
   12.3392   45.6131  133.5670 O   0  0  0  0  0  0  0  0  0  0  0  0
    9.7733   46.2126  134.3933 N   0  0  0  0  0  0  0  0  0  0  0  0
    8.3091   45.8871  134.3798 C   0  0  0  0  0  0  0  0  0  0  0  0
    7.6005   46.9031  135.2258 C   0  0  0  0  0  0  0  0  0  0  0  0
    8.6268   47.8565  135.7622 C   0  0  0  0  0  0  0  0  0  0  0  0
    9.9696   47.4298  135.2476 C   0  0  0  0  0  0  0  0  0  0  0  0
   11.1651   46.7801  134.5936 C   0  0  0  0  0  0  0  0  0  0  0  0
   10.8156   45.5751  133.7714 C   0  0  0  0  0  0  0  0  0  0  0  0
    9.3876   45.1287  133.6645 C   0  0  0  0  0  0  0  0  0  0  0  0
   10.5022   44.2492  132.8559 O   0  0  0  0  0  0  0  0  0  0  0  0
    8.9432   42.8160  132.7324 C   0  0  0  0  0  0  0  0  0  0  0  0
   10.2079   42.9416  133.5291 C   0  0  0  0  0  0  0  0  0  0  0  0
   11.4726   43.0671  134.3259 C   0  0  0  0  0  0  0  0  0  0  0  0
    9.9135   41.6339  134.2024 C   0  0  0  0  0  0  0  0  0  0  0  0
 34 35  1  0  0  0
 35 36  1  0  0  0
 35 37  1  0  0  0
 35 33  1  0  0  0
 33 23  1  0  0  0
 23 24  2  0  0  0
 23 25  1  0  0  0
 25 26  1  0  0  0
 26 27  1  0  0  0
 27 28  1  0  0  0
 28 29  1  0  0  0
 29 30  1  0  0  0
 30 31  1  0  0  0
 31 22  1  0  0  0
 22  1  1  0  0  0
  1  2  2  0  0  0
  2  3  1  0  0  0
  3  4  2  0  0  0
  4  5  1  0  0  0
  5 10  1  0  0  0
 10 12  1  0  0  0
 12 13  2  0  0  0
 13 14  1  0  0  0
 14 15  2  0  0  0
 15 18  1  0  0  0
 18 19  1  0  0  0
 18 20  2  0  0  0
 18 21  2  0  0  0
 15 16  1  0  0  0
 16 17  2  0  0  0
  5  6  2  0  0  0
  6  7  1  0  0  0
  7  8  2  0  0  0
  7  9  1  0  0  0
 31 32  1  0  0  0
 29 25  1  0  0  0
  6  1  1  0  0  0
 32 26  1  0  0  0
 17 12  1  0  0  0
 10 11  1  0  0  0
M  CHG 1   7   1
M  CHG 1   9  -1
M  END
> <minimizedAffinity>
2.89152

> <CNNscore>
0.0382256396

> <CNNaffinity>
6.8623542786

> <CNN_VS>
0.2623178959

> <CNNaffinity_variance>
0.1630149037

$$$$
[H]c1nc(OC2([H])C([H])([H])[C@@]3([H])N(C(=O)OC(C([H])([H])[H])(C([H])([H])[H])C([H])([H])[H])[C@]([H])(C2([H])[H])C([H])([H])C3([H])[H])c([N+](=O)[O-])c(N([H])c2c([H])c([H])c(S(=O)(=O)C([H])([H])[H])c([H])c2[H])n1


 37 40  0  0  0  0  0  0  0  0999 V2000
   10.9376   44.1387  131.0859 C   0  0  0  0  0  0  0  0  0  0  0  0
   12.3989   43.9572  130.8001 N   0  0  0  0  0  0  0  0  0  0  0  0
   13.0043   44.5680  129.5712 C   0  0  0  0  0  0  0  0  0  0  0  0
   12.1484   45.3603  128.6279 N   0  0  0  0  0  0  0  0  0  0  0  0
   10.6871   45.5419  128.9137 C   0  0  0  0  0  0  0  0  0  0  0  0
   10.0817   44.9311  130.1427 C   0  0  0  0  0  0  0  0  0  0  0  0
    8.6205   45.1126  130.4285 N   0  0  0  0  0  0  0  0  0  0  0  0
    7.6314   44.0873  129.9587 O   0  0  0  0  0  0  0  0  0  0  0  0
    7.8199   46.1656  131.1358 O   0  0  0  0  0  0  0  0  0  0  0  0
    9.8312   46.3342  127.9705 N   0  0  0  0  0  0  0  0  0  0  0  0
    9.9613   46.1319  126.4899 H   0  0  0  0  0  0  0  0  0  0  0  0
    8.8454   47.3288  128.5079 C   0  0  0  0  0  0  0  0  0  0  0  0
    9.3149   48.4518  129.3846 C   0  0  0  0  0  0  0  0  0  0  0  0
    8.3290   49.4463  129.9220 C   0  0  0  0  0  0  0  0  0  0  0  0
    6.8735   49.3179  129.5827 C   0  0  0  0  0  0  0  0  0  0  0  0
    6.4039   48.1950  128.7060 C   0  0  0  0  0  0  0  0  0  0  0  0
    7.3898   47.2005  128.1687 C   0  0  0  0  0  0  0  0  0  0  0  0
    5.8876   50.3124  130.1201 S   0  0  0  0  0  0  0  0  0  0  0  0
    4.9015   51.3070  130.6575 C   0  0  0  0  0  0  0  0  0  0  0  0
    7.0172   51.1531  130.6370 O   0  0  0  0  0  0  0  0  0  0  0  0
    4.7578   49.4718  129.6032 O   0  0  0  0  0  0  0  0  0  0  0  0
   10.3322   43.5280  132.3149 O   0  0  0  0  0  0  0  0  0  0  0  0
    9.5837   44.2706  133.1488 C   0  0  0  0  0  0  0  0  0  0  0  0
    8.5678   43.1689  133.0838 O   0  0  0  0  0  0  0  0  0  0  0  0
    9.6471   45.5888  133.8618 N   0  0  0  0  0  0  0  0  0  0  0  0
   10.7774   46.5728  133.7971 C   0  0  0  0  0  0  0  0  0  0  0  0
   10.4201   47.7466  134.6600 C   0  0  0  0  0  0  0  0  0  0  0  0
    9.0691   47.4880  135.2581 C   0  0  0  0  0  0  0  0  0  0  0  0
    8.5913   46.1544  134.7648 C   0  0  0  0  0  0  0  0  0  0  0  0
    8.3738   44.8068  134.1200 C   0  0  0  0  0  0  0  0  0  0  0  0
    9.5122   44.3716  133.2455 C   0  0  0  0  0  0  0  0  0  0  0  0
   10.7140   45.2546  133.0841 C   0  0  0  0  0  0  0  0  0  0  0  0
   10.7220   43.8354  132.2744 O   0  0  0  0  0  0  0  0  0  0  0  0
   10.0671   42.0461  131.3419 C   0  0  0  0  0  0  0  0  0  0  0  0
   11.1742   42.4052  132.2882 C   0  0  0  0  0  0  0  0  0  0  0  0
   12.2812   42.7644  133.2345 C   0  0  0  0  0  0  0  0  0  0  0  0
   11.6263   40.9751  132.3020 C   0  0  0  0  0  0  0  0  0  0  0  0
 34 35  1  0  0  0
 35 36  1  0  0  0
 35 37  1  0  0  0
 35 33  1  0  0  0
 33 23  1  0  0  0
 23 24  2  0  0  0
 23 25  1  0  0  0
 25 26  1  0  0  0
 26 27  1  0  0  0
 27 28  1  0  0  0
 28 29  1  0  0  0
 29 30  1  0  0  0
 30 31  1  0  0  0
 31 22  1  0  0  0
 22  1  1  0  0  0
  1  2  2  0  0  0
  2  3  1  0  0  0
  3  4  2  0  0  0
  4  5  1  0  0  0
  5 10  1  0  0  0
 10 12  1  0  0  0
 12 13  2  0  0  0
 13 14  1  0  0  0
 14 15  2  0  0  0
 15 18  1  0  0  0
 18 19  1  0  0  0
 18 20  2  0  0  0
 18 21  2  0  0  0
 15 16  1  0  0  0
 16 17  2  0  0  0
  5  6  2  0  0  0
  6  7  1  0  0  0
  7  8  2  0  0  0
  7  9  1  0  0  0
 31 32  1  0  0  0
 29 25  1  0  0  0
  6  1  1  0  0  0
 32 26  1  0  0  0
 17 12  1  0  0  0
 10 11  1  0  0  0
M  CHG 1   7   1
M  CHG 1   9  -1
M  END
> <minimizedAffinity>
1.05207

> <CNNscore>
0.0356312431

> <CNNaffinity>
6.7794632912

> <CNN_VS>
0.2415606976

> <CNNaffinity_variance>
0.1921776384

$$$$
[H]c1c([H])c(N([H])c2nc(N3C([H])([H])C([H])([H])C([H])([H])C3([H])[H])c3c([H])c([H])c([H])c([H])c3n2)c([H])c([H])c1OC([H])([H])[H]


 25 28  0  0  0  0  0  0  0  0999 V2000
    8.7273   46.3338  130.5092 C   0  0  0  0  0  0  0  0  0  0  0  0
    9.4457   45.6879  131.4315 N   0  0  0  0  0  0  0  0  0  0  0  0
   10.0305   44.4900  131.2256 C   0  0  0  0  0  0  0  0  0  0  0  0
    9.8748   43.9008  129.9917 C   0  0  0  0  0  0  0  0  0  0  0  0
   10.4272   42.6805  129.7053 C   0  0  0  0  0  0  0  0  0  0  0  0
   10.2258   42.1399  128.4468 C   0  0  0  0  0  0  0  0  0  0  0  0
    9.4966   42.7756  127.4773 C   0  0  0  0  0  0  0  0  0  0  0  0
    8.9373   43.9941  127.7470 C   0  0  0  0  0  0  0  0  0  0  0  0
    9.1273   44.5566  129.0082 C   0  0  0  0  0  0  0  0  0  0  0  0
    8.5947   45.7402  129.3251 N   0  0  0  0  0  0  0  0  0  0  0  0
   10.8073   43.8941  132.2642 N   0  0  0  0  0  0  0  0  0  0  0  0
   12.2265   43.9344  132.4157 C   0  0  0  0  0  0  0  0  0  0  0  0
   12.4960   43.6679  133.8986 C   0  0  0  0  0  0  0  0  0  0  0  0
   11.1351   43.6700  134.5102 C   0  0  0  0  0  0  0  0  0  0  0  0
   10.2632   43.1373  133.3665 C   0  0  0  0  0  0  0  0  0  0  0  0
    8.1377   47.5768  130.8209 N   0  0  0  0  0  0  0  0  0  0  0  0
    7.1720   47.7345  130.4003 H   0  0  0  0  0  0  0  0  0  0  0  0
    9.6908   50.8835  133.0063 C   0  0  0  0  0  0  0  0  0  0  0  0
    9.7401   49.6192  133.5357 C   0  0  0  0  0  0  0  0  0  0  0  0
    9.2317   48.5010  132.8534 C   0  0  0  0  0  0  0  0  0  0  0  0
    8.6573   48.6182  131.6147 C   0  0  0  0  0  0  0  0  0  0  0  0
    8.6161   49.9208  131.0900 C   0  0  0  0  0  0  0  0  0  0  0  0
    9.1154   51.0097  131.7642 C   0  0  0  0  0  0  0  0  0  0  0  0
    9.3512   52.7778  134.4949 C   0  0  0  0  0  0  0  0  0  0  0  0
   10.1966   51.9773  133.6913 O   0  0  0  0  0  0  0  0  0  0  0  0
 24 25  1  0  0  0
 25 18  1  0  0  0
 18 19  2  0  0  0
 19 20  1  0  0  0
 20 21  2  0  0  0
 21 16  1  0  0  0
 16  1  1  0  0  0
  1  2  2  0  0  0
  2  3  1  0  0  0
  3 11  1  0  0  0
 11 12  1  0  0  0
 12 13  1  0  0  0
 13 14  1  0  0  0
 14 15  1  0  0  0
  3  4  2  0  0  0
  4  5  1  0  0  0
  5  6  2  0  0  0
  6  7  1  0  0  0
  7  8  2  0  0  0
  8  9  1  0  0  0
  9 10  2  0  0  0
 21 22  1  0  0  0
 22 23  2  0  0  0
 23 18  1  0  0  0
 10  1  1  0  0  0
 15 11  1  0  0  0
  9  4  1  0  0  0
 16 17  1  0  0  0
M  END
> <minimizedAffinity>
4.20700

> <CNNscore>
0.4892653525

> <CNNaffinity>
7.4447898865

> <CNN_VS>
3.6424777508

> <CNNaffinity_variance>
2.3971621990

$$$$
[H]c1c([H])c(N([H])c2nc(N3C([H])([H])C([H])([H])C([H])([H])C3([H])[H])c3c([H])c([H])c([H])c([H])c3n2)c([H])c([H])c1OC([H])([H])[H]


 25 28  0  0  0  0  0  0  0  0999 V2000
   10.5298   44.3132  132.1381 C   0  0  0  0  0  0  0  0  0  0  0  0
   11.7520   44.3431  131.6004 N   0  0  0  0  0  0  0  0  0  0  0  0
   11.9997   44.1661  130.2864 C   0  0  0  0  0  0  0  0  0  0  0  0
   10.9276   43.9406  129.4535 C   0  0  0  0  0  0  0  0  0  0  0  0
   11.0944   43.7404  128.1087 C   0  0  0  0  0  0  0  0  0  0  0  0
    9.9743   43.5109  127.3282 C   0  0  0  0  0  0  0  0  0  0  0  0
    8.7069   43.4756  127.8461 C   0  0  0  0  0  0  0  0  0  0  0  0
    8.5228   43.6724  129.1869 C   0  0  0  0  0  0  0  0  0  0  0  0
    9.6371   43.9049  129.9915 C   0  0  0  0  0  0  0  0  0  0  0  0
    9.5122   44.0942  131.3082 N   0  0  0  0  0  0  0  0  0  0  0  0
   13.3396   44.2490  129.8016 N   0  0  0  0  0  0  0  0  0  0  0  0
   14.4756   43.5201  130.2675 C   0  0  0  0  0  0  0  0  0  0  0  0
   15.4816   43.5326  129.1141 C   0  0  0  0  0  0  0  0  0  0  0  0
   14.7205   44.1497  127.9890 C   0  0  0  0  0  0  0  0  0  0  0  0
   13.7719   45.1055  128.7230 C   0  0  0  0  0  0  0  0  0  0  0  0
   10.3686   44.4918  133.5281 N   0  0  0  0  0  0  0  0  0  0  0  0
   10.7427   43.6968  134.1300 H   0  0  0  0  0  0  0  0  0  0  0  0
    8.6689   47.6529  135.8175 C   0  0  0  0  0  0  0  0  0  0  0  0
    8.4978   47.6137  134.4572 C   0  0  0  0  0  0  0  0  0  0  0  0
    9.0482   46.5944  133.6619 C   0  0  0  0  0  0  0  0  0  0  0  0
    9.7888   45.5798  134.2099 C   0  0  0  0  0  0  0  0  0  0  0  0
    9.9529   45.6380  135.6039 C   0  0  0  0  0  0  0  0  0  0  0  0
    9.4113   46.6390  136.3748 C   0  0  0  0  0  0  0  0  0  0  0  0
    6.9669   49.3589  136.1523 C   0  0  0  0  0  0  0  0  0  0  0  0
    8.1196   48.6650  136.5891 O   0  0  0  0  0  0  0  0  0  0  0  0
 24 25  1  0  0  0
 25 18  1  0  0  0
 18 19  2  0  0  0
 19 20  1  0  0  0
 20 21  2  0  0  0
 21 16  1  0  0  0
 16  1  1  0  0  0
  1  2  2  0  0  0
  2  3  1  0  0  0
  3 11  1  0  0  0
 11 12  1  0  0  0
 12 13  1  0  0  0
 13 14  1  0  0  0
 14 15  1  0  0  0
  3  4  2  0  0  0
  4  5  1  0  0  0
  5  6  2  0  0  0
  6  7  1  0  0  0
  7  8  2  0  0  0
  8  9  1  0  0  0
  9 10  2  0  0  0
 21 22  1  0  0  0
 22 23  2  0  0  0
 23 18  1  0  0  0
 10  1  1  0  0  0
 15 11  1  0  0  0
  9  4  1  0  0  0
 16 17  1  0  0  0
M  END
> <minimizedAffinity>
13.39520

> <CNNscore>
0.4070484042

> <CNNaffinity>
6.9187912941

> <CNN_VS>
2.8162829876

> <CNNaffinity_variance>
2.4538898468

$$$$
[H]c1c([H])c(N([H])c2nc(N3C([H])([H])C([H])([H])C([H])([H])C3([H])[H])c3c([H])c([H])c([H])c([H])c3n2)c([H])c([H])c1OC([H])([H])[H]


 25 28  0  0  0  0  0  0  0  0999 V2000
   10.2525   44.5719  132.4643 C   0  0  0  0  0  0  0  0  0  0  0  0
    9.9932   45.8178  132.0590 N   0  0  0  0  0  0  0  0  0  0  0  0
    9.7436   46.8444  132.8976 C   0  0  0  0  0  0  0  0  0  0  0  0
    9.7567   46.5894  134.2498 C   0  0  0  0  0  0  0  0  0  0  0  0
    9.5025   47.5741  135.1675 C   0  0  0  0  0  0  0  0  0  0  0  0
    9.5234   47.2487  136.5129 C   0  0  0  0  0  0  0  0  0  0  0  0
    9.7874   45.9825  136.9632 C   0  0  0  0  0  0  0  0  0  0  0  0
   10.0422   44.9873  136.0603 C   0  0  0  0  0  0  0  0  0  0  0  0
   10.0259   45.2930  134.7005 C   0  0  0  0  0  0  0  0  0  0  0  0
   10.2594   44.3553  133.7778 N   0  0  0  0  0  0  0  0  0  0  0  0
    9.5098   48.1493  132.3685 N   0  0  0  0  0  0  0  0  0  0  0  0
    8.3542   48.6034  131.6634 C   0  0  0  0  0  0  0  0  0  0  0  0
    8.3426   50.1262  131.8173 C   0  0  0  0  0  0  0  0  0  0  0  0
    9.4491   50.3915  132.7823 C   0  0  0  0  0  0  0  0  0  0  0  0
   10.4315   49.2554  132.4717 C   0  0  0  0  0  0  0  0  0  0  0  0
   10.4850   43.5570  131.5125 N   0  0  0  0  0  0  0  0  0  0  0  0
   10.6977   42.5971  131.9218 H   0  0  0  0  0  0  0  0  0  0  0  0
   10.5603   44.0729  127.2875 C   0  0  0  0  0  0  0  0  0  0  0  0
    9.7451   43.1271  127.8551 C   0  0  0  0  0  0  0  0  0  0  0  0
    9.6951   42.9170  129.2435 C   0  0  0  0  0  0  0  0  0  0  0  0
   10.4637   43.6528  130.1072 C   0  0  0  0  0  0  0  0  0  0  0  0
   11.2918   44.6157  129.5067 C   0  0  0  0  0  0  0  0  0  0  0  0
   11.3352   44.8148  128.1472 C   0  0  0  0  0  0  0  0  0  0  0  0
   10.2416   45.5182  125.3565 C   0  0  0  0  0  0  0  0  0  0  0  0
   10.5989   44.2690  125.9158 O   0  0  0  0  0  0  0  0  0  0  0  0
 24 25  1  0  0  0
 25 18  1  0  0  0
 18 19  2  0  0  0
 19 20  1  0  0  0
 20 21  2  0  0  0
 21 16  1  0  0  0
 16  1  1  0  0  0
  1  2  2  0  0  0
  2  3  1  0  0  0
  3 11  1  0  0  0
 11 12  1  0  0  0
 12 13  1  0  0  0
 13 14  1  0  0  0
 14 15  1  0  0  0
  3  4  2  0  0  0
  4  5  1  0  0  0
  5  6  2  0  0  0
  6  7  1  0  0  0
  7  8  2  0  0  0
  8  9  1  0  0  0
  9 10  2  0  0  0
 21 22  1  0  0  0
 22 23  2  0  0  0
 23 18  1  0  0  0
 10  1  1  0  0  0
 15 11  1  0  0  0
  9  4  1  0  0  0
 16 17  1  0  0  0
M  END
> <minimizedAffinity>
8.22776

> <CNNscore>
0.4012849331

> <CNNaffinity>
6.9091033936

> <CNN_VS>
2.7725191116

> <CNNaffinity_variance>
1.5157008171

$$$$
[H]c1c([H])c(N([H])c2nc(N3C([H])([H])C([H])([H])C([H])([H])C3([H])[H])c3c([H])c([H])c([H])c([H])c3n2)c([H])c([H])c1OC([H])([H])[H]


 25 28  0  0  0  0  0  0  0  0999 V2000
    9.9869   46.4426  131.3637 C   0  0  0  0  0  0  0  0  0  0  0  0
    9.0198   46.7810  130.5070 N   0  0  0  0  0  0  0  0  0  0  0  0
    8.4947   48.0202  130.4174 C   0  0  0  0  0  0  0  0  0  0  0  0
    8.9859   48.9905  131.2607 C   0  0  0  0  0  0  0  0  0  0  0  0
    8.4992   50.2707  131.2409 C   0  0  0  0  0  0  0  0  0  0  0  0
    9.0319   51.1967  132.1214 C   0  0  0  0  0  0  0  0  0  0  0  0
   10.0250   50.8844  133.0113 C   0  0  0  0  0  0  0  0  0  0  0  0
   10.5214   49.6105  133.0450 C   0  0  0  0  0  0  0  0  0  0  0  0
    9.9991   48.6621  132.1672 C   0  0  0  0  0  0  0  0  0  0  0  0
   10.4430   47.4019  132.1662 N   0  0  0  0  0  0  0  0  0  0  0  0
    7.4856   48.2924  129.4453 N   0  0  0  0  0  0  0  0  0  0  0  0
    6.6653   47.3455  128.7603 C   0  0  0  0  0  0  0  0  0  0  0  0
    5.4299   48.1211  128.2968 C   0  0  0  0  0  0  0  0  0  0  0  0
    5.5920   49.4584  128.9383 C   0  0  0  0  0  0  0  0  0  0  0  0
    7.1171   49.6119  128.9904 C   0  0  0  0  0  0  0  0  0  0  0  0
   10.4630   45.1152  131.3980 N   0  0  0  0  0  0  0  0  0  0  0  0
   11.2867   44.9162  130.7529 H   0  0  0  0  0  0  0  0  0  0  0  0
    8.8014   41.9255  133.6755 C   0  0  0  0  0  0  0  0  0  0  0  0
   10.1262   42.2545  133.8088 C   0  0  0  0  0  0  0  0  0  0  0  0
   10.7180   43.2935  133.0710 C   0  0  0  0  0  0  0  0  0  0  0  0
    9.9954   44.0368  132.1745 C   0  0  0  0  0  0  0  0  0  0  0  0
    8.6410   43.6843  132.0522 C   0  0  0  0  0  0  0  0  0  0  0  0
    8.0697   42.6660  132.7777 C   0  0  0  0  0  0  0  0  0  0  0  0
    9.0407   40.0201  135.1694 C   0  0  0  0  0  0  0  0  0  0  0  0
    8.2313   40.8977  134.4105 O   0  0  0  0  0  0  0  0  0  0  0  0
 24 25  1  0  0  0
 25 18  1  0  0  0
 18 19  2  0  0  0
 19 20  1  0  0  0
 20 21  2  0  0  0
 21 16  1  0  0  0
 16  1  1  0  0  0
  1  2  2  0  0  0
  2  3  1  0  0  0
  3 11  1  0  0  0
 11 12  1  0  0  0
 12 13  1  0  0  0
 13 14  1  0  0  0
 14 15  1  0  0  0
  3  4  2  0  0  0
  4  5  1  0  0  0
  5  6  2  0  0  0
  6  7  1  0  0  0
  7  8  2  0  0  0
  8  9  1  0  0  0
  9 10  2  0  0  0
 21 22  1  0  0  0
 22 23  2  0  0  0
 23 18  1  0  0  0
 10  1  1  0  0  0
 15 11  1  0  0  0
  9  4  1  0  0  0
 16 17  1  0  0  0
M  END
> <minimizedAffinity>
7.10830

> <CNNscore>
0.3950967789

> <CNNaffinity>
7.0949058533

> <CNN_VS>
2.8031744957

> <CNNaffinity_variance>
1.6113471985

$$$$
[H]c1c([H])c(N([H])c2nc(N3C([H])([H])C([H])([H])C([H])([H])C3([H])[H])c3c([H])c([H])c([H])c([H])c3n2)c([H])c([H])c1OC([H])([H])[H]


 25 28  0  0  0  0  0  0  0  0999 V2000
    7.4687   46.3107  129.6457 C   0  0  0  0  0  0  0  0  0  0  0  0
    8.3398   47.0312  130.3569 N   0  0  0  0  0  0  0  0  0  0  0  0
    8.1773   48.3396  130.6420 C   0  0  0  0  0  0  0  0  0  0  0  0
    7.0467   48.9662  130.1697 C   0  0  0  0  0  0  0  0  0  0  0  0
    6.8120   50.2949  130.4059 C   0  0  0  0  0  0  0  0  0  0  0  0
    5.6588   50.8659  129.8954 C   0  0  0  0  0  0  0  0  0  0  0  0
    4.7438   50.1563  129.1639 C   0  0  0  0  0  0  0  0  0  0  0  0
    4.9633   48.8290  128.9180 C   0  0  0  0  0  0  0  0  0  0  0  0
    6.1185   48.2340  129.4224 C   0  0  0  0  0  0  0  0  0  0  0  0
    6.3842   46.9431  129.2028 N   0  0  0  0  0  0  0  0  0  0  0  0
    9.1493   49.0160  131.4389 N   0  0  0  0  0  0  0  0  0  0  0  0
    9.1708   50.4003  131.7883 C   0  0  0  0  0  0  0  0  0  0  0  0
   10.0303   50.4991  133.0509 C   0  0  0  0  0  0  0  0  0  0  0  0
   10.2882   49.0751  133.4141 C   0  0  0  0  0  0  0  0  0  0  0  0
   10.2986   48.3862  132.0439 C   0  0  0  0  0  0  0  0  0  0  0  0
    7.7313   44.9500  129.3823 N   0  0  0  0  0  0  0  0  0  0  0  0
    7.1098   44.5078  128.6391 H   0  0  0  0  0  0  0  0  0  0  0  0
   10.5633   42.4836  131.3871 C   0  0  0  0  0  0  0  0  0  0  0  0
   10.7489   42.8218  130.0709 C   0  0  0  0  0  0  0  0  0  0  0  0
    9.8357   43.6257  129.3680 C   0  0  0  0  0  0  0  0  0  0  0  0
    8.7052   44.1168  129.9672 C   0  0  0  0  0  0  0  0  0  0  0  0
    8.5331   43.7591  131.3148 C   0  0  0  0  0  0  0  0  0  0  0  0
    9.4312   42.9717  131.9953 C   0  0  0  0  0  0  0  0  0  0  0  0
   12.4763   42.2742  132.8757 C   0  0  0  0  0  0  0  0  0  0  0  0
   11.4732   41.6895  132.0676 O   0  0  0  0  0  0  0  0  0  0  0  0
 24 25  1  0  0  0
 25 18  1  0  0  0
 18 19  2  0  0  0
 19 20  1  0  0  0
 20 21  2  0  0  0
 21 16  1  0  0  0
 16  1  1  0  0  0
  1  2  2  0  0  0
  2  3  1  0  0  0
  3 11  1  0  0  0
 11 12  1  0  0  0
 12 13  1  0  0  0
 13 14  1  0  0  0
 14 15  1  0  0  0
  3  4  2  0  0  0
  4  5  1  0  0  0
  5  6  2  0  0  0
  6  7  1  0  0  0
  7  8  2  0  0  0
  8  9  1  0  0  0
  9 10  2  0  0  0
 21 22  1  0  0  0
 22 23  2  0  0  0
 23 18  1  0  0  0
 10  1  1  0  0  0
 15 11  1  0  0  0
  9  4  1  0  0  0
 16 17  1  0  0  0
M  END
> <minimizedAffinity>
-1.64131

> <CNNscore>
0.3873513043

> <CNNaffinity>
6.9899435043

> <CNN_VS>
2.7075636387

> <CNNaffinity_variance>
0.6101146936

$$$$
[H]c1c([H])c(N([H])c2nc(N3C([H])([H])C([H])([H])C([H])([H])C3([H])[H])c3c([H])c([H])c([H])c([H])c3n2)c([H])c([H])c1OC([H])([H])[H]


 25 28  0  0  0  0  0  0  0  0999 V2000
    9.3752   46.2265  131.4930 C   0  0  0  0  0  0  0  0  0  0  0  0
    8.3505   46.5046  130.6828 N   0  0  0  0  0  0  0  0  0  0  0  0
    7.8894   47.7514  130.4548 C   0  0  0  0  0  0  0  0  0  0  0  0
    8.5132   48.7964  131.0972 C   0  0  0  0  0  0  0  0  0  0  0  0
    8.0994   50.0913  130.9283 C   0  0  0  0  0  0  0  0  0  0  0  0
    8.7655   51.0950  131.6104 C   0  0  0  0  0  0  0  0  0  0  0  0
    9.8208   50.8457  132.4471 C   0  0  0  0  0  0  0  0  0  0  0  0
   10.2460   49.5585  132.6279 C   0  0  0  0  0  0  0  0  0  0  0  0
    9.5891   48.5322  131.9509 C   0  0  0  0  0  0  0  0  0  0  0  0
    9.9596   47.2572  132.0999 N   0  0  0  0  0  0  0  0  0  0  0  0
    6.8081   47.9505  129.5445 N   0  0  0  0  0  0  0  0  0  0  0  0
    6.0213   46.9469  128.9020 C   0  0  0  0  0  0  0  0  0  0  0  0
    4.7072   47.6301  128.5160 C   0  0  0  0  0  0  0  0  0  0  0  0
    4.8074   48.9743  129.1558 C   0  0  0  0  0  0  0  0  0  0  0  0
    6.3174   49.2401  129.1205 C   0  0  0  0  0  0  0  0  0  0  0  0
    9.7774   44.8880  131.6840 N   0  0  0  0  0  0  0  0  0  0  0  0
    9.3007   44.1800  131.0470 H   0  0  0  0  0  0  0  0  0  0  0  0
   12.4730   43.4237  134.6356 C   0  0  0  0  0  0  0  0  0  0  0  0
   12.8734   43.5396  133.3289 C   0  0  0  0  0  0  0  0  0  0  0  0
   12.0146   44.0096  132.3211 C   0  0  0  0  0  0  0  0  0  0  0  0
   10.7237   44.3794  132.5953 C   0  0  0  0  0  0  0  0  0  0  0  0
   10.3328   44.2530  133.9387 C   0  0  0  0  0  0  0  0  0  0  0  0
   11.1792   43.7920  134.9188 C   0  0  0  0  0  0  0  0  0  0  0  0
   14.6764   43.3954  135.6670 C   0  0  0  0  0  0  0  0  0  0  0  0
   13.3318   42.9584  135.6192 O   0  0  0  0  0  0  0  0  0  0  0  0
 24 25  1  0  0  0
 25 18  1  0  0  0
 18 19  2  0  0  0
 19 20  1  0  0  0
 20 21  2  0  0  0
 21 16  1  0  0  0
 16  1  1  0  0  0
  1  2  2  0  0  0
  2  3  1  0  0  0
  3 11  1  0  0  0
 11 12  1  0  0  0
 12 13  1  0  0  0
 13 14  1  0  0  0
 14 15  1  0  0  0
  3  4  2  0  0  0
  4  5  1  0  0  0
  5  6  2  0  0  0
  6  7  1  0  0  0
  7  8  2  0  0  0
  8  9  1  0  0  0
  9 10  2  0  0  0
 21 22  1  0  0  0
 22 23  2  0  0  0
 23 18  1  0  0  0
 10  1  1  0  0  0
 15 11  1  0  0  0
  9  4  1  0  0  0
 16 17  1  0  0  0
M  END
> <minimizedAffinity>
9.23274

> <CNNscore>
0.3731519282

> <CNNaffinity>
7.0213141441

> <CNN_VS>
2.6200168133

> <CNNaffinity_variance>
1.6750606298

$$$$
[H]c1c([H])c(N([H])c2nc(N3C([H])([H])C([H])([H])C([H])([H])C3([H])[H])c3c([H])c([H])c([H])c([H])c3n2)c([H])c([H])c1OC([H])([H])[H]


 25 28  0  0  0  0  0  0  0  0999 V2000
    9.1688   47.3320  131.1486 C   0  0  0  0  0  0  0  0  0  0  0  0
    9.8319   46.1900  130.9487 N   0  0  0  0  0  0  0  0  0  0  0  0
   10.2676   45.3899  131.9433 C   0  0  0  0  0  0  0  0  0  0  0  0
   10.0131   45.7765  133.2394 C   0  0  0  0  0  0  0  0  0  0  0  0
   10.4311   45.0260  134.3064 C   0  0  0  0  0  0  0  0  0  0  0  0
   10.1493   45.4759  135.5849 C   0  0  0  0  0  0  0  0  0  0  0  0
    9.4702   46.6406  135.8258 C   0  0  0  0  0  0  0  0  0  0  0  0
    9.0467   47.4024  134.7719 C   0  0  0  0  0  0  0  0  0  0  0  0
    9.3202   46.9681  133.4759 C   0  0  0  0  0  0  0  0  0  0  0  0
    8.9363   47.6799  132.4124 N   0  0  0  0  0  0  0  0  0  0  0  0
   10.9392   44.1706  131.6277 N   0  0  0  0  0  0  0  0  0  0  0  0
   12.3256   43.8759  131.8008 C   0  0  0  0  0  0  0  0  0  0  0  0
   12.4239   42.3496  131.8599 C   0  0  0  0  0  0  0  0  0  0  0  0
   10.9998   41.9053  131.8866 C   0  0  0  0  0  0  0  0  0  0  0  0
   10.3015   43.0010  131.0717 C   0  0  0  0  0  0  0  0  0  0  0  0
    8.7666   48.1138  130.0454 N   0  0  0  0  0  0  0  0  0  0  0  0
    9.5455   48.3634  129.3633 H   0  0  0  0  0  0  0  0  0  0  0  0
    4.9171   49.7610  129.2769 C   0  0  0  0  0  0  0  0  0  0  0  0
    5.2380   48.5083  128.8197 C   0  0  0  0  0  0  0  0  0  0  0  0
    6.4988   47.9296  129.0427 C   0  0  0  0  0  0  0  0  0  0  0  0
    7.4787   48.5926  129.7344 C   0  0  0  0  0  0  0  0  0  0  0  0
    7.1308   49.8738  130.1939 C   0  0  0  0  0  0  0  0  0  0  0  0
    5.8950   50.4330  129.9712 C   0  0  0  0  0  0  0  0  0  0  0  0
    3.3039   50.7649  127.7573 C   0  0  0  0  0  0  0  0  0  0  0  0
    3.6687   50.3189  129.0492 O   0  0  0  0  0  0  0  0  0  0  0  0
 24 25  1  0  0  0
 25 18  1  0  0  0
 18 19  2  0  0  0
 19 20  1  0  0  0
 20 21  2  0  0  0
 21 16  1  0  0  0
 16  1  1  0  0  0
  1  2  2  0  0  0
  2  3  1  0  0  0
  3 11  1  0  0  0
 11 12  1  0  0  0
 12 13  1  0  0  0
 13 14  1  0  0  0
 14 15  1  0  0  0
  3  4  2  0  0  0
  4  5  1  0  0  0
  5  6  2  0  0  0
  6  7  1  0  0  0
  7  8  2  0  0  0
  8  9  1  0  0  0
  9 10  2  0  0  0
 21 22  1  0  0  0
 22 23  2  0  0  0
 23 18  1  0  0  0
 10  1  1  0  0  0
 15 11  1  0  0  0
  9  4  1  0  0  0
 16 17  1  0  0  0
M  END
> <minimizedAffinity>
1.44830

> <CNNscore>
0.3660587072

> <CNNaffinity>
7.1150808334

> <CNN_VS>
2.6045372486

> <CNNaffinity_variance>
1.0577275753

$$$$
[H]c1c([H])c(N([H])c2nc(N3C([H])([H])C([H])([H])C([H])([H])C3([H])[H])c3c([H])c([H])c([H])c([H])c3n2)c([H])c([H])c1OC([H])([H])[H]


 25 28  0  0  0  0  0  0  0  0999 V2000
    9.8158   45.5668  131.4883 C   0  0  0  0  0  0  0  0  0  0  0  0
    9.3353   46.6464  130.8660 N   0  0  0  0  0  0  0  0  0  0  0  0
    8.7876   47.7006  131.5047 C   0  0  0  0  0  0  0  0  0  0  0  0
    8.7205   47.6575  132.8786 C   0  0  0  0  0  0  0  0  0  0  0  0
    8.1695   48.6821  133.6019 C   0  0  0  0  0  0  0  0  0  0  0  0
    8.1260   48.5721  134.9812 C   0  0  0  0  0  0  0  0  0  0  0  0
    8.6111   47.4806  135.6514 C   0  0  0  0  0  0  0  0  0  0  0  0
    9.1635   46.4483  134.9445 C   0  0  0  0  0  0  0  0  0  0  0  0
    9.2171   46.5383  133.5545 C   0  0  0  0  0  0  0  0  0  0  0  0
    9.7384   45.5535  132.8172 N   0  0  0  0  0  0  0  0  0  0  0  0
    8.3313   48.8246  130.7525 N   0  0  0  0  0  0  0  0  0  0  0  0
    8.2119   48.9258  129.3332 C   0  0  0  0  0  0  0  0  0  0  0  0
    7.1934   50.0394  129.0781 C   0  0  0  0  0  0  0  0  0  0  0  0
    6.6792   50.3658  130.4402 C   0  0  0  0  0  0  0  0  0  0  0  0
    7.8971   50.0761  131.3262 C   0  0  0  0  0  0  0  0  0  0  0  0
   10.3558   44.5032  130.7350 N   0  0  0  0  0  0  0  0  0  0  0  0
    9.6606   43.7409  130.4710 H   0  0  0  0  0  0  0  0  0  0  0  0
   14.2721   44.0228  129.1368 C   0  0  0  0  0  0  0  0  0  0  0  0
   14.0112   43.6901  130.4416 C   0  0  0  0  0  0  0  0  0  0  0  0
   12.7362   43.8406  131.0125 C   0  0  0  0  0  0  0  0  0  0  0  0
   11.6807   44.3305  130.2885 C   0  0  0  0  0  0  0  0  0  0  0  0
   11.9682   44.6657  128.9549 C   0  0  0  0  0  0  0  0  0  0  0  0
   13.2186   44.5157  128.4039 C   0  0  0  0  0  0  0  0  0  0  0  0
   15.8726   42.6936  127.8755 C   0  0  0  0  0  0  0  0  0  0  0  0
   15.5353   43.8687  128.5872 O   0  0  0  0  0  0  0  0  0  0  0  0
 24 25  1  0  0  0
 25 18  1  0  0  0
 18 19  2  0  0  0
 19 20  1  0  0  0
 20 21  2  0  0  0
 21 16  1  0  0  0
 16  1  1  0  0  0
  1  2  2  0  0  0
  2  3  1  0  0  0
  3 11  1  0  0  0
 11 12  1  0  0  0
 12 13  1  0  0  0
 13 14  1  0  0  0
 14 15  1  0  0  0
  3  4  2  0  0  0
  4  5  1  0  0  0
  5  6  2  0  0  0
  6  7  1  0  0  0
  7  8  2  0  0  0
  8  9  1  0  0  0
  9 10  2  0  0  0
 21 22  1  0  0  0
 22 23  2  0  0  0
 23 18  1  0  0  0
 10  1  1  0  0  0
 15 11  1  0  0  0
  9  4  1  0  0  0
 16 17  1  0  0  0
M  END
> <minimizedAffinity>
5.07155

> <CNNscore>
0.3492373824

> <CNNaffinity>
6.8158631325

> <CNN_VS>
2.3803541660

> <CNNaffinity_variance>
1.1121331453

$$$$
[H]c1c([H])c(N([H])c2nc(N3C([H])([H])C([H])([H])C([H])([H])C3([H])[H])c3c([H])c([H])c([H])c([H])c3n2)c([H])c([H])c1OC([H])([H])[H]


 25 28  0  0  0  0  0  0  0  0999 V2000
    9.5539   45.0973  132.1681 C   0  0  0  0  0  0  0  0  0  0  0  0
    8.7502   46.0073  131.6116 N   0  0  0  0  0  0  0  0  0  0  0  0
    8.3596   45.9763  130.3209 C   0  0  0  0  0  0  0  0  0  0  0  0
    8.8191   44.9454  129.5335 C   0  0  0  0  0  0  0  0  0  0  0  0
    8.4782   44.8472  128.2104 C   0  0  0  0  0  0  0  0  0  0  0  0
    8.9812   43.7895  127.4724 C   0  0  0  0  0  0  0  0  0  0  0  0
    9.8058   42.8380  128.0114 C   0  0  0  0  0  0  0  0  0  0  0  0
   10.1568   42.9217  129.3306 C   0  0  0  0  0  0  0  0  0  0  0  0
    9.6618   43.9790  130.0921 C   0  0  0  0  0  0  0  0  0  0  0  0
    9.9817   44.1113  131.3826 N   0  0  0  0  0  0  0  0  0  0  0  0
    7.4707   46.9776  129.8264 N   0  0  0  0  0  0  0  0  0  0  0  0
    7.8191   48.2386  129.2543 C   0  0  0  0  0  0  0  0  0  0  0  0
    6.6174   48.6577  128.4040 C   0  0  0  0  0  0  0  0  0  0  0  0
    5.7267   47.4612  128.4384 C   0  0  0  0  0  0  0  0  0  0  0  0
    6.0313   46.8679  129.8194 C   0  0  0  0  0  0  0  0  0  0  0  0
    9.9235   45.2209  133.5238 N   0  0  0  0  0  0  0  0  0  0  0  0
    9.3119   44.6800  134.2077 H   0  0  0  0  0  0  0  0  0  0  0  0
   13.2963   47.2165  135.1862 C   0  0  0  0  0  0  0  0  0  0  0  0
   12.0655   47.8218  135.1840 C   0  0  0  0  0  0  0  0  0  0  0  0
   10.9278   47.2037  134.6383 C   0  0  0  0  0  0  0  0  0  0  0  0
   10.9910   45.9550  134.0772 C   0  0  0  0  0  0  0  0  0  0  0  0
   12.2599   45.3522  134.0888 C   0  0  0  0  0  0  0  0  0  0  0  0
   13.3683   45.9639  134.6244 C   0  0  0  0  0  0  0  0  0  0  0  0
   14.2871   48.6749  136.8628 C   0  0  0  0  0  0  0  0  0  0  0  0
   14.4101   47.8388  135.7284 O   0  0  0  0  0  0  0  0  0  0  0  0
 24 25  1  0  0  0
 25 18  1  0  0  0
 18 19  2  0  0  0
 19 20  1  0  0  0
 20 21  2  0  0  0
 21 16  1  0  0  0
 16  1  1  0  0  0
  1  2  2  0  0  0
  2  3  1  0  0  0
  3 11  1  0  0  0
 11 12  1  0  0  0
 12 13  1  0  0  0
 13 14  1  0  0  0
 14 15  1  0  0  0
  3  4  2  0  0  0
  4  5  1  0  0  0
  5  6  2  0  0  0
  6  7  1  0  0  0
  7  8  2  0  0  0
  8  9  1  0  0  0
  9 10  2  0  0  0
 21 22  1  0  0  0
 22 23  2  0  0  0
 23 18  1  0  0  0
 10  1  1  0  0  0
 15 11  1  0  0  0
  9  4  1  0  0  0
 16 17  1  0  0  0
M  END
> <minimizedAffinity>
5.89877

> <CNNscore>
0.3488684893

> <CNNaffinity>
7.0651979446

> <CNN_VS>
2.4648249149

> <CNNaffinity_variance>
1.8482065201

$$$$
[H]OC12N(C([H])([H])c3c([H])c([H])c(OC([H])([H])[H])c([H])c3[H])C3([H])C4([H])C5([H])C([H])([H])C([H])(C14[H])C1([H])C2([H])C3([H])C51[H]


 23 29  0  0  0  0  0  0  0  0999 V2000
    9.7355   45.6554  130.9633 N   0  0  0  0  0  0  0  0  0  0  0  0
   10.8332   44.7457  130.6643 C   0  0  0  0  0  0  0  0  0  0  0  0
   11.7118   45.0172  131.8658 C   0  0  0  0  0  0  0  0  0  0  0  0
   12.3344   43.6899  132.1882 C   0  0  0  0  0  0  0  0  0  0  0  0
   12.3433   43.7546  133.7202 C   0  0  0  0  0  0  0  0  0  0  0  0
   10.8503   44.0802  133.8749 C   0  0  0  0  0  0  0  0  0  0  0  0
   10.2241   42.9866  133.0705 C   0  0  0  0  0  0  0  0  0  0  0  0
   11.2269   42.7246  131.9374 C   0  0  0  0  0  0  0  0  0  0  0  0
   10.3029   43.3784  130.9555 C   0  0  0  0  0  0  0  0  0  0  0  0
    9.3069   43.6275  132.0905 C   0  0  0  0  0  0  0  0  0  0  0  0
    9.3853   45.1235  132.2577 C   0  0  0  0  0  0  0  0  0  0  0  0
    8.3497   45.6962  132.9016 O   0  0  0  0  0  0  0  0  0  0  0  0
   10.7208   45.2692  132.9850 C   0  0  0  0  0  0  0  0  0  0  0  0
    7.7794   45.0189  133.3414 H   0  0  0  0  0  0  0  0  0  0  0  0
    8.7036   45.6205  129.9801 C   0  0  0  0  0  0  0  0  0  0  0  0
    6.9983   49.5657  129.6317 C   0  0  0  0  0  0  0  0  0  0  0  0
    6.2716   48.4405  129.3094 C   0  0  0  0  0  0  0  0  0  0  0  0
    6.8160   47.1795  129.4170 C   0  0  0  0  0  0  0  0  0  0  0  0
    8.1216   46.9790  129.8546 C   0  0  0  0  0  0  0  0  0  0  0  0
    8.8392   48.1324  130.1755 C   0  0  0  0  0  0  0  0  0  0  0  0
    8.2925   49.3917  130.0670 C   0  0  0  0  0  0  0  0  0  0  0  0
    6.9883   51.8199  128.6654 C   0  0  0  0  0  0  0  0  0  0  0  0
    6.4294   50.8400  129.5165 O   0  0  0  0  0  0  0  0  0  0  0  0
 22 23  1  0  0  0
 23 16  1  0  0  0
 16 17  2  0  0  0
 17 18  1  0  0  0
 18 19  2  0  0  0
 19 15  1  0  0  0
 15  1  1  0  0  0
  1  2  1  0  0  0
  2  3  1  0  0  0
  3  4  1  0  0  0
  4  5  1  0  0  0
  5  6  1  0  0  0
  6  7  1  0  0  0
  7  8  1  0  0  0
  8  9  1  0  0  0
  9 10  1  0  0  0
 10 11  1  0  0  0
 11 12  1  0  0  0
 11 13  1  0  0  0
 19 20  1  0  0  0
 20 21  2  0  0  0
 21 16  1  0  0  0
 11  1  1  0  0  0
  9  2  1  0  0  0
 13  3  1  0  0  0
  8  4  1  0  0  0
 13  6  1  0  0  0
 10  7  1  0  0  0
 12 14  1  0  0  0
M  END
> <minimizedAffinity>
-8.43943

> <CNNscore>
0.3879405856

> <CNNaffinity>
6.6100473404

> <CNN_VS>
2.5643055439

> <CNNaffinity_variance>
0.1751485765

$$$$
[H]OC12N(C([H])([H])c3c([H])c([H])c(OC([H])([H])[H])c([H])c3[H])C3([H])C4([H])C5([H])C([H])([H])C([H])(C14[H])C1([H])C2([H])C3([H])C51[H]


 23 29  0  0  0  0  0  0  0  0999 V2000
    9.7361   45.5885  130.9101 N   0  0  0  0  0  0  0  0  0  0  0  0
   10.8431   44.6864  130.6224 C   0  0  0  0  0  0  0  0  0  0  0  0
   11.7120   44.9710  131.8280 C   0  0  0  0  0  0  0  0  0  0  0  0
   12.3434   43.6504  132.1607 C   0  0  0  0  0  0  0  0  0  0  0  0
   12.3421   43.7225  133.6924 C   0  0  0  0  0  0  0  0  0  0  0  0
   10.8456   44.0365  133.8362 C   0  0  0  0  0  0  0  0  0  0  0  0
   10.2335   42.9339  133.0332 C   0  0  0  0  0  0  0  0  0  0  0  0
   11.2454   42.6749  131.9077 C   0  0  0  0  0  0  0  0  0  0  0  0
   10.3223   43.3162  130.9168 C   0  0  0  0  0  0  0  0  0  0  0  0
    9.3172   43.5626  132.0444 C   0  0  0  0  0  0  0  0  0  0  0  0
    9.3822   45.0600  132.2048 C   0  0  0  0  0  0  0  0  0  0  0  0
    8.3379   45.6271  132.8395 O   0  0  0  0  0  0  0  0  0  0  0  0
   10.7119   45.2201  132.9397 C   0  0  0  0  0  0  0  0  0  0  0  0
    7.7705   44.9472  133.2790 H   0  0  0  0  0  0  0  0  0  0  0  0
    8.7107   45.5403  129.9207 C   0  0  0  0  0  0  0  0  0  0  0  0
    6.9262   49.4517  129.5873 C   0  0  0  0  0  0  0  0  0  0  0  0
    8.2435   49.2949  129.9592 C   0  0  0  0  0  0  0  0  0  0  0  0
    8.8143   48.0459  130.0694 C   0  0  0  0  0  0  0  0  0  0  0  0
    8.0927   46.8843  129.8120 C   0  0  0  0  0  0  0  0  0  0  0  0
    6.7606   47.0665  129.4370 C   0  0  0  0  0  0  0  0  0  0  0  0
    6.1926   48.3163  129.3275 C   0  0  0  0  0  0  0  0  0  0  0  0
    6.9812   51.7438  128.7163 C   0  0  0  0  0  0  0  0  0  0  0  0
    6.3620   50.7287  129.4801 O   0  0  0  0  0  0  0  0  0  0  0  0
 22 23  1  0  0  0
 23 16  1  0  0  0
 16 17  2  0  0  0
 17 18  1  0  0  0
 18 19  2  0  0  0
 19 15  1  0  0  0
 15  1  1  0  0  0
  1  2  1  0  0  0
  2  3  1  0  0  0
  3  4  1  0  0  0
  4  5  1  0  0  0
  5  6  1  0  0  0
  6  7  1  0  0  0
  7  8  1  0  0  0
  8  9  1  0  0  0
  9 10  1  0  0  0
 10 11  1  0  0  0
 11 12  1  0  0  0
 11 13  1  0  0  0
 19 20  1  0  0  0
 20 21  2  0  0  0
 21 16  1  0  0  0
 11  1  1  0  0  0
  9  2  1  0  0  0
 13  3  1  0  0  0
  8  4  1  0  0  0
 13  6  1  0  0  0
 10  7  1  0  0  0
 12 14  1  0  0  0
M  END
> <minimizedAffinity>
-8.42091

> <CNNscore>
0.3859854341

> <CNNaffinity>
6.6262717247

> <CNN_VS>
2.5576443672

> <CNNaffinity_variance>
0.1569165885

$$$$
[H]OC12N(C([H])([H])c3c([H])c([H])c(OC([H])([H])[H])c([H])c3[H])C3([H])C4([H])C5([H])C([H])([H])C([H])(C14[H])C1([H])C2([H])C3([H])C51[H]


 23 29  0  0  0  0  0  0  0  0999 V2000
   10.0267   45.9601  131.2912 N   0  0  0  0  0  0  0  0  0  0  0  0
   11.4260   45.7580  131.6417 C   0  0  0  0  0  0  0  0  0  0  0  0
   11.2695   45.4595  133.1168 C   0  0  0  0  0  0  0  0  0  0  0  0
   12.3306   44.4397  133.4122 C   0  0  0  0  0  0  0  0  0  0  0  0
   11.5880   43.5531  134.4190 C   0  0  0  0  0  0  0  0  0  0  0  0
   10.3576   43.3030  133.5345 C   0  0  0  0  0  0  0  0  0  0  0  0
   10.9944   42.8136  132.2734 C   0  0  0  0  0  0  0  0  0  0  0  0
   12.3233   43.5789  132.1955 C   0  0  0  0  0  0  0  0  0  0  0  0
   11.7846   44.4202  131.0786 C   0  0  0  0  0  0  0  0  0  0  0  0
   10.4668   43.6459  131.1593 C   0  0  0  0  0  0  0  0  0  0  0  0
    9.5271   44.6788  131.7268 C   0  0  0  0  0  0  0  0  0  0  0  0
    8.2137   44.4354  131.5512 O   0  0  0  0  0  0  0  0  0  0  0  0
    9.9606   44.6984  133.1915 C   0  0  0  0  0  0  0  0  0  0  0  0
    8.0567   43.5099  131.2411 H   0  0  0  0  0  0  0  0  0  0  0  0
    9.8392   46.2604  129.9103 C   0  0  0  0  0  0  0  0  0  0  0  0
    7.4090   49.8089  129.5992 C   0  0  0  0  0  0  0  0  0  0  0  0
    7.0549   48.6403  128.9613 C   0  0  0  0  0  0  0  0  0  0  0  0
    7.8319   47.5066  129.0569 C   0  0  0  0  0  0  0  0  0  0  0  0
    9.0086   47.4842  129.7992 C   0  0  0  0  0  0  0  0  0  0  0  0
    9.3481   48.6787  130.4369 C   0  0  0  0  0  0  0  0  0  0  0  0
    8.5695   49.8103  130.3396 C   0  0  0  0  0  0  0  0  0  0  0  0
    6.9563   52.0150  128.6278 C   0  0  0  0  0  0  0  0  0  0  0  0
    6.6076   50.9520  129.4914 O   0  0  0  0  0  0  0  0  0  0  0  0
 22 23  1  0  0  0
 23 16  1  0  0  0
 16 17  2  0  0  0
 17 18  1  0  0  0
 18 19  2  0  0  0
 19 15  1  0  0  0
 15  1  1  0  0  0
  1  2  1  0  0  0
  2  3  1  0  0  0
  3  4  1  0  0  0
  4  5  1  0  0  0
  5  6  1  0  0  0
  6  7  1  0  0  0
  7  8  1  0  0  0
  8  9  1  0  0  0
  9 10  1  0  0  0
 10 11  1  0  0  0
 11 12  1  0  0  0
 11 13  1  0  0  0
 19 20  1  0  0  0
 20 21  2  0  0  0
 21 16  1  0  0  0
 11  1  1  0  0  0
  9  2  1  0  0  0
 13  3  1  0  0  0
  8  4  1  0  0  0
 13  6  1  0  0  0
 10  7  1  0  0  0
 12 14  1  0  0  0
M  END
> <minimizedAffinity>
-8.42975

> <CNNscore>
0.3597401083

> <CNNaffinity>
6.8297338486

> <CNN_VS>
2.4569292068

> <CNNaffinity_variance>
0.1042348891

$$$$
[H]OC12N(C([H])([H])c3c([H])c([H])c(OC([H])([H])[H])c([H])c3[H])C3([H])C4([H])C5([H])C([H])([H])C([H])(C14[H])C1([H])C2([H])C3([H])C51[H]


 23 29  0  0  0  0  0  0  0  0999 V2000
   10.2330   45.2550  131.2509 N   0  0  0  0  0  0  0  0  0  0  0  0
   10.3833   44.4891  132.4808 C   0  0  0  0  0  0  0  0  0  0  0  0
   11.8859   44.5701  132.6389 C   0  0  0  0  0  0  0  0  0  0  0  0
   12.1075   44.6513  134.1214 C   0  0  0  0  0  0  0  0  0  0  0  0
   13.2918   45.6241  134.1700 C   0  0  0  0  0  0  0  0  0  0  0  0
   12.6311   46.7224  133.3239 C   0  0  0  0  0  0  0  0  0  0  0  0
   11.3374   46.9158  134.0479 C   0  0  0  0  0  0  0  0  0  0  0  0
   10.9892   45.5202  134.5856 C   0  0  0  0  0  0  0  0  0  0  0  0
    9.8958   45.3909  133.5692 C   0  0  0  0  0  0  0  0  0  0  0  0
   10.2458   46.7859  133.0460 C   0  0  0  0  0  0  0  0  0  0  0  0
   10.8538   46.4765  131.7019 C   0  0  0  0  0  0  0  0  0  0  0  0
   10.9028   47.5031  130.8308 O   0  0  0  0  0  0  0  0  0  0  0  0
   12.2276   45.9507  132.1139 C   0  0  0  0  0  0  0  0  0  0  0  0
   10.7054   48.3635  131.2758 H   0  0  0  0  0  0  0  0  0  0  0  0
    8.8751   45.3690  130.8317 C   0  0  0  0  0  0  0  0  0  0  0  0
    8.1596   49.4326  129.5787 C   0  0  0  0  0  0  0  0  0  0  0  0
    7.1795   48.6927  130.2032 C   0  0  0  0  0  0  0  0  0  0  0  0
    7.4054   47.3933  130.6012 C   0  0  0  0  0  0  0  0  0  0  0  0
    8.6293   46.7646  130.3936 C   0  0  0  0  0  0  0  0  0  0  0  0
    9.6074   47.5325  129.7595 C   0  0  0  0  0  0  0  0  0  0  0  0
    9.3789   48.8312  129.3627 C   0  0  0  0  0  0  0  0  0  0  0  0
    7.0617   51.5979  129.9272 C   0  0  0  0  0  0  0  0  0  0  0  0
    7.9131   50.7522  129.1807 O   0  0  0  0  0  0  0  0  0  0  0  0
 22 23  1  0  0  0
 23 16  1  0  0  0
 16 17  2  0  0  0
 17 18  1  0  0  0
 18 19  2  0  0  0
 19 15  1  0  0  0
 15  1  1  0  0  0
  1  2  1  0  0  0
  2  3  1  0  0  0
  3  4  1  0  0  0
  4  5  1  0  0  0
  5  6  1  0  0  0
  6  7  1  0  0  0
  7  8  1  0  0  0
  8  9  1  0  0  0
  9 10  1  0  0  0
 10 11  1  0  0  0
 11 12  1  0  0  0
 11 13  1  0  0  0
 19 20  1  0  0  0
 20 21  2  0  0  0
 21 16  1  0  0  0
 11  1  1  0  0  0
  9  2  1  0  0  0
 13  3  1  0  0  0
  8  4  1  0  0  0
 13  6  1  0  0  0
 10  7  1  0  0  0
 12 14  1  0  0  0
M  END
> <minimizedAffinity>
-1.00011

> <CNNscore>
0.3565830290

> <CNNaffinity>
6.6657691002

> <CNN_VS>
2.3769001961

> <CNNaffinity_variance>
0.8110520244

$$$$
[H]OC12N(C([H])([H])c3c([H])c([H])c(OC([H])([H])[H])c([H])c3[H])C3([H])C4([H])C5([H])C([H])([H])C([H])(C14[H])C1([H])C2([H])C3([H])C51[H]


 23 29  0  0  0  0  0  0  0  0999 V2000
    8.3848   46.1388  130.4211 N   0  0  0  0  0  0  0  0  0  0  0  0
    9.2553   45.0794  130.9128 C   0  0  0  0  0  0  0  0  0  0  0  0
    8.9225   44.0003  129.9058 C   0  0  0  0  0  0  0  0  0  0  0  0
   10.2161   43.2697  129.6911 C   0  0  0  0  0  0  0  0  0  0  0  0
   10.1183   42.9714  128.1902 C   0  0  0  0  0  0  0  0  0  0  0  0
    9.8505   44.4202  127.7565 C   0  0  0  0  0  0  0  0  0  0  0  0
   10.9858   45.1397  128.4115 C   0  0  0  0  0  0  0  0  0  0  0  0
   11.2308   44.3612  129.7122 C   0  0  0  0  0  0  0  0  0  0  0  0
   10.6365   45.4835  130.5073 C   0  0  0  0  0  0  0  0  0  0  0  0
   10.4038   46.2544  129.2058 C   0  0  0  0  0  0  0  0  0  0  0  0
    8.9026   46.2116  129.0766 C   0  0  0  0  0  0  0  0  0  0  0  0
    8.3590   47.1294  128.2538 O   0  0  0  0  0  0  0  0  0  0  0  0
    8.6872   44.7695  128.6208 C   0  0  0  0  0  0  0  0  0  0  0  0
    9.0494   47.5748  127.7039 H   0  0  0  0  0  0  0  0  0  0  0  0
    8.4828   47.3368  131.1876 C   0  0  0  0  0  0  0  0  0  0  0  0
    9.5740   46.3236  135.2344 C   0  0  0  0  0  0  0  0  0  0  0  0
   10.2907   47.2509  134.5104 C   0  0  0  0  0  0  0  0  0  0  0  0
    9.9455   47.5734  133.2162 C   0  0  0  0  0  0  0  0  0  0  0  0
    8.8602   46.9815  132.5773 C   0  0  0  0  0  0  0  0  0  0  0  0
    8.1485   46.0453  133.3292 C   0  0  0  0  0  0  0  0  0  0  0  0
    8.4959   45.7249  134.6227 C   0  0  0  0  0  0  0  0  0  0  0  0
   10.3690   44.7080  136.8998 C   0  0  0  0  0  0  0  0  0  0  0  0
    9.9387   46.0076  136.5489 O   0  0  0  0  0  0  0  0  0  0  0  0
 22 23  1  0  0  0
 23 16  1  0  0  0
 16 17  2  0  0  0
 17 18  1  0  0  0
 18 19  2  0  0  0
 19 15  1  0  0  0
 15  1  1  0  0  0
  1  2  1  0  0  0
  2  3  1  0  0  0
  3  4  1  0  0  0
  4  5  1  0  0  0
  5  6  1  0  0  0
  6  7  1  0  0  0
  7  8  1  0  0  0
  8  9  1  0  0  0
  9 10  1  0  0  0
 10 11  1  0  0  0
 11 12  1  0  0  0
 11 13  1  0  0  0
 19 20  1  0  0  0
 20 21  2  0  0  0
 21 16  1  0  0  0
 11  1  1  0  0  0
  9  2  1  0  0  0
 13  3  1  0  0  0
  8  4  1  0  0  0
 13  6  1  0  0  0
 10  7  1  0  0  0
 12 14  1  0  0  0
M  END
> <minimizedAffinity>
-2.95498

> <CNNscore>
0.3092307448

> <CNNaffinity>
6.4881963730

> <CNN_VS>
2.0063498020

> <CNNaffinity_variance>
0.2417277098

$$$$
[H]OC12N(C([H])([H])c3c([H])c([H])c(OC([H])([H])[H])c([H])c3[H])C3([H])C4([H])C5([H])C([H])([H])C([H])(C14[H])C1([H])C2([H])C3([H])C51[H]


 23 29  0  0  0  0  0  0  0  0999 V2000
    8.9200   46.9690  130.5329 N   0  0  0  0  0  0  0  0  0  0  0  0
    7.9212   46.8000  129.4862 C   0  0  0  0  0  0  0  0  0  0  0  0
    6.7392   47.4561  130.1658 C   0  0  0  0  0  0  0  0  0  0  0  0
    5.9917   48.1350  129.0550 C   0  0  0  0  0  0  0  0  0  0  0  0
    5.5330   49.4109  129.7713 C   0  0  0  0  0  0  0  0  0  0  0  0
    6.9261   49.8249  130.2678 C   0  0  0  0  0  0  0  0  0  0  0  0
    7.7139   49.7956  128.9974 C   0  0  0  0  0  0  0  0  0  0  0  0
    7.0807   48.6585  128.1824 C   0  0  0  0  0  0  0  0  0  0  0  0
    8.2814   47.7976  128.4324 C   0  0  0  0  0  0  0  0  0  0  0  0
    8.9070   48.9400  129.2361 C   0  0  0  0  0  0  0  0  0  0  0  0
    8.8481   48.4055  130.6443 C   0  0  0  0  0  0  0  0  0  0  0  0
    9.6709   48.9986  131.5310 O   0  0  0  0  0  0  0  0  0  0  0  0
    7.3649   48.5823  130.9648 C   0  0  0  0  0  0  0  0  0  0  0  0
   10.0554   49.8324  131.1645 H   0  0  0  0  0  0  0  0  0  0  0  0
   10.1939   46.4392  130.1738 C   0  0  0  0  0  0  0  0  0  0  0  0
   11.7905   44.2998  133.5603 C   0  0  0  0  0  0  0  0  0  0  0  0
   10.6798   45.1057  133.6813 C   0  0  0  0  0  0  0  0  0  0  0  0
   10.1703   45.7925  132.6012 C   0  0  0  0  0  0  0  0  0  0  0  0
   10.7491   45.7077  131.3386 C   0  0  0  0  0  0  0  0  0  0  0  0
   11.8730   44.8859  131.2389 C   0  0  0  0  0  0  0  0  0  0  0  0
   12.3800   44.2005  132.3203 C   0  0  0  0  0  0  0  0  0  0  0  0
   11.5343   43.4594  135.8502 C   0  0  0  0  0  0  0  0  0  0  0  0
   12.2951   43.6086  134.6686 O   0  0  0  0  0  0  0  0  0  0  0  0
 22 23  1  0  0  0
 23 16  1  0  0  0
 16 17  2  0  0  0
 17 18  1  0  0  0
 18 19  2  0  0  0
 19 15  1  0  0  0
 15  1  1  0  0  0
  1  2  1  0  0  0
  2  3  1  0  0  0
  3  4  1  0  0  0
  4  5  1  0  0  0
  5  6  1  0  0  0
  6  7  1  0  0  0
  7  8  1  0  0  0
  8  9  1  0  0  0
  9 10  1  0  0  0
 10 11  1  0  0  0
 11 12  1  0  0  0
 11 13  1  0  0  0
 19 20  1  0  0  0
 20 21  2  0  0  0
 21 16  1  0  0  0
 11  1  1  0  0  0
  9  2  1  0  0  0
 13  3  1  0  0  0
  8  4  1  0  0  0
 13  6  1  0  0  0
 10  7  1  0  0  0
 12 14  1  0  0  0
M  END
> <minimizedAffinity>
-4.84456

> <CNNscore>
0.2788352966

> <CNNaffinity>
6.3514275551

> <CNN_VS>
1.7710021734

> <CNNaffinity_variance>
0.1706535667

$$$$
[H]OC12N(C([H])([H])c3c([H])c([H])c(OC([H])([H])[H])c([H])c3[H])C3([H])C4([H])C5([H])C([H])([H])C([H])(C14[H])C1([H])C2([H])C3([H])C51[H]


 23 29  0  0  0  0  0  0  0  0999 V2000
   10.1210   46.1666  131.5278 N   0  0  0  0  0  0  0  0  0  0  0  0
   10.2239   45.5608  132.8485 C   0  0  0  0  0  0  0  0  0  0  0  0
    9.6650   44.1903  132.5347 C   0  0  0  0  0  0  0  0  0  0  0  0
   10.4530   43.2516  133.4015 C   0  0  0  0  0  0  0  0  0  0  0  0
   10.5879   42.0515  132.4566 C   0  0  0  0  0  0  0  0  0  0  0  0
   11.1665   42.8433  131.2746 C   0  0  0  0  0  0  0  0  0  0  0  0
   12.3121   43.5506  131.9246 C   0  0  0  0  0  0  0  0  0  0  0  0
   11.8294   43.8218  133.3569 C   0  0  0  0  0  0  0  0  0  0  0  0
   11.6796   45.2788  133.0409 C   0  0  0  0  0  0  0  0  0  0  0  0
   12.1692   44.9991  131.6181 C   0  0  0  0  0  0  0  0  0  0  0  0
   10.9157   45.2029  130.8062 C   0  0  0  0  0  0  0  0  0  0  0  0
   11.0993   45.4158  129.4886 O   0  0  0  0  0  0  0  0  0  0  0  0
   10.1477   43.9210  131.1230 C   0  0  0  0  0  0  0  0  0  0  0  0
   12.0280   45.2136  129.2165 H   0  0  0  0  0  0  0  0  0  0  0  0
   10.5976   47.5099  131.4957 C   0  0  0  0  0  0  0  0  0  0  0  0
    7.5630   50.0281  129.7509 C   0  0  0  0  0  0  0  0  0  0  0  0
    8.3051   50.4464  130.8336 C   0  0  0  0  0  0  0  0  0  0  0  0
    9.2727   49.6418  131.3943 C   0  0  0  0  0  0  0  0  0  0  0  0
    9.5485   48.3714  130.8980 C   0  0  0  0  0  0  0  0  0  0  0  0
    8.7851   47.9682  129.8012 C   0  0  0  0  0  0  0  0  0  0  0  0
    7.8185   48.7746  129.2427 C   0  0  0  0  0  0  0  0  0  0  0  0
    6.9286   52.0532  128.5212 C   0  0  0  0  0  0  0  0  0  0  0  0
    6.5834   50.8588  129.1932 O   0  0  0  0  0  0  0  0  0  0  0  0
 22 23  1  0  0  0
 23 16  1  0  0  0
 16 17  2  0  0  0
 17 18  1  0  0  0
 18 19  2  0  0  0
 19 15  1  0  0  0
 15  1  1  0  0  0
  1  2  1  0  0  0
  2  3  1  0  0  0
  3  4  1  0  0  0
  4  5  1  0  0  0
  5  6  1  0  0  0
  6  7  1  0  0  0
  7  8  1  0  0  0
  8  9  1  0  0  0
  9 10  1  0  0  0
 10 11  1  0  0  0
 11 12  1  0  0  0
 11 13  1  0  0  0
 19 20  1  0  0  0
 20 21  2  0  0  0
 21 16  1  0  0  0
 11  1  1  0  0  0
  9  2  1  0  0  0
 13  3  1  0  0  0
  8  4  1  0  0  0
 13  6  1  0  0  0
 10  7  1  0  0  0
 12 14  1  0  0  0
M  END
> <minimizedAffinity>
-7.53847

> <CNNscore>
0.2647624314

> <CNNaffinity>
6.6432161331

> <CNN_VS>
1.7588740587

> <CNNaffinity_variance>
0.0636296719

$$$$
[H]OC12N(C([H])([H])c3c([H])c([H])c(OC([H])([H])[H])c([H])c3[H])C3([H])C4([H])C5([H])C([H])([H])C([H])(C14[H])C1([H])C2([H])C3([H])C51[H]


 23 29  0  0  0  0  0  0  0  0999 V2000
    9.3420   45.0337  130.8911 N   0  0  0  0  0  0  0  0  0  0  0  0
   10.1093   45.8636  131.8100 C   0  0  0  0  0  0  0  0  0  0  0  0
    9.9565   45.0408  133.0706 C   0  0  0  0  0  0  0  0  0  0  0  0
   11.2658   45.1986  133.7876 C   0  0  0  0  0  0  0  0  0  0  0  0
   11.4335   43.7894  134.3684 C   0  0  0  0  0  0  0  0  0  0  0  0
   11.2503   43.0453  133.0374 C   0  0  0  0  0  0  0  0  0  0  0  0
   12.2541   43.7366  132.1714 C   0  0  0  0  0  0  0  0  0  0  0  0
   12.2638   45.1852  132.6807 C   0  0  0  0  0  0  0  0  0  0  0  0
   11.5414   45.6341  131.4470 C   0  0  0  0  0  0  0  0  0  0  0  0
   11.5441   44.1883  130.9449 C   0  0  0  0  0  0  0  0  0  0  0  0
   10.0891   43.8111  131.0586 C   0  0  0  0  0  0  0  0  0  0  0  0
    9.7016   42.7454  130.3312 O   0  0  0  0  0  0  0  0  0  0  0  0
    9.9536   43.6109  132.5670 C   0  0  0  0  0  0  0  0  0  0  0  0
   10.4793   42.2485  129.9768 H   0  0  0  0  0  0  0  0  0  0  0  0
    9.3064   45.5606  129.5668 C   0  0  0  0  0  0  0  0  0  0  0  0
    7.0622   49.2427  129.5860 C   0  0  0  0  0  0  0  0  0  0  0  0
    8.4309   49.2375  129.7430 C   0  0  0  0  0  0  0  0  0  0  0  0
    9.1490   48.0618  129.7404 C   0  0  0  0  0  0  0  0  0  0  0  0
    8.5314   46.8252  129.5799 C   0  0  0  0  0  0  0  0  0  0  0  0
    7.1447   46.8540  129.4226 C   0  0  0  0  0  0  0  0  0  0  0  0
    6.4294   48.0308  129.4255 C   0  0  0  0  0  0  0  0  0  0  0  0
    6.8807   51.6198  129.0100 C   0  0  0  0  0  0  0  0  0  0  0  0
    6.3477   50.4469  129.5910 O   0  0  0  0  0  0  0  0  0  0  0  0
 22 23  1  0  0  0
 23 16  1  0  0  0
 16 17  2  0  0  0
 17 18  1  0  0  0
 18 19  2  0  0  0
 19 15  1  0  0  0
 15  1  1  0  0  0
  1  2  1  0  0  0
  2  3  1  0  0  0
  3  4  1  0  0  0
  4  5  1  0  0  0
  5  6  1  0  0  0
  6  7  1  0  0  0
  7  8  1  0  0  0
  8  9  1  0  0  0
  9 10  1  0  0  0
 10 11  1  0  0  0
 11 12  1  0  0  0
 11 13  1  0  0  0
 19 20  1  0  0  0
 20 21  2  0  0  0
 21 16  1  0  0  0
 11  1  1  0  0  0
  9  2  1  0  0  0
 13  3  1  0  0  0
  8  4  1  0  0  0
 13  6  1  0  0  0
 10  7  1  0  0  0
 12 14  1  0  0  0
M  END
> <minimizedAffinity>
-8.30900

> <CNNscore>
0.2621484995

> <CNNaffinity>
6.5805611610

> <CNN_VS>
1.7250841856

> <CNNaffinity_variance>
0.1162479073

$$$$
[H]OC12N(C([H])([H])c3c([H])c([H])c(OC([H])([H])[H])c([H])c3[H])C3([H])C4([H])C5([H])C([H])([H])C([H])(C14[H])C1([H])C2([H])C3([H])C51[H]


 23 29  0  0  0  0  0  0  0  0999 V2000
    9.6879   45.2976  130.0901 N   0  0  0  0  0  0  0  0  0  0  0  0
    9.8207   45.5515  131.5183 C   0  0  0  0  0  0  0  0  0  0  0  0
    9.3353   44.2210  132.0509 C   0  0  0  0  0  0  0  0  0  0  0  0
   10.1705   43.9743  133.2736 C   0  0  0  0  0  0  0  0  0  0  0  0
   10.3697   42.4574  133.1696 C   0  0  0  0  0  0  0  0  0  0  0  0
   10.9075   42.4653  131.7310 C   0  0  0  0  0  0  0  0  0  0  0  0
   12.0132   43.4662  131.8339 C   0  0  0  0  0  0  0  0  0  0  0  0
   11.5149   44.4792  132.8749 C   0  0  0  0  0  0  0  0  0  0  0  0
   11.2889   45.4928  131.7946 C   0  0  0  0  0  0  0  0  0  0  0  0
   11.7947   44.4785  130.7662 C   0  0  0  0  0  0  0  0  0  0  0  0
   10.5333   44.1310  130.0176 C   0  0  0  0  0  0  0  0  0  0  0  0
   10.7073   43.5681  128.8060 O   0  0  0  0  0  0  0  0  0  0  0  0
    9.8335   43.2214  131.0259 C   0  0  0  0  0  0  0  0  0  0  0  0
   11.6457   43.2887  128.6695 H   0  0  0  0  0  0  0  0  0  0  0  0
   10.0930   46.4060  129.2903 C   0  0  0  0  0  0  0  0  0  0  0  0
    7.2814   49.6188  129.8963 C   0  0  0  0  0  0  0  0  0  0  0  0
    6.9237   48.4719  129.2221 C   0  0  0  0  0  0  0  0  0  0  0  0
    7.8216   47.4459  129.0248 C   0  0  0  0  0  0  0  0  0  0  0  0
    9.1298   47.5154  129.4941 C   0  0  0  0  0  0  0  0  0  0  0  0
    9.4704   48.6859  130.1740 C   0  0  0  0  0  0  0  0  0  0  0  0
    8.5707   49.7099  130.3699 C   0  0  0  0  0  0  0  0  0  0  0  0
    4.9650   50.4020  130.0879 C   0  0  0  0  0  0  0  0  0  0  0  0
    6.3560   50.6520  130.0881 O   0  0  0  0  0  0  0  0  0  0  0  0
 22 23  1  0  0  0
 23 16  1  0  0  0
 16 17  2  0  0  0
 17 18  1  0  0  0
 18 19  2  0  0  0
 19 15  1  0  0  0
 15  1  1  0  0  0
  1  2  1  0  0  0
  2  3  1  0  0  0
  3  4  1  0  0  0
  4  5  1  0  0  0
  5  6  1  0  0  0
  6  7  1  0  0  0
  7  8  1  0  0  0
  8  9  1  0  0  0
  9 10  1  0  0  0
 10 11  1  0  0  0
 11 12  1  0  0  0
 11 13  1  0  0  0
 19 20  1  0  0  0
 20 21  2  0  0  0
 21 16  1  0  0  0
 11  1  1  0  0  0
  9  2  1  0  0  0
 13  3  1  0  0  0
  8  4  1  0  0  0
 13  6  1  0  0  0
 10  7  1  0  0  0
 12 14  1  0  0  0
M  END
> <minimizedAffinity>
-8.00616

> <CNNscore>
0.2615103722

> <CNNaffinity>
6.7619218826

> <CNN_VS>
1.7683126926

> <CNNaffinity_variance>
0.0358617082

$$$$
[H]c1nc(N2C([H])([H])C([H])([H])N(C([H])([H])C([H])([H])C([H])([H])Sc3c([H])c([H])c(F)c([H])c3[H])C([H])([H])C2([H])[H])c([H])c([H])c1[H]


 23 25  0  0  0  0  0  0  0  0999 V2000
    9.8482   43.7809  129.6129 N   0  0  0  0  0  0  0  0  0  0  0  0
    8.5073   43.9851  130.1030 C   0  0  0  0  0  0  0  0  0  0  0  0
    8.2271   45.3617  130.6400 C   0  0  0  0  0  0  0  0  0  0  0  0
    8.7364   46.4113  129.8137 N   0  0  0  0  0  0  0  0  0  0  0  0
    9.9177   46.1648  129.0282 C   0  0  0  0  0  0  0  0  0  0  0  0
   10.6334   44.9888  129.6224 C   0  0  0  0  0  0  0  0  0  0  0  0
    8.0728   47.6660  129.7878 C   0  0  0  0  0  0  0  0  0  0  0  0
    8.7063   48.8496  130.0889 C   0  0  0  0  0  0  0  0  0  0  0  0
    8.0291   50.0711  130.0668 C   0  0  0  0  0  0  0  0  0  0  0  0
    6.7023   50.1096  129.7394 C   0  0  0  0  0  0  0  0  0  0  0  0
    6.0902   48.9149  129.4420 C   0  0  0  0  0  0  0  0  0  0  0  0
    6.7537   47.7515  129.4678 N   0  0  0  0  0  0  0  0  0  0  0  0
   10.5096   42.6938  130.3015 C   0  0  0  0  0  0  0  0  0  0  0  0
   10.4494   42.9356  131.7868 C   0  0  0  0  0  0  0  0  0  0  0  0
   11.8805   42.8945  132.3209 C   0  0  0  0  0  0  0  0  0  0  0  0
   11.9960   43.9098  133.8156 S   0  0  0  0  0  0  0  0  0  0  0  0
    8.4907   48.7079  133.4384 F   0  0  0  0  0  0  0  0  0  0  0  0
    9.3060   47.6214  133.5097 C   0  0  0  0  0  0  0  0  0  0  0  0
    8.9843   46.5774  134.3667 C   0  0  0  0  0  0  0  0  0  0  0  0
    9.7875   45.4692  134.4594 C   0  0  0  0  0  0  0  0  0  0  0  0
   10.9398   45.3433  133.7130 C   0  0  0  0  0  0  0  0  0  0  0  0
   11.2484   46.3872  132.8654 C   0  0  0  0  0  0  0  0  0  0  0  0
   10.4523   47.5132  132.7568 C   0  0  0  0  0  0  0  0  0  0  0  0
 17 18  1  0  0  0
 18 19  2  0  0  0
 19 20  1  0  0  0
 20 21  2  0  0  0
 21 16  1  0  0  0
 16 15  1  0  0  0
 15 14  1  0  0  0
 14 13  1  0  0  0
 13  1  1  0  0  0
  1  2  1  0  0  0
  2  3  1  0  0  0
  3  4  1  0  0  0
  4  7  1  0  0  0
  7  8  2  0  0  0
  8  9  1  0  0  0
  9 10  2  0  0  0
 10 11  1  0  0  0
 11 12  2  0  0  0
  4  5  1  0  0  0
  5  6  1  0  0  0
 21 22  1  0  0  0
 22 23  2  0  0  0
 23 18  1  0  0  0
  6  1  1  0  0  0
 12  7  1  0  0  0
M  END
> <minimizedAffinity>
-7.59850

> <CNNscore>
0.5814916492

> <CNNaffinity>
7.5813226700

> <CNN_VS>
4.4084758759

> <CNNaffinity_variance>
0.1154873744

$$$$
[H]c1nc(N2C([H])([H])C([H])([H])N(C([H])([H])C([H])([H])C([H])([H])Sc3c([H])c([H])c(F)c([H])c3[H])C([H])([H])C2([H])[H])c([H])c([H])c1[H]


 23 25  0  0  0  0  0  0  0  0999 V2000
    9.3645   45.5176  134.0766 N   0  0  0  0  0  0  0  0  0  0  0  0
    9.1440   46.9231  134.3123 C   0  0  0  0  0  0  0  0  0  0  0  0
    9.1732   47.7885  133.0826 C   0  0  0  0  0  0  0  0  0  0  0  0
    8.4483   47.2382  131.9801 N   0  0  0  0  0  0  0  0  0  0  0  0
    8.3513   45.8067  131.8586 C   0  0  0  0  0  0  0  0  0  0  0  0
    9.4508   45.1959  132.6749 C   0  0  0  0  0  0  0  0  0  0  0  0
    7.8464   48.1087  131.0339 C   0  0  0  0  0  0  0  0  0  0  0  0
    8.1406   49.4510  130.9646 C   0  0  0  0  0  0  0  0  0  0  0  0
    7.5270   50.2898  130.0313 C   0  0  0  0  0  0  0  0  0  0  0  0
    6.6083   49.7804  129.1566 C   0  0  0  0  0  0  0  0  0  0  0  0
    6.3303   48.4367  129.2440 C   0  0  0  0  0  0  0  0  0  0  0  0
    6.9274   47.6453  130.1449 N   0  0  0  0  0  0  0  0  0  0  0  0
   10.5013   45.0221  134.8219 C   0  0  0  0  0  0  0  0  0  0  0  0
   11.4116   44.2616  133.8939 C   0  0  0  0  0  0  0  0  0  0  0  0
   10.7184   42.9465  133.5403 C   0  0  0  0  0  0  0  0  0  0  0  0
   11.5092   42.2207  132.0821 S   0  0  0  0  0  0  0  0  0  0  0  0
   10.5551   45.5067  127.2095 F   0  0  0  0  0  0  0  0  0  0  0  0
   10.7935   44.7660  128.3251 C   0  0  0  0  0  0  0  0  0  0  0  0
    9.8185   43.8941  128.7911 C   0  0  0  0  0  0  0  0  0  0  0  0
   10.0310   43.1344  129.9134 C   0  0  0  0  0  0  0  0  0  0  0  0
   11.2111   43.2019  130.6229 C   0  0  0  0  0  0  0  0  0  0  0  0
   12.1719   44.0718  130.1499 C   0  0  0  0  0  0  0  0  0  0  0  0
   11.9778   44.8465  129.0205 C   0  0  0  0  0  0  0  0  0  0  0  0
 17 18  1  0  0  0
 18 19  2  0  0  0
 19 20  1  0  0  0
 20 21  2  0  0  0
 21 16  1  0  0  0
 16 15  1  0  0  0
 15 14  1  0  0  0
 14 13  1  0  0  0
 13  1  1  0  0  0
  1  2  1  0  0  0
  2  3  1  0  0  0
  3  4  1  0  0  0
  4  7  1  0  0  0
  7  8  2  0  0  0
  8  9  1  0  0  0
  9 10  2  0  0  0
 10 11  1  0  0  0
 11 12  2  0  0  0
  4  5  1  0  0  0
  5  6  1  0  0  0
 21 22  1  0  0  0
 22 23  2  0  0  0
 23 18  1  0  0  0
  6  1  1  0  0  0
 12  7  1  0  0  0
M  END
> <minimizedAffinity>
-6.77516

> <CNNscore>
0.3620763123

> <CNNaffinity>
7.2983751297

> <CNN_VS>
2.6425688267

> <CNNaffinity_variance>
0.1133092195

$$$$
[H]c1nc(N2C([H])([H])C([H])([H])N(C([H])([H])C([H])([H])C([H])([H])Sc3c([H])c([H])c(F)c([H])c3[H])C([H])([H])C2([H])[H])c([H])c([H])c1[H]


 23 25  0  0  0  0  0  0  0  0999 V2000
    9.3445   44.8606  128.7140 N   0  0  0  0  0  0  0  0  0  0  0  0
    9.0249   43.9114  129.7516 C   0  0  0  0  0  0  0  0  0  0  0  0
    9.6573   44.1894  131.0874 C   0  0  0  0  0  0  0  0  0  0  0  0
    9.5839   45.5624  131.4790 N   0  0  0  0  0  0  0  0  0  0  0  0
    9.5716   46.5760  130.4563 C   0  0  0  0  0  0  0  0  0  0  0  0
   10.1215   45.9730  129.1984 C   0  0  0  0  0  0  0  0  0  0  0  0
    9.5279   45.8948  132.8580 C   0  0  0  0  0  0  0  0  0  0  0  0
    8.7417   46.9123  133.3473 C   0  0  0  0  0  0  0  0  0  0  0  0
    8.7116   47.2276  134.7078 C   0  0  0  0  0  0  0  0  0  0  0  0
    9.4768   46.5166  135.5898 C   0  0  0  0  0  0  0  0  0  0  0  0
   10.2541   45.5044  135.0784 C   0  0  0  0  0  0  0  0  0  0  0  0
   10.2721   45.2144  133.7707 N   0  0  0  0  0  0  0  0  0  0  0  0
    9.9613   44.2188  127.5734 C   0  0  0  0  0  0  0  0  0  0  0  0
    9.4936   42.7895  127.4934 C   0  0  0  0  0  0  0  0  0  0  0  0
   10.3767   41.9605  128.4251 C   0  0  0  0  0  0  0  0  0  0  0  0
    9.9192   40.2135  128.2940 S   0  0  0  0  0  0  0  0  0  0  0  0
   10.4377   38.2435  122.6993 F   0  0  0  0  0  0  0  0  0  0  0  0
   10.3421   38.6931  123.9794 C   0  0  0  0  0  0  0  0  0  0  0  0
    9.0946   38.9951  124.5091 C   0  0  0  0  0  0  0  0  0  0  0  0
    8.9675   39.4501  125.7970 C   0  0  0  0  0  0  0  0  0  0  0  0
   10.0625   39.6266  126.6159 C   0  0  0  0  0  0  0  0  0  0  0  0
   11.2963   39.3231  126.0781 C   0  0  0  0  0  0  0  0  0  0  0  0
   11.4463   38.8630  124.7822 C   0  0  0  0  0  0  0  0  0  0  0  0
 17 18  1  0  0  0
 18 19  2  0  0  0
 19 20  1  0  0  0
 20 21  2  0  0  0
 21 16  1  0  0  0
 16 15  1  0  0  0
 15 14  1  0  0  0
 14 13  1  0  0  0
 13  1  1  0  0  0
  1  2  1  0  0  0
  2  3  1  0  0  0
  3  4  1  0  0  0
  4  7  1  0  0  0
  7  8  2  0  0  0
  8  9  1  0  0  0
  9 10  2  0  0  0
 10 11  1  0  0  0
 11 12  2  0  0  0
  4  5  1  0  0  0
  5  6  1  0  0  0
 21 22  1  0  0  0
 22 23  2  0  0  0
 23 18  1  0  0  0
  6  1  1  0  0  0
 12  7  1  0  0  0
M  END
> <minimizedAffinity>
15.41564

> <CNNscore>
0.3487224579

> <CNNaffinity>
6.3897490501

> <CNN_VS>
2.2282490730

> <CNNaffinity_variance>
1.0048604012

$$$$
[H]c1nc(N2C([H])([H])C([H])([H])N(C([H])([H])C([H])([H])C([H])([H])Sc3c([H])c([H])c(F)c([H])c3[H])C([H])([H])C2([H])[H])c([H])c([H])c1[H]


 23 25  0  0  0  0  0  0  0  0999 V2000
   10.0282   45.4073  134.0434 N   0  0  0  0  0  0  0  0  0  0  0  0
   10.7749   46.4885  133.4491 C   0  0  0  0  0  0  0  0  0  0  0  0
   10.3546   46.8632  132.0546 C   0  0  0  0  0  0  0  0  0  0  0  0
    8.9370   46.9427  131.8877 N   0  0  0  0  0  0  0  0  0  0  0  0
    8.0946   46.1028  132.6991 C   0  0  0  0  0  0  0  0  0  0  0  0
    8.9298   44.9714  133.2191 C   0  0  0  0  0  0  0  0  0  0  0  0
    8.3943   47.8395  130.9303 C   0  0  0  0  0  0  0  0  0  0  0  0
    7.9907   47.4370  129.6781 C   0  0  0  0  0  0  0  0  0  0  0  0
    7.4694   48.3405  128.7491 C   0  0  0  0  0  0  0  0  0  0  0  0
    7.3499   49.6624  129.0762 C   0  0  0  0  0  0  0  0  0  0  0  0
    7.7591   50.0416  130.3329 C   0  0  0  0  0  0  0  0  0  0  0  0
    8.2572   49.1628  131.2126 N   0  0  0  0  0  0  0  0  0  0  0  0
   10.8898   44.3112  134.4301 C   0  0  0  0  0  0  0  0  0  0  0  0
   12.2334   44.4779  133.7706 C   0  0  0  0  0  0  0  0  0  0  0  0
   12.6252   43.1283  133.1705 C   0  0  0  0  0  0  0  0  0  0  0  0
   11.2573   42.4937  132.1683 S   0  0  0  0  0  0  0  0  0  0  0  0
   10.5311   45.6488  127.1714 F   0  0  0  0  0  0  0  0  0  0  0  0
   10.6758   44.9198  128.3106 C   0  0  0  0  0  0  0  0  0  0  0  0
   11.8855   44.9440  128.9917 C   0  0  0  0  0  0  0  0  0  0  0  0
   12.0604   44.2191  130.1431 C   0  0  0  0  0  0  0  0  0  0  0  0
   11.0522   43.4409  130.6710 C   0  0  0  0  0  0  0  0  0  0  0  0
    9.8552   43.4251  129.9852 C   0  0  0  0  0  0  0  0  0  0  0  0
    9.6581   44.1487  128.8229 C   0  0  0  0  0  0  0  0  0  0  0  0
 17 18  1  0  0  0
 18 19  2  0  0  0
 19 20  1  0  0  0
 20 21  2  0  0  0
 21 16  1  0  0  0
 16 15  1  0  0  0
 15 14  1  0  0  0
 14 13  1  0  0  0
 13  1  1  0  0  0
  1  2  1  0  0  0
  2  3  1  0  0  0
  3  4  1  0  0  0
  4  7  1  0  0  0
  7  8  2  0  0  0
  8  9  1  0  0  0
  9 10  2  0  0  0
 10 11  1  0  0  0
 11 12  2  0  0  0
  4  5  1  0  0  0
  5  6  1  0  0  0
 21 22  1  0  0  0
 22 23  2  0  0  0
 23 18  1  0  0  0
  6  1  1  0  0  0
 12  7  1  0  0  0
M  END
> <minimizedAffinity>
-7.76368

> <CNNscore>
0.3471669257

> <CNNaffinity>
7.2629189491

> <CNN_VS>
2.5214452744

> <CNNaffinity_variance>
0.0731483251

$$$$
[H]c1nc(N2C([H])([H])C([H])([H])N(C([H])([H])C([H])([H])C([H])([H])Sc3c([H])c([H])c(F)c([H])c3[H])C([H])([H])C2([H])[H])c([H])c([H])c1[H]


 23 25  0  0  0  0  0  0  0  0999 V2000
    9.9581   45.7193  134.1367 N   0  0  0  0  0  0  0  0  0  0  0  0
   10.5378   46.9810  133.7471 C   0  0  0  0  0  0  0  0  0  0  0  0
   10.2800   47.3887  132.3226 C   0  0  0  0  0  0  0  0  0  0  0  0
    8.9262   47.1904  131.9083 N   0  0  0  0  0  0  0  0  0  0  0  0
    8.1663   46.1241  132.5073 C   0  0  0  0  0  0  0  0  0  0  0  0
    9.1317   45.1452  133.1056 C   0  0  0  0  0  0  0  0  0  0  0  0
    8.3650   48.0412  130.9200 C   0  0  0  0  0  0  0  0  0  0  0  0
    8.0199   47.5974  129.6643 C   0  0  0  0  0  0  0  0  0  0  0  0
    7.4789   48.4565  128.7049 C   0  0  0  0  0  0  0  0  0  0  0  0
    7.2804   49.7754  129.0048 C   0  0  0  0  0  0  0  0  0  0  0  0
    7.6323   50.1964  130.2655 C   0  0  0  0  0  0  0  0  0  0  0  0
    8.1502   49.3598  131.1746 N   0  0  0  0  0  0  0  0  0  0  0  0
   10.9631   44.7926  134.6107 C   0  0  0  0  0  0  0  0  0  0  0  0
   10.9986   43.5905  133.7041 C   0  0  0  0  0  0  0  0  0  0  0  0
   12.4100   43.4869  133.1277 C   0  0  0  0  0  0  0  0  0  0  0  0
   12.5925   44.6634  131.7635 S   0  0  0  0  0  0  0  0  0  0  0  0
    9.0371   43.2258  127.2091 F   0  0  0  0  0  0  0  0  0  0  0  0
    9.8394   43.5379  128.2622 C   0  0  0  0  0  0  0  0  0  0  0  0
   10.8061   44.5243  128.1195 C   0  0  0  0  0  0  0  0  0  0  0  0
   11.6293   44.8603  129.1641 C   0  0  0  0  0  0  0  0  0  0  0  0
   11.5349   44.2394  130.3914 C   0  0  0  0  0  0  0  0  0  0  0  0
   10.5706   43.2611  130.5206 C   0  0  0  0  0  0  0  0  0  0  0  0
    9.7305   42.9074  129.4801 C   0  0  0  0  0  0  0  0  0  0  0  0
 17 18  1  0  0  0
 18 19  2  0  0  0
 19 20  1  0  0  0
 20 21  2  0  0  0
 21 16  1  0  0  0
 16 15  1  0  0  0
 15 14  1  0  0  0
 14 13  1  0  0  0
 13  1  1  0  0  0
  1  2  1  0  0  0
  2  3  1  0  0  0
  3  4  1  0  0  0
  4  7  1  0  0  0
  7  8  2  0  0  0
  8  9  1  0  0  0
  9 10  2  0  0  0
 10 11  1  0  0  0
 11 12  2  0  0  0
  4  5  1  0  0  0
  5  6  1  0  0  0
 21 22  1  0  0  0
 22 23  2  0  0  0
 23 18  1  0  0  0
  6  1  1  0  0  0
 12  7  1  0  0  0
M  END
> <minimizedAffinity>
-8.14262

> <CNNscore>
0.3253472149

> <CNNaffinity>
7.1834578514

> <CNN_VS>
2.3371179104

> <CNNaffinity_variance>
0.0535720177

$$$$
[H]c1nc(N2C([H])([H])C([H])([H])N(C([H])([H])C([H])([H])C([H])([H])Sc3c([H])c([H])c(F)c([H])c3[H])C([H])([H])C2([H])[H])c([H])c([H])c1[H]


 23 25  0  0  0  0  0  0  0  0999 V2000
   10.1423   45.0176  133.1766 N   0  0  0  0  0  0  0  0  0  0  0  0
    8.7301   44.9652  132.8892 C   0  0  0  0  0  0  0  0  0  0  0  0
    8.1131   46.2745  132.4808 C   0  0  0  0  0  0  0  0  0  0  0  0
    8.8972   47.0042  131.5340 N   0  0  0  0  0  0  0  0  0  0  0  0
   10.3288   46.8508  131.5535 C   0  0  0  0  0  0  0  0  0  0  0  0
   10.7193   46.3075  132.8954 C   0  0  0  0  0  0  0  0  0  0  0  0
    8.2523   47.8606  130.6033 C   0  0  0  0  0  0  0  0  0  0  0  0
    7.6343   47.3937  129.4662 C   0  0  0  0  0  0  0  0  0  0  0  0
    7.0154   48.2576  128.5596 C   0  0  0  0  0  0  0  0  0  0  0  0
    7.0142   49.6045  128.7930 C   0  0  0  0  0  0  0  0  0  0  0  0
    7.6373   50.0482  129.9355 C   0  0  0  0  0  0  0  0  0  0  0  0
    8.2267   49.2068  130.7952 N   0  0  0  0  0  0  0  0  0  0  0  0
   10.4313   44.5713  134.5222 C   0  0  0  0  0  0  0  0  0  0  0  0
   10.5342   43.0689  134.5370 C   0  0  0  0  0  0  0  0  0  0  0  0
    9.8641   42.5464  133.2670 C   0  0  0  0  0  0  0  0  0  0  0  0
   11.1314   42.1431  132.0382 S   0  0  0  0  0  0  0  0  0  0  0  0
   10.7663   45.7461  127.3122 F   0  0  0  0  0  0  0  0  0  0  0  0
   10.8287   44.9152  128.3873 C   0  0  0  0  0  0  0  0  0  0  0  0
   11.9880   44.8658  129.1498 C   0  0  0  0  0  0  0  0  0  0  0  0
   12.0796   44.0376  130.2395 C   0  0  0  0  0  0  0  0  0  0  0  0
   11.0345   43.2243  130.6232 C   0  0  0  0  0  0  0  0  0  0  0  0
    9.8882   43.2826  129.8575 C   0  0  0  0  0  0  0  0  0  0  0  0
    9.7752   44.1107  128.7553 C   0  0  0  0  0  0  0  0  0  0  0  0
 17 18  1  0  0  0
 18 19  2  0  0  0
 19 20  1  0  0  0
 20 21  2  0  0  0
 21 16  1  0  0  0
 16 15  1  0  0  0
 15 14  1  0  0  0
 14 13  1  0  0  0
 13  1  1  0  0  0
  1  2  1  0  0  0
  2  3  1  0  0  0
  3  4  1  0  0  0
  4  7  1  0  0  0
  7  8  2  0  0  0
  8  9  1  0  0  0
  9 10  2  0  0  0
 10 11  1  0  0  0
 11 12  2  0  0  0
  4  5  1  0  0  0
  5  6  1  0  0  0
 21 22  1  0  0  0
 22 23  2  0  0  0
 23 18  1  0  0  0
  6  1  1  0  0  0
 12  7  1  0  0  0
M  END
> <minimizedAffinity>
-6.63795

> <CNNscore>
0.2509738803

> <CNNaffinity>
7.0623397827

> <CNN_VS>
1.7724628448

> <CNNaffinity_variance>
0.1337087750

$$$$
[H]c1nc(N2C([H])([H])C([H])([H])N(C([H])([H])C([H])([H])C([H])([H])Sc3c([H])c([H])c(F)c([H])c3[H])C([H])([H])C2([H])[H])c([H])c([H])c1[H]


 23 25  0  0  0  0  0  0  0  0999 V2000
   11.1589   46.7850  133.3227 N   0  0  0  0  0  0  0  0  0  0  0  0
   11.2860   46.8130  131.8865 C   0  0  0  0  0  0  0  0  0  0  0  0
    9.9856   46.8156  131.1309 C   0  0  0  0  0  0  0  0  0  0  0  0
    9.0138   47.7146  131.6707 N   0  0  0  0  0  0  0  0  0  0  0  0
    9.0332   47.9907  133.0838 C   0  0  0  0  0  0  0  0  0  0  0  0
    9.7906   46.8886  133.7619 C   0  0  0  0  0  0  0  0  0  0  0  0
    8.0554   48.3091  130.8085 C   0  0  0  0  0  0  0  0  0  0  0  0
    7.9284   49.6713  130.6631 C   0  0  0  0  0  0  0  0  0  0  0  0
    6.9701   50.2331  129.8162 C   0  0  0  0  0  0  0  0  0  0  0  0
    6.1288   49.4230  129.1058 C   0  0  0  0  0  0  0  0  0  0  0  0
    6.2742   48.0653  129.2665 C   0  0  0  0  0  0  0  0  0  0  0  0
    7.1983   47.5419  130.0830 N   0  0  0  0  0  0  0  0  0  0  0  0
   11.8319   45.6402  133.8971 C   0  0  0  0  0  0  0  0  0  0  0  0
   11.4591   44.4035  133.1226 C   0  0  0  0  0  0  0  0  0  0  0  0
   10.7958   43.4300  134.0959 C   0  0  0  0  0  0  0  0  0  0  0  0
    9.4830   42.5224  133.2409 S   0  0  0  0  0  0  0  0  0  0  0  0
    9.2788   43.9343  127.4603 F   0  0  0  0  0  0  0  0  0  0  0  0
    9.3457   43.6015  128.7774 C   0  0  0  0  0  0  0  0  0  0  0  0
    8.3374   44.0100  129.6403 C   0  0  0  0  0  0  0  0  0  0  0  0
    8.3782   43.6891  130.9734 C   0  0  0  0  0  0  0  0  0  0  0  0
    9.4125   42.9535  131.5117 C   0  0  0  0  0  0  0  0  0  0  0  0
   10.4080   42.5535  130.6442 C   0  0  0  0  0  0  0  0  0  0  0  0
   10.3860   42.8663  129.2970 C   0  0  0  0  0  0  0  0  0  0  0  0
 17 18  1  0  0  0
 18 19  2  0  0  0
 19 20  1  0  0  0
 20 21  2  0  0  0
 21 16  1  0  0  0
 16 15  1  0  0  0
 15 14  1  0  0  0
 14 13  1  0  0  0
 13  1  1  0  0  0
  1  2  1  0  0  0
  2  3  1  0  0  0
  3  4  1  0  0  0
  4  7  1  0  0  0
  7  8  2  0  0  0
  8  9  1  0  0  0
  9 10  2  0  0  0
 10 11  1  0  0  0
 11 12  2  0  0  0
  4  5  1  0  0  0
  5  6  1  0  0  0
 21 22  1  0  0  0
 22 23  2  0  0  0
 23 18  1  0  0  0
  6  1  1  0  0  0
 12  7  1  0  0  0
M  END
> <minimizedAffinity>
-5.96468

> <CNNscore>
0.2371203601

> <CNNaffinity>
7.0866460800

> <CNN_VS>
1.6803880930

> <CNNaffinity_variance>
0.2105230391

$$$$
[H]c1nc(N2C([H])([H])C([H])([H])N(C([H])([H])C([H])([H])C([H])([H])Sc3c([H])c([H])c(F)c([H])c3[H])C([H])([H])C2([H])[H])c([H])c([H])c1[H]


 23 25  0  0  0  0  0  0  0  0999 V2000
    7.2095   47.0073  129.1901 N   0  0  0  0  0  0  0  0  0  0  0  0
    8.5947   46.9668  128.7910 C   0  0  0  0  0  0  0  0  0  0  0  0
    9.5535   46.5172  129.8588 C   0  0  0  0  0  0  0  0  0  0  0  0
    9.0998   45.3748  130.5890 N   0  0  0  0  0  0  0  0  0  0  0  0
    7.6835   45.1738  130.7532 C   0  0  0  0  0  0  0  0  0  0  0  0
    6.9978   46.4860  130.5165 C   0  0  0  0  0  0  0  0  0  0  0  0
   10.0488   44.4711  131.1349 C   0  0  0  0  0  0  0  0  0  0  0  0
   11.3889   44.5232  130.8277 C   0  0  0  0  0  0  0  0  0  0  0  0
   12.3022   43.6158  131.3696 C   0  0  0  0  0  0  0  0  0  0  0  0
   11.8703   42.6446  132.2295 C   0  0  0  0  0  0  0  0  0  0  0  0
   10.5273   42.6120  132.5222 C   0  0  0  0  0  0  0  0  0  0  0  0
    9.6640   43.4895  131.9940 N   0  0  0  0  0  0  0  0  0  0  0  0
    6.6439   48.3288  129.0257 C   0  0  0  0  0  0  0  0  0  0  0  0
    7.7175   49.3610  129.2496 C   0  0  0  0  0  0  0  0  0  0  0  0
    7.6099   49.8341  130.6986 C   0  0  0  0  0  0  0  0  0  0  0  0
    9.2628   49.9045  131.4346 S   0  0  0  0  0  0  0  0  0  0  0  0
   10.2506   45.3157  135.0976 F   0  0  0  0  0  0  0  0  0  0  0  0
   10.0469   46.3634  134.2544 C   0  0  0  0  0  0  0  0  0  0  0  0
    8.7736   46.9014  134.1237 C   0  0  0  0  0  0  0  0  0  0  0  0
    8.5383   47.9581  133.2812 C   0  0  0  0  0  0  0  0  0  0  0  0
    9.5462   48.5283  132.5330 C   0  0  0  0  0  0  0  0  0  0  0  0
   10.8068   47.9849  132.6717 C   0  0  0  0  0  0  0  0  0  0  0  0
   11.0653   46.9198  133.5155 C   0  0  0  0  0  0  0  0  0  0  0  0
 17 18  1  0  0  0
 18 19  2  0  0  0
 19 20  1  0  0  0
 20 21  2  0  0  0
 21 16  1  0  0  0
 16 15  1  0  0  0
 15 14  1  0  0  0
 14 13  1  0  0  0
 13  1  1  0  0  0
  1  2  1  0  0  0
  2  3  1  0  0  0
  3  4  1  0  0  0
  4  7  1  0  0  0
  7  8  2  0  0  0
  8  9  1  0  0  0
  9 10  2  0  0  0
 10 11  1  0  0  0
 11 12  2  0  0  0
  4  5  1  0  0  0
  5  6  1  0  0  0
 21 22  1  0  0  0
 22 23  2  0  0  0
 23 18  1  0  0  0
  6  1  1  0  0  0
 12  7  1  0  0  0
M  END
> <minimizedAffinity>
-6.81648

> <CNNscore>
0.2051524669

> <CNNaffinity>
7.0862441063

> <CNN_VS>
1.4537605047

> <CNNaffinity_variance>
0.1750340164

$$$$
[H]c1nc(N2C([H])([H])C([H])([H])N(C([H])([H])C([H])([H])C([H])([H])Sc3c([H])c([H])c(F)c([H])c3[H])C([H])([H])C2([H])[H])c([H])c([H])c1[H]


 23 25  0  0  0  0  0  0  0  0999 V2000
    7.3502   45.8413  129.6072 N   0  0  0  0  0  0  0  0  0  0  0  0
    8.6404   45.3790  129.1587 C   0  0  0  0  0  0  0  0  0  0  0  0
    9.7570   45.5400  130.1532 C   0  0  0  0  0  0  0  0  0  0  0  0
    9.4003   45.1463  131.4805 N   0  0  0  0  0  0  0  0  0  0  0  0
    8.0294   45.2814  131.8996 C   0  0  0  0  0  0  0  0  0  0  0  0
    7.3588   46.2623  130.9851 C   0  0  0  0  0  0  0  0  0  0  0  0
   10.3989   44.6369  132.3515 C   0  0  0  0  0  0  0  0  0  0  0  0
   10.2804   44.6727  133.7217 C   0  0  0  0  0  0  0  0  0  0  0  0
   11.2819   44.1745  134.5585 C   0  0  0  0  0  0  0  0  0  0  0  0
   12.4154   43.6339  134.0186 C   0  0  0  0  0  0  0  0  0  0  0  0
   12.5119   43.6084  132.6473 C   0  0  0  0  0  0  0  0  0  0  0  0
   11.5425   44.0904  131.8584 N   0  0  0  0  0  0  0  0  0  0  0  0
    6.8108   46.8568  128.7290 C   0  0  0  0  0  0  0  0  0  0  0  0
    6.3007   48.0087  129.5543 C   0  0  0  0  0  0  0  0  0  0  0  0
    6.6582   49.2994  128.8187 C   0  0  0  0  0  0  0  0  0  0  0  0
    7.4422   50.4540  129.9723 S   0  0  0  0  0  0  0  0  0  0  0  0
   11.1608   47.6410  133.6749 F   0  0  0  0  0  0  0  0  0  0  0  0
   10.2960   48.2853  132.8460 C   0  0  0  0  0  0  0  0  0  0  0  0
   10.6782   48.5684  131.5415 C   0  0  0  0  0  0  0  0  0  0  0  0
    9.8271   49.2168  130.6831 C   0  0  0  0  0  0  0  0  0  0  0  0
    8.5655   49.6132  131.0732 C   0  0  0  0  0  0  0  0  0  0  0  0
    8.1976   49.3262  132.3716 C   0  0  0  0  0  0  0  0  0  0  0  0
    9.0404   48.6733  133.2530 C   0  0  0  0  0  0  0  0  0  0  0  0
 17 18  1  0  0  0
 18 19  2  0  0  0
 19 20  1  0  0  0
 20 21  2  0  0  0
 21 16  1  0  0  0
 16 15  1  0  0  0
 15 14  1  0  0  0
 14 13  1  0  0  0
 13  1  1  0  0  0
  1  2  1  0  0  0
  2  3  1  0  0  0
  3  4  1  0  0  0
  4  7  1  0  0  0
  7  8  2  0  0  0
  8  9  1  0  0  0
  9 10  2  0  0  0
 10 11  1  0  0  0
 11 12  2  0  0  0
  4  5  1  0  0  0
  5  6  1  0  0  0
 21 22  1  0  0  0
 22 23  2  0  0  0
 23 18  1  0  0  0
  6  1  1  0  0  0
 12  7  1  0  0  0
M  END
> <minimizedAffinity>
-4.48874

> <CNNscore>
0.1867673099

> <CNNaffinity>
6.8430490494

> <CNN_VS>
1.2780578136

> <CNNaffinity_variance>
0.2026285231

$$$$
[H]c1c([H])c([H])c2c(c1[H])[C@]([H])(c1c([H])c([H])c(F)c([H])c1[H])C([H])([H])C([H])([H])[C@]2([H])N([H])C([H])([H])[H]


 20 22  0  0  0  0  0  0  0  0999 V2000
    7.2151   48.5458  129.8528 C   0  0  0  0  0  0  0  0  0  0  0  0
    6.8100   47.2143  129.3148 C   0  0  0  0  0  0  0  0  0  0  0  0
    7.9406   46.2185  129.4271 C   0  0  0  0  0  0  0  0  0  0  0  0
    8.1402   45.9940  130.9334 C   0  0  0  0  0  0  0  0  0  0  0  0
    8.7258   47.2812  131.4197 C   0  0  0  0  0  0  0  0  0  0  0  0
    9.7020   47.2651  132.3776 C   0  0  0  0  0  0  0  0  0  0  0  0
   10.2293   48.4658  132.8110 C   0  0  0  0  0  0  0  0  0  0  0  0
    9.8093   49.6672  132.3161 C   0  0  0  0  0  0  0  0  0  0  0  0
    8.8161   49.6471  131.3441 C   0  0  0  0  0  0  0  0  0  0  0  0
    8.2683   48.4682  130.8891 C   0  0  0  0  0  0  0  0  0  0  0  0
    8.9453   44.8182  131.2388 C   0  0  0  0  0  0  0  0  0  0  0  0
   10.0048   44.4787  130.4291 C   0  0  0  0  0  0  0  0  0  0  0  0
   10.7913   43.3754  130.6827 C   0  0  0  0  0  0  0  0  0  0  0  0
   10.5239   42.5808  131.7707 C   0  0  0  0  0  0  0  0  0  0  0  0
   11.3081   41.4908  132.0120 F   0  0  0  0  0  0  0  0  0  0  0  0
    9.4774   42.8938  132.5930 C   0  0  0  0  0  0  0  0  0  0  0  0
    8.6849   44.0158  132.3272 C   0  0  0  0  0  0  0  0  0  0  0  0
    6.9649   50.8175  129.0851 C   0  0  0  0  0  0  0  0  0  0  0  0
    7.5151   49.5178  128.8184 N   0  0  0  0  0  0  0  0  0  0  0  0
    8.5552   49.6068  128.7855 H   0  0  0  0  0  0  0  0  0  0  0  0
 18 19  1  0  0  0
 19  1  1  0  0  0
  1  2  1  0  0  0
  2  3  1  0  0  0
  3  4  1  0  0  0
  4 11  1  0  0  0
 11 12  2  0  0  0
 12 13  1  0  0  0
 13 14  2  0  0  0
 14 15  1  0  0  0
 14 16  1  0  0  0
 16 17  2  0  0  0
  4  5  1  0  0  0
  5  6  2  0  0  0
  6  7  1  0  0  0
  7  8  2  0  0  0
  8  9  1  0  0  0
  9 10  2  0  0  0
 10  1  1  0  0  0
 17 11  1  0  0  0
 10  5  1  0  0  0
 19 20  1  0  0  0
M  END
> <minimizedAffinity>
-8.75845

> <CNNscore>
0.5518947840

> <CNNaffinity>
6.8396239281

> <CNN_VS>
3.7747528553

> <CNNaffinity_variance>
0.1499298364

$$$$
[H]c1c([H])c([H])c2c(c1[H])[C@]([H])(c1c([H])c([H])c(F)c([H])c1[H])C([H])([H])C([H])([H])[C@]2([H])N([H])C([H])([H])[H]


 20 22  0  0  0  0  0  0  0  0999 V2000
    7.3596   42.8387  131.9860 C   0  0  0  0  0  0  0  0  0  0  0  0
    7.5004   43.3464  133.3820 C   0  0  0  0  0  0  0  0  0  0  0  0
    8.9502   43.6019  133.7213 C   0  0  0  0  0  0  0  0  0  0  0  0
    9.3792   44.7748  132.8272 C   0  0  0  0  0  0  0  0  0  0  0  0
    9.4145   44.1907  131.4510 C   0  0  0  0  0  0  0  0  0  0  0  0
   10.3992   44.5648  130.5786 C   0  0  0  0  0  0  0  0  0  0  0  0
   10.4129   44.0117  129.3132 C   0  0  0  0  0  0  0  0  0  0  0  0
    9.4775   43.1050  128.9039 C   0  0  0  0  0  0  0  0  0  0  0  0
    8.4913   42.7471  129.8154 C   0  0  0  0  0  0  0  0  0  0  0  0
    8.4476   43.2790  131.0852 C   0  0  0  0  0  0  0  0  0  0  0  0
   10.6314   45.3911  133.2470 C   0  0  0  0  0  0  0  0  0  0  0  0
   10.6420   46.2909  134.2880 C   0  0  0  0  0  0  0  0  0  0  0  0
   11.8043   46.8956  134.7164 C   0  0  0  0  0  0  0  0  0  0  0  0
   12.9952   46.6035  134.0976 C   0  0  0  0  0  0  0  0  0  0  0  0
   14.1395   47.2084  134.5290 F   0  0  0  0  0  0  0  0  0  0  0  0
   13.0151   45.7130  133.0603 C   0  0  0  0  0  0  0  0  0  0  0  0
   11.8300   45.1042  132.6328 C   0  0  0  0  0  0  0  0  0  0  0  0
    6.4586   40.8890  133.0813 C   0  0  0  0  0  0  0  0  0  0  0  0
    7.1142   41.4106  131.9146 N   0  0  0  0  0  0  0  0  0  0  0  0
    6.4866   41.2565  131.0942 H   0  0  0  0  0  0  0  0  0  0  0  0
 18 19  1  0  0  0
 19  1  1  0  0  0
  1  2  1  0  0  0
  2  3  1  0  0  0
  3  4  1  0  0  0
  4 11  1  0  0  0
 11 12  2  0  0  0
 12 13  1  0  0  0
 13 14  2  0  0  0
 14 15  1  0  0  0
 14 16  1  0  0  0
 16 17  2  0  0  0
  4  5  1  0  0  0
  5  6  2  0  0  0
  6  7  1  0  0  0
  7  8  2  0  0  0
  8  9  1  0  0  0
  9 10  2  0  0  0
 10  1  1  0  0  0
 17 11  1  0  0  0
 10  5  1  0  0  0
 19 20  1  0  0  0
M  END
> <minimizedAffinity>
9.90937

> <CNNscore>
0.4813011885

> <CNNaffinity>
6.6655168533

> <CNN_VS>
3.2081212997

> <CNNaffinity_variance>
2.1409442425

$$$$
[H]c1c([H])c([H])c2c(c1[H])[C@]([H])(c1c([H])c([H])c(F)c([H])c1[H])C([H])([H])C([H])([H])[C@]2([H])N([H])C([H])([H])[H]


 20 22  0  0  0  0  0  0  0  0999 V2000
    7.1111   47.4282  130.1942 C   0  0  0  0  0  0  0  0  0  0  0  0
    7.1729   45.9402  130.2859 C   0  0  0  0  0  0  0  0  0  0  0  0
    8.5818   45.4734  130.5677 C   0  0  0  0  0  0  0  0  0  0  0  0
    8.9025   45.9721  131.9846 C   0  0  0  0  0  0  0  0  0  0  0  0
    9.0233   47.4546  131.8311 C   0  0  0  0  0  0  0  0  0  0  0  0
    9.9794   48.1353  132.5335 C   0  0  0  0  0  0  0  0  0  0  0  0
   10.0735   49.5041  132.3753 C   0  0  0  0  0  0  0  0  0  0  0  0
    9.2453   50.2002  131.5422 C   0  0  0  0  0  0  0  0  0  0  0  0
    8.2853   49.4775  130.8437 C   0  0  0  0  0  0  0  0  0  0  0  0
    8.1635   48.1121  130.9776 C   0  0  0  0  0  0  0  0  0  0  0  0
   10.0758   45.3342  132.5680 C   0  0  0  0  0  0  0  0  0  0  0  0
   10.1080   45.0490  133.9137 C   0  0  0  0  0  0  0  0  0  0  0  0
   11.1977   44.4461  134.5048 C   0  0  0  0  0  0  0  0  0  0  0  0
   12.2915   44.1137  133.7435 C   0  0  0  0  0  0  0  0  0  0  0  0
   13.3650   43.5181  134.3387 F   0  0  0  0  0  0  0  0  0  0  0  0
   12.2877   44.3850  132.4034 C   0  0  0  0  0  0  0  0  0  0  0  0
   11.1768   44.9972  131.8127 C   0  0  0  0  0  0  0  0  0  0  0  0
    5.6760   47.9096  128.3176 C   0  0  0  0  0  0  0  0  0  0  0  0
    7.0171   47.9178  128.8317 N   0  0  0  0  0  0  0  0  0  0  0  0
    7.3524   48.9069  128.8465 H   0  0  0  0  0  0  0  0  0  0  0  0
 18 19  1  0  0  0
 19  1  1  0  0  0
  1  2  1  0  0  0
  2  3  1  0  0  0
  3  4  1  0  0  0
  4 11  1  0  0  0
 11 12  2  0  0  0
 12 13  1  0  0  0
 13 14  2  0  0  0
 14 15  1  0  0  0
 14 16  1  0  0  0
 16 17  2  0  0  0
  4  5  1  0  0  0
  5  6  2  0  0  0
  6  7  1  0  0  0
  7  8  2  0  0  0
  8  9  1  0  0  0
  9 10  2  0  0  0
 10  1  1  0  0  0
 17 11  1  0  0  0
 10  5  1  0  0  0
 19 20  1  0  0  0
M  END
> <minimizedAffinity>
-7.68018

> <CNNscore>
0.4732451737

> <CNNaffinity>
6.8418569565

> <CNN_VS>
3.2378757000

> <CNNaffinity_variance>
0.4205317497

$$$$
[H]c1c([H])c([H])c2c(c1[H])[C@]([H])(c1c([H])c([H])c(F)c([H])c1[H])C([H])([H])C([H])([H])[C@]2([H])N([H])C([H])([H])[H]


 20 22  0  0  0  0  0  0  0  0999 V2000
    6.7193   47.8100  129.9247 C   0  0  0  0  0  0  0  0  0  0  0  0
    6.8648   46.3994  129.4606 C   0  0  0  0  0  0  0  0  0  0  0  0
    8.3028   46.0881  129.1181 C   0  0  0  0  0  0  0  0  0  0  0  0
    9.0634   46.1478  130.4512 C   0  0  0  0  0  0  0  0  0  0  0  0
    9.0690   47.6011  130.8033 C   0  0  0  0  0  0  0  0  0  0  0  0
   10.1793   48.1577  131.3762 C   0  0  0  0  0  0  0  0  0  0  0  0
   10.1626   49.5021  131.6919 C   0  0  0  0  0  0  0  0  0  0  0  0
    9.0761   50.2937  131.4520 C   0  0  0  0  0  0  0  0  0  0  0  0
    7.9650   49.6960  130.8690 C   0  0  0  0  0  0  0  0  0  0  0  0
    7.9474   48.3583  130.5412 C   0  0  0  0  0  0  0  0  0  0  0  0
   10.3880   45.5436  130.3863 C   0  0  0  0  0  0  0  0  0  0  0  0
   10.9554   45.2557  129.1662 C   0  0  0  0  0  0  0  0  0  0  0  0
   12.2057   44.6849  129.0607 C   0  0  0  0  0  0  0  0  0  0  0  0
   12.9198   44.3882  130.1960 C   0  0  0  0  0  0  0  0  0  0  0  0
   14.1559   43.8226  130.0802 F   0  0  0  0  0  0  0  0  0  0  0  0
   12.3811   44.6633  131.4222 C   0  0  0  0  0  0  0  0  0  0  0  0
   11.1112   45.2428  131.5188 C   0  0  0  0  0  0  0  0  0  0  0  0
    4.9371   49.3270  129.3456 C   0  0  0  0  0  0  0  0  0  0  0  0
    6.1529   48.6911  128.9208 N   0  0  0  0  0  0  0  0  0  0  0  0
    6.8631   49.4359  128.7430 H   0  0  0  0  0  0  0  0  0  0  0  0
 18 19  1  0  0  0
 19  1  1  0  0  0
  1  2  1  0  0  0
  2  3  1  0  0  0
  3  4  1  0  0  0
  4 11  1  0  0  0
 11 12  2  0  0  0
 12 13  1  0  0  0
 13 14  2  0  0  0
 14 15  1  0  0  0
 14 16  1  0  0  0
 16 17  2  0  0  0
  4  5  1  0  0  0
  5  6  2  0  0  0
  6  7  1  0  0  0
  7  8  2  0  0  0
  8  9  1  0  0  0
  9 10  2  0  0  0
 10  1  1  0  0  0
 17 11  1  0  0  0
 10  5  1  0  0  0
 19 20  1  0  0  0
M  END
> <minimizedAffinity>
-6.85531

> <CNNscore>
0.3817191422

> <CNNaffinity>
6.5102071762

> <CNN_VS>
2.4850707054

> <CNNaffinity_variance>
0.3989138603

$$$$
[H]c1c([H])c([H])c2c(c1[H])[C@]([H])(c1c([H])c([H])c(F)c([H])c1[H])C([H])([H])C([H])([H])[C@]2([H])N([H])C([H])([H])[H]


 20 22  0  0  0  0  0  0  0  0999 V2000
    8.3343   43.7933  129.5927 C   0  0  0  0  0  0  0  0  0  0  0  0
    9.0978   42.8917  130.5040 C   0  0  0  0  0  0  0  0  0  0  0  0
   10.3195   43.5884  131.0557 C   0  0  0  0  0  0  0  0  0  0  0  0
    9.7798   44.7047  131.9622 C   0  0  0  0  0  0  0  0  0  0  0  0
    9.1841   45.6920  131.0101 C   0  0  0  0  0  0  0  0  0  0  0  0
    9.3165   47.0322  131.2491 C   0  0  0  0  0  0  0  0  0  0  0  0
    8.7593   47.9260  130.3557 C   0  0  0  0  0  0  0  0  0  0  0  0
    8.0814   47.5174  129.2430 C   0  0  0  0  0  0  0  0  0  0  0  0
    7.9657   46.1488  129.0305 C   0  0  0  0  0  0  0  0  0  0  0  0
    8.5090   45.2297  129.9008 C   0  0  0  0  0  0  0  0  0  0  0  0
   10.7907   45.2654  132.8497 C   0  0  0  0  0  0  0  0  0  0  0  0
   12.0845   44.7993  132.8025 C   0  0  0  0  0  0  0  0  0  0  0  0
   13.0706   45.3026  133.6239 C   0  0  0  0  0  0  0  0  0  0  0  0
   12.7706   46.2982  134.5212 C   0  0  0  0  0  0  0  0  0  0  0  0
   13.7539   46.7886  135.3300 F   0  0  0  0  0  0  0  0  0  0  0  0
   11.4933   46.7810  134.5903 C   0  0  0  0  0  0  0  0  0  0  0  0
   10.4994   46.2636  133.7523 C   0  0  0  0  0  0  0  0  0  0  0  0
    9.9120   43.3196  127.8322 C   0  0  0  0  0  0  0  0  0  0  0  0
    8.5309   43.4921  128.1871 N   0  0  0  0  0  0  0  0  0  0  0  0
    8.0342   42.5920  128.0028 H   0  0  0  0  0  0  0  0  0  0  0  0
 18 19  1  0  0  0
 19  1  1  0  0  0
  1  2  1  0  0  0
  2  3  1  0  0  0
  3  4  1  0  0  0
  4 11  1  0  0  0
 11 12  2  0  0  0
 12 13  1  0  0  0
 13 14  2  0  0  0
 14 15  1  0  0  0
 14 16  1  0  0  0
 16 17  2  0  0  0
  4  5  1  0  0  0
  5  6  2  0  0  0
  6  7  1  0  0  0
  7  8  2  0  0  0
  8  9  1  0  0  0
  9 10  2  0  0  0
 10  1  1  0  0  0
 17 11  1  0  0  0
 10  5  1  0  0  0
 19 20  1  0  0  0
M  END
> <minimizedAffinity>
-2.03812

> <CNNscore>
0.3726899922

> <CNNaffinity>
6.7066650391

> <CNN_VS>
2.4995069504

> <CNNaffinity_variance>
1.0820977688

$$$$
[H]c1c([H])c([H])c2c(c1[H])[C@]([H])(c1c([H])c([H])c(F)c([H])c1[H])C([H])([H])C([H])([H])[C@]2([H])N([H])C([H])([H])[H]


 20 22  0  0  0  0  0  0  0  0999 V2000
    9.2598   47.9807  129.6896 C   0  0  0  0  0  0  0  0  0  0  0  0
    9.1537   48.4366  131.1064 C   0  0  0  0  0  0  0  0  0  0  0  0
    9.1594   47.2610  132.0550 C   0  0  0  0  0  0  0  0  0  0  0  0
   10.5631   46.6483  131.9393 C   0  0  0  0  0  0  0  0  0  0  0  0
   10.5804   46.0303  130.5777 C   0  0  0  0  0  0  0  0  0  0  0  0
   11.2106   44.8322  130.3827 C   0  0  0  0  0  0  0  0  0  0  0  0
   11.2130   44.2794  129.1170 C   0  0  0  0  0  0  0  0  0  0  0  0
   10.6081   44.8880  128.0548 C   0  0  0  0  0  0  0  0  0  0  0  0
    9.9770   46.1041  128.2881 C   0  0  0  0  0  0  0  0  0  0  0  0
    9.9554   46.6838  129.5373 C   0  0  0  0  0  0  0  0  0  0  0  0
   10.8785   45.7225  133.0197 C   0  0  0  0  0  0  0  0  0  0  0  0
    9.9318   45.4284  133.9740 C   0  0  0  0  0  0  0  0  0  0  0  0
   10.1892   44.5581  135.0115 C   0  0  0  0  0  0  0  0  0  0  0  0
   11.4208   43.9583  135.1112 C   0  0  0  0  0  0  0  0  0  0  0  0
   11.6652   43.0993  136.1425 F   0  0  0  0  0  0  0  0  0  0  0  0
   12.3812   44.2317  134.1772 C   0  0  0  0  0  0  0  0  0  0  0  0
   12.1102   45.1164  133.1276 C   0  0  0  0  0  0  0  0  0  0  0  0
    7.1818   49.1524  129.3401 C   0  0  0  0  0  0  0  0  0  0  0  0
    7.9993   48.0299  128.9729 N   0  0  0  0  0  0  0  0  0  0  0  0
    8.2358   48.1191  127.9595 H   0  0  0  0  0  0  0  0  0  0  0  0
 18 19  1  0  0  0
 19  1  1  0  0  0
  1  2  1  0  0  0
  2  3  1  0  0  0
  3  4  1  0  0  0
  4 11  1  0  0  0
 11 12  2  0  0  0
 12 13  1  0  0  0
 13 14  2  0  0  0
 14 15  1  0  0  0
 14 16  1  0  0  0
 16 17  2  0  0  0
  4  5  1  0  0  0
  5  6  2  0  0  0
  6  7  1  0  0  0
  7  8  2  0  0  0
  8  9  1  0  0  0
  9 10  2  0  0  0
 10  1  1  0  0  0
 17 11  1  0  0  0
 10  5  1  0  0  0
 19 20  1  0  0  0
M  END
> <minimizedAffinity>
-6.79072

> <CNNscore>
0.3526994288

> <CNNaffinity>
6.6267356873

> <CNN_VS>
2.3372459412

> <CNNaffinity_variance>
0.3561602235

$$$$
[H]c1c([H])c([H])c2c(c1[H])[C@]([H])(c1c([H])c([H])c(F)c([H])c1[H])C([H])([H])C([H])([H])[C@]2([H])N([H])C([H])([H])[H]


 20 22  0  0  0  0  0  0  0  0999 V2000
   10.9021   44.4180  132.6074 C   0  0  0  0  0  0  0  0  0  0  0  0
   10.8050   45.7350  133.3020 C   0  0  0  0  0  0  0  0  0  0  0  0
   10.5485   46.8497  132.3152 C   0  0  0  0  0  0  0  0  0  0  0  0
    9.1403   46.5890  131.7601 C   0  0  0  0  0  0  0  0  0  0  0  0
    9.3027   45.3683  130.9117 C   0  0  0  0  0  0  0  0  0  0  0  0
    8.6220   45.2662  129.7297 C   0  0  0  0  0  0  0  0  0  0  0  0
    8.7881   44.1304  128.9618 C   0  0  0  0  0  0  0  0  0  0  0  0
    9.6080   43.1069  129.3422 C   0  0  0  0  0  0  0  0  0  0  0  0
   10.2846   43.2433  130.5485 C   0  0  0  0  0  0  0  0  0  0  0  0
   10.1422   44.3621  131.3391 C   0  0  0  0  0  0  0  0  0  0  0  0
    8.5770   47.7346  131.0571 C   0  0  0  0  0  0  0  0  0  0  0  0
    7.4950   47.5682  130.2235 C   0  0  0  0  0  0  0  0  0  0  0  0
    6.9320   48.6251  129.5407 C   0  0  0  0  0  0  0  0  0  0  0  0
    7.4533   49.8876  129.6849 C   0  0  0  0  0  0  0  0  0  0  0  0
    6.8889   50.9264  129.0039 F   0  0  0  0  0  0  0  0  0  0  0  0
    8.5284   50.0831  130.5068 C   0  0  0  0  0  0  0  0  0  0  0  0
    9.0928   49.0038  131.1956 C   0  0  0  0  0  0  0  0  0  0  0  0
   12.9289   44.4526  131.3021 C   0  0  0  0  0  0  0  0  0  0  0  0
   12.2646   43.9396  132.4677 N   0  0  0  0  0  0  0  0  0  0  0  0
   12.7851   44.2721  133.3100 H   0  0  0  0  0  0  0  0  0  0  0  0
 18 19  1  0  0  0
 19  1  1  0  0  0
  1  2  1  0  0  0
  2  3  1  0  0  0
  3  4  1  0  0  0
  4 11  1  0  0  0
 11 12  2  0  0  0
 12 13  1  0  0  0
 13 14  2  0  0  0
 14 15  1  0  0  0
 14 16  1  0  0  0
 16 17  2  0  0  0
  4  5  1  0  0  0
  5  6  2  0  0  0
  6  7  1  0  0  0
  7  8  2  0  0  0
  8  9  1  0  0  0
  9 10  2  0  0  0
 10  1  1  0  0  0
 17 11  1  0  0  0
 10  5  1  0  0  0
 19 20  1  0  0  0
M  END
> <minimizedAffinity>
-8.45933

> <CNNscore>
0.3510502875

> <CNNaffinity>
6.7456564903

> <CNN_VS>
2.3680646420

> <CNNaffinity_variance>
0.1366896331

$$$$
[H]c1c([H])c([H])c2c(c1[H])[C@]([H])(c1c([H])c([H])c(F)c([H])c1[H])C([H])([H])C([H])([H])[C@]2([H])N([H])C([H])([H])[H]


 20 22  0  0  0  0  0  0  0  0999 V2000
    9.8501   43.6874  132.4598 C   0  0  0  0  0  0  0  0  0  0  0  0
    8.7626   44.4526  133.1368 C   0  0  0  0  0  0  0  0  0  0  0  0
    8.7656   45.8987  132.6999 C   0  0  0  0  0  0  0  0  0  0  0  0
    8.3720   45.8787  131.2153 C   0  0  0  0  0  0  0  0  0  0  0  0
    9.5588   45.2787  130.5312 C   0  0  0  0  0  0  0  0  0  0  0  0
    9.9564   45.7587  129.3137 C   0  0  0  0  0  0  0  0  0  0  0  0
   11.0558   45.1903  128.7009 C   0  0  0  0  0  0  0  0  0  0  0  0
   11.7586   44.1664  129.2687 C   0  0  0  0  0  0  0  0  0  0  0  0
   11.3275   43.7030  130.5060 C   0  0  0  0  0  0  0  0  0  0  0  0
   10.2353   44.2466  131.1453 C   0  0  0  0  0  0  0  0  0  0  0  0
    7.9861   47.1876  130.7039 C   0  0  0  0  0  0  0  0  0  0  0  0
    8.6173   48.3208  131.1632 C   0  0  0  0  0  0  0  0  0  0  0  0
    8.2829   49.5773  130.7054 C   0  0  0  0  0  0  0  0  0  0  0  0
    7.2933   49.7208  129.7638 C   0  0  0  0  0  0  0  0  0  0  0  0
    6.9696   50.9691  129.3182 F   0  0  0  0  0  0  0  0  0  0  0  0
    6.6487   48.6124  129.2891 C   0  0  0  0  0  0  0  0  0  0  0  0
    6.9954   47.3413  129.7600 C   0  0  0  0  0  0  0  0  0  0  0  0
   11.2027   44.4508  134.3039 C   0  0  0  0  0  0  0  0  0  0  0  0
   10.9918   43.4288  133.3169 N   0  0  0  0  0  0  0  0  0  0  0  0
   10.7934   42.5328  133.8155 H   0  0  0  0  0  0  0  0  0  0  0  0
 18 19  1  0  0  0
 19  1  1  0  0  0
  1  2  1  0  0  0
  2  3  1  0  0  0
  3  4  1  0  0  0
  4 11  1  0  0  0
 11 12  2  0  0  0
 12 13  1  0  0  0
 13 14  2  0  0  0
 14 15  1  0  0  0
 14 16  1  0  0  0
 16 17  2  0  0  0
  4  5  1  0  0  0
  5  6  2  0  0  0
  6  7  1  0  0  0
  7  8  2  0  0  0
  8  9  1  0  0  0
  9 10  2  0  0  0
 10  1  1  0  0  0
 17 11  1  0  0  0
 10  5  1  0  0  0
 19 20  1  0  0  0
M  END
> <minimizedAffinity>
-9.39191

> <CNNscore>
0.3506737053

> <CNNaffinity>
6.6934576035

> <CNN_VS>
2.3472194672

> <CNNaffinity_variance>
0.1336674839

$$$$
[H]c1c([H])c([H])c2c(c1[H])[C@]([H])(c1c([H])c([H])c(F)c([H])c1[H])C([H])([H])C([H])([H])[C@]2([H])N([H])C([H])([H])[H]


 20 22  0  0  0  0  0  0  0  0999 V2000
    8.6321   49.6712  130.3822 C   0  0  0  0  0  0  0  0  0  0  0  0
    9.6977   49.9394  131.3916 C   0  0  0  0  0  0  0  0  0  0  0  0
    9.7123   48.8713  132.4599 C   0  0  0  0  0  0  0  0  0  0  0  0
   10.1556   47.5851  131.7469 C   0  0  0  0  0  0  0  0  0  0  0  0
    8.9913   47.2296  130.8784 C   0  0  0  0  0  0  0  0  0  0  0  0
    8.6359   45.9182  130.7209 C   0  0  0  0  0  0  0  0  0  0  0  0
    7.5566   45.6132  129.9150 C   0  0  0  0  0  0  0  0  0  0  0  0
    6.8331   46.5755  129.2707 C   0  0  0  0  0  0  0  0  0  0  0  0
    7.2214   47.8975  129.4526 C   0  0  0  0  0  0  0  0  0  0  0  0
    8.2925   48.2373  130.2491 C   0  0  0  0  0  0  0  0  0  0  0  0
   10.5612   46.5282  132.6647 C   0  0  0  0  0  0  0  0  0  0  0  0
    9.8545   46.3147  133.8259 C   0  0  0  0  0  0  0  0  0  0  0  0
   10.2044   45.3258  134.7202 C   0  0  0  0  0  0  0  0  0  0  0  0
   11.2869   44.5211  134.4608 C   0  0  0  0  0  0  0  0  0  0  0  0
   11.6249   43.5460  135.3531 F   0  0  0  0  0  0  0  0  0  0  0  0
   12.0079   44.7102  133.3145 C   0  0  0  0  0  0  0  0  0  0  0  0
   11.6447   45.7166  132.4129 C   0  0  0  0  0  0  0  0  0  0  0  0
    7.0377   51.1341  129.3189 C   0  0  0  0  0  0  0  0  0  0  0  0
    7.4617   50.5133  130.5428 N   0  0  0  0  0  0  0  0  0  0  0  0
    6.6907   49.8920  130.8751 H   0  0  0  0  0  0  0  0  0  0  0  0
 18 19  1  0  0  0
 19  1  1  0  0  0
  1  2  1  0  0  0
  2  3  1  0  0  0
  3  4  1  0  0  0
  4 11  1  0  0  0
 11 12  2  0  0  0
 12 13  1  0  0  0
 13 14  2  0  0  0
 14 15  1  0  0  0
 14 16  1  0  0  0
 16 17  2  0  0  0
  4  5  1  0  0  0
  5  6  2  0  0  0
  6  7  1  0  0  0
  7  8  2  0  0  0
  8  9  1  0  0  0
  9 10  2  0  0  0
 10  1  1  0  0  0
 17 11  1  0  0  0
 10  5  1  0  0  0
 19 20  1  0  0  0
M  END
> <minimizedAffinity>
-7.92988

> <CNNscore>
0.2960270345

> <CNNaffinity>
6.4737577438

> <CNN_VS>
1.9164073467

> <CNNaffinity_variance>
0.0984216109

$$$$
[H]OC(=O)C([H])(Oc1c([H])c([H])c(-c2noc([H])c3c(C(=O)C4([H])C([H])([H])C([H])([H])C([H])([H])C4([H])[H])c([H])c([H])c2-3)c([H])c1[H])C(=O)O[H]


 32 35  0  0  0  0  0  0  0  0999 V2000
   10.7417   43.6030  131.8040 C   0  0  0  0  0  0  0  0  0  0  0  0
    9.8427   44.0217  130.8462 C   0  0  0  0  0  0  0  0  0  0  0  0
    9.5749   45.3810  130.9689 C   0  0  0  0  0  0  0  0  0  0  0  0
   10.3137   45.8594  132.0282 C   0  0  0  0  0  0  0  0  0  0  0  0
   10.4847   47.0840  132.6381 C   0  0  0  0  0  0  0  0  0  0  0  0
   11.3225   47.1943  133.6919 N   0  0  0  0  0  0  0  0  0  0  0  0
   11.9678   46.1801  134.1432 O   0  0  0  0  0  0  0  0  0  0  0  0
   11.8792   44.9743  133.6400 C   0  0  0  0  0  0  0  0  0  0  0  0
   11.0539   44.7176  132.5529 C   0  0  0  0  0  0  0  0  0  0  0  0
    9.7689   48.2584  132.1482 C   0  0  0  0  0  0  0  0  0  0  0  0
    8.8567   48.1189  131.1250 C   0  0  0  0  0  0  0  0  0  0  0  0
    8.1516   49.2034  130.6160 C   0  0  0  0  0  0  0  0  0  0  0  0
    8.3456   50.4617  131.1237 C   0  0  0  0  0  0  0  0  0  0  0  0
    9.2676   50.6138  132.1603 C   0  0  0  0  0  0  0  0  0  0  0  0
    9.9494   49.5323  132.6449 C   0  0  0  0  0  0  0  0  0  0  0  0
    7.6877   51.5672  130.6700 O   0  0  0  0  0  0  0  0  0  0  0  0
    6.6424   51.6722  129.7688 C   0  0  0  0  0  0  0  0  0  0  0  0
    5.7639   50.4938  129.8582 C   0  0  0  0  0  0  0  0  0  0  0  0
    5.9572   49.4783  129.1270 O   0  0  0  0  0  0  0  0  0  0  0  0
    4.7017   50.4318  130.7243 O   0  0  0  0  0  0  0  0  0  0  0  0
    3.7470   50.4749  130.3967 H   0  0  0  0  0  0  0  0  0  0  0  0
    7.0596   52.0194  128.3906 C   0  0  0  0  0  0  0  0  0  0  0  0
    6.9205   53.1959  127.9808 O   0  0  0  0  0  0  0  0  0  0  0  0
    7.5981   51.0383  127.5737 O   0  0  0  0  0  0  0  0  0  0  0  0
    8.0084   51.3067  126.6903 H   0  0  0  0  0  0  0  0  0  0  0  0
   12.3880   42.1263  132.6038 O   0  0  0  0  0  0  0  0  0  0  0  0
   11.2782   42.2680  132.0269 C   0  0  0  0  0  0  0  0  0  0  0  0
   10.6065   41.0211  131.6176 C   0  0  0  0  0  0  0  0  0  0  0  0
    9.9484   41.0527  130.2951 C   0  0  0  0  0  0  0  0  0  0  0  0
    9.8369   39.5656  129.9376 C   0  0  0  0  0  0  0  0  0  0  0  0
   10.9207   38.8562  130.6802 C   0  0  0  0  0  0  0  0  0  0  0  0
   11.5696   39.8781  131.5644 C   0  0  0  0  0  0  0  0  0  0  0  0
 26 27  2  0  0  0
 27  1  1  0  0  0
  1  2  2  0  0  0
  2  3  1  0  0  0
  3  4  2  0  0  0
  4  5  1  0  0  0
  5 10  1  0  0  0
 10 11  2  0  0  0
 11 12  1  0  0  0
 12 13  2  0  0  0
 13 16  1  0  0  0
 16 17  1  0  0  0
 17 18  1  0  0  0
 18 19  2  0  0  0
 18 20  1  0  0  0
 17 22  1  0  0  0
 22 23  2  0  0  0
 22 24  1  0  0  0
 13 14  1  0  0  0
 14 15  2  0  0  0
  5  6  2  0  0  0
  6  7  1  0  0  0
  7  8  1  0  0  0
  8  9  2  0  0  0
 27 28  1  0  0  0
 28 29  1  0  0  0
 29 30  1  0  0  0
 30 31  1  0  0  0
 31 32  1  0  0  0
  9  1  1  0  0  0
 32 28  1  0  0  0
  9  4  1  0  0  0
 15 10  1  0  0  0
 20 21  1  0  0  0
 24 25  1  0  0  0
M  END
> <minimizedAffinity>
12.32039

> <CNNscore>
0.5095115304

> <CNNaffinity>
6.8734025955

> <CNN_VS>
3.5020778179

> <CNNaffinity_variance>
1.6081107855

$$$$
[H]OC(=O)C([H])(Oc1c([H])c([H])c(-c2noc([H])c3c(C(=O)C4([H])C([H])([H])C([H])([H])C([H])([H])C4([H])[H])c([H])c([H])c2-3)c([H])c1[H])C(=O)O[H]


 32 35  0  0  0  0  0  0  0  0999 V2000
   11.6061   45.1478  132.9077 C   0  0  0  0  0  0  0  0  0  0  0  0
   11.7834   45.7469  131.6787 C   0  0  0  0  0  0  0  0  0  0  0  0
   10.9369   46.8398  131.5259 C   0  0  0  0  0  0  0  0  0  0  0  0
   10.1917   46.9565  132.6783 C   0  0  0  0  0  0  0  0  0  0  0  0
    9.2103   47.8099  133.1359 C   0  0  0  0  0  0  0  0  0  0  0  0
    8.6836   47.6240  134.3658 N   0  0  0  0  0  0  0  0  0  0  0  0
    9.0765   46.6655  135.1245 O   0  0  0  0  0  0  0  0  0  0  0  0
    9.9999   45.7994  134.7893 C   0  0  0  0  0  0  0  0  0  0  0  0
   10.6266   45.8729  133.5521 C   0  0  0  0  0  0  0  0  0  0  0  0
    8.7429   48.9121  132.3003 C   0  0  0  0  0  0  0  0  0  0  0  0
    9.3704   50.1363  132.3788 C   0  0  0  0  0  0  0  0  0  0  0  0
    8.9635   51.2215  131.6111 C   0  0  0  0  0  0  0  0  0  0  0  0
    7.9108   51.1045  130.7411 C   0  0  0  0  0  0  0  0  0  0  0  0
    7.2683   49.8686  130.6541 C   0  0  0  0  0  0  0  0  0  0  0  0
    7.6863   48.8154  131.4192 C   0  0  0  0  0  0  0  0  0  0  0  0
    7.4611   52.1286  129.9602 O   0  0  0  0  0  0  0  0  0  0  0  0
    6.6466   52.1020  128.8414 C   0  0  0  0  0  0  0  0  0  0  0  0
    6.3591   50.7132  128.4456 C   0  0  0  0  0  0  0  0  0  0  0  0
    7.2204   50.0178  127.8309 O   0  0  0  0  0  0  0  0  0  0  0  0
    5.1594   50.1045  128.7149 O   0  0  0  0  0  0  0  0  0  0  0  0
    4.4902   49.9048  127.9848 H   0  0  0  0  0  0  0  0  0  0  0  0
    7.1067   52.9699  127.7329 C   0  0  0  0  0  0  0  0  0  0  0  0
    7.1572   54.2113  127.9002 O   0  0  0  0  0  0  0  0  0  0  0  0
    7.4751   52.3971  126.5263 O   0  0  0  0  0  0  0  0  0  0  0  0
    7.9184   52.9736  125.8249 H   0  0  0  0  0  0  0  0  0  0  0  0
   13.2877   44.1331  134.2014 O   0  0  0  0  0  0  0  0  0  0  0  0
   12.2830   43.9822  133.4581 C   0  0  0  0  0  0  0  0  0  0  0  0
   11.8764   42.5873  133.2081 C   0  0  0  0  0  0  0  0  0  0  0  0
   10.4977   42.2404  133.6108 C   0  0  0  0  0  0  0  0  0  0  0  0
   10.2078   40.9863  132.7771 C   0  0  0  0  0  0  0  0  0  0  0  0
   11.0847   41.0525  131.5704 C   0  0  0  0  0  0  0  0  0  0  0  0
   11.9729   42.2460  131.7552 C   0  0  0  0  0  0  0  0  0  0  0  0
 26 27  2  0  0  0
 27  1  1  0  0  0
  1  2  2  0  0  0
  2  3  1  0  0  0
  3  4  2  0  0  0
  4  5  1  0  0  0
  5 10  1  0  0  0
 10 11  2  0  0  0
 11 12  1  0  0  0
 12 13  2  0  0  0
 13 16  1  0  0  0
 16 17  1  0  0  0
 17 18  1  0  0  0
 18 19  2  0  0  0
 18 20  1  0  0  0
 17 22  1  0  0  0
 22 23  2  0  0  0
 22 24  1  0  0  0
 13 14  1  0  0  0
 14 15  2  0  0  0
  5  6  2  0  0  0
  6  7  1  0  0  0
  7  8  1  0  0  0
  8  9  2  0  0  0
 27 28  1  0  0  0
 28 29  1  0  0  0
 29 30  1  0  0  0
 30 31  1  0  0  0
 31 32  1  0  0  0
  9  1  1  0  0  0
 32 28  1  0  0  0
  9  4  1  0  0  0
 15 10  1  0  0  0
 20 21  1  0  0  0
 24 25  1  0  0  0
M  END
> <minimizedAffinity>
9.52894

> <CNNscore>
0.4718819261

> <CNNaffinity>
6.6408324242

> <CNN_VS>
3.1336886883

> <CNNaffinity_variance>
1.7775547504

$$$$
[H]OC(=O)C([H])(Oc1c([H])c([H])c(-c2noc([H])c3c(C(=O)C4([H])C([H])([H])C([H])([H])C([H])([H])C4([H])[H])c([H])c([H])c2-3)c([H])c1[H])C(=O)O[H]


 32 35  0  0  0  0  0  0  0  0999 V2000
    8.6710   44.4819  130.0213 C   0  0  0  0  0  0  0  0  0  0  0  0
    8.5439   45.0816  128.7864 C   0  0  0  0  0  0  0  0  0  0  0  0
    8.2053   46.4247  128.9128 C   0  0  0  0  0  0  0  0  0  0  0  0
    8.1091   46.7076  130.2572 C   0  0  0  0  0  0  0  0  0  0  0  0
    7.8175   47.8240  131.0118 C   0  0  0  0  0  0  0  0  0  0  0  0
    7.8164   47.7378  132.3597 N   0  0  0  0  0  0  0  0  0  0  0  0
    8.0816   46.6342  132.9603 O   0  0  0  0  0  0  0  0  0  0  0  0
    8.3709   45.5166  132.3418 C   0  0  0  0  0  0  0  0  0  0  0  0
    8.4080   45.4620  130.9545 C   0  0  0  0  0  0  0  0  0  0  0  0
    7.5147   49.0955  130.3611 C   0  0  0  0  0  0  0  0  0  0  0  0
    6.2012   49.4795  130.2006 C   0  0  0  0  0  0  0  0  0  0  0  0
    5.8554   50.6762  129.5833 C   0  0  0  0  0  0  0  0  0  0  0  0
    6.8245   51.5216  129.1091 C   0  0  0  0  0  0  0  0  0  0  0  0
    8.1582   51.1418  129.2667 C   0  0  0  0  0  0  0  0  0  0  0  0
    8.4742   49.9599  129.8772 C   0  0  0  0  0  0  0  0  0  0  0  0
    6.5538   52.7086  128.4939 O   0  0  0  0  0  0  0  0  0  0  0  0
    6.5134   53.0228  127.1465 C   0  0  0  0  0  0  0  0  0  0  0  0
    7.6547   53.8789  126.7821 C   0  0  0  0  0  0  0  0  0  0  0  0
    8.0549   53.9582  125.5834 O   0  0  0  0  0  0  0  0  0  0  0  0
    8.3394   54.6258  127.7071 O   0  0  0  0  0  0  0  0  0  0  0  0
    9.2772   54.3842  127.9948 H   0  0  0  0  0  0  0  0  0  0  0  0
    5.2007   53.5231  126.6773 C   0  0  0  0  0  0  0  0  0  0  0  0
    5.1229   54.6616  126.1583 O   0  0  0  0  0  0  0  0  0  0  0  0
    4.0767   52.7252  126.8187 O   0  0  0  0  0  0  0  0  0  0  0  0
    3.2150   53.0088  126.3740 H   0  0  0  0  0  0  0  0  0  0  0  0
    8.1393   42.1969  130.1855 O   0  0  0  0  0  0  0  0  0  0  0  0
    9.0049   43.0992  130.3316 C   0  0  0  0  0  0  0  0  0  0  0  0
   10.3205   42.6496  130.8221 C   0  0  0  0  0  0  0  0  0  0  0  0
   10.7520   43.2225  132.1140 C   0  0  0  0  0  0  0  0  0  0  0  0
   11.8084   42.2190  132.5924 C   0  0  0  0  0  0  0  0  0  0  0  0
   11.4885   40.9096  131.9502 C   0  0  0  0  0  0  0  0  0  0  0  0
   10.3533   41.1656  131.0050 C   0  0  0  0  0  0  0  0  0  0  0  0
 26 27  2  0  0  0
 27  1  1  0  0  0
  1  2  2  0  0  0
  2  3  1  0  0  0
  3  4  2  0  0  0
  4  5  1  0  0  0
  5 10  1  0  0  0
 10 11  2  0  0  0
 11 12  1  0  0  0
 12 13  2  0  0  0
 13 16  1  0  0  0
 16 17  1  0  0  0
 17 18  1  0  0  0
 18 19  2  0  0  0
 18 20  1  0  0  0
 17 22  1  0  0  0
 22 23  2  0  0  0
 22 24  1  0  0  0
 13 14  1  0  0  0
 14 15  2  0  0  0
  5  6  2  0  0  0
  6  7  1  0  0  0
  7  8  1  0  0  0
  8  9  2  0  0  0
 27 28  1  0  0  0
 28 29  1  0  0  0
 29 30  1  0  0  0
 30 31  1  0  0  0
 31 32  1  0  0  0
  9  1  1  0  0  0
 32 28  1  0  0  0
  9  4  1  0  0  0
 15 10  1  0  0  0
 20 21  1  0  0  0
 24 25  1  0  0  0
M  END
> <minimizedAffinity>
9.91411

> <CNNscore>
0.4228804410

> <CNNaffinity>
6.4521856308

> <CNN_VS>
2.7285029888

> <CNNaffinity_variance>
1.2871339321

$$$$
[H]OC(=O)C([H])(Oc1c([H])c([H])c(-c2noc([H])c3c(C(=O)C4([H])C([H])([H])C([H])([H])C([H])([H])C4([H])[H])c([H])c([H])c2-3)c([H])c1[H])C(=O)O[H]


 32 35  0  0  0  0  0  0  0  0999 V2000
   10.4324   45.6526  130.2612 C   0  0  0  0  0  0  0  0  0  0  0  0
   10.1837   46.0469  128.9637 C   0  0  0  0  0  0  0  0  0  0  0  0
    9.4921   47.2531  128.9291 C   0  0  0  0  0  0  0  0  0  0  0  0
    9.2848   47.6543  130.2303 C   0  0  0  0  0  0  0  0  0  0  0  0
    8.6815   48.7300  130.8464 C   0  0  0  0  0  0  0  0  0  0  0  0
    8.6653   48.8048  132.1950 N   0  0  0  0  0  0  0  0  0  0  0  0
    9.2010   47.8924  132.9226 O   0  0  0  0  0  0  0  0  0  0  0  0
    9.7984   46.8308  132.4417 C   0  0  0  0  0  0  0  0  0  0  0  0
    9.8885   46.6267  131.0709 C   0  0  0  0  0  0  0  0  0  0  0  0
    8.0659   49.7868  130.0490 C   0  0  0  0  0  0  0  0  0  0  0  0
    7.8832   49.5970  128.6966 C   0  0  0  0  0  0  0  0  0  0  0  0
    7.3079   50.5712  127.8887 C   0  0  0  0  0  0  0  0  0  0  0  0
    6.8998   51.7666  128.4209 C   0  0  0  0  0  0  0  0  0  0  0  0
    7.0805   51.9689  129.7899 C   0  0  0  0  0  0  0  0  0  0  0  0
    7.6487   50.9960  130.5647 C   0  0  0  0  0  0  0  0  0  0  0  0
    6.3294   52.7636  127.6851 O   0  0  0  0  0  0  0  0  0  0  0  0
    6.8011   53.4209  126.5620 C   0  0  0  0  0  0  0  0  0  0  0  0
    7.9957   54.2156  126.8931 C   0  0  0  0  0  0  0  0  0  0  0  0
    8.1810   54.6587  128.0646 O   0  0  0  0  0  0  0  0  0  0  0  0
    8.9594   54.5176  125.9644 O   0  0  0  0  0  0  0  0  0  0  0  0
    9.0719   55.4539  125.6021 H   0  0  0  0  0  0  0  0  0  0  0  0
    5.7629   54.1634  125.8105 C   0  0  0  0  0  0  0  0  0  0  0  0
    6.0447   54.6611  124.6950 O   0  0  0  0  0  0  0  0  0  0  0  0
    4.4944   54.2972  126.3514 O   0  0  0  0  0  0  0  0  0  0  0  0
    3.7550   54.6795  125.7787 H   0  0  0  0  0  0  0  0  0  0  0  0
   12.3259   44.2687  130.4354 O   0  0  0  0  0  0  0  0  0  0  0  0
   11.1177   44.4582  130.7339 C   0  0  0  0  0  0  0  0  0  0  0  0
   10.4923   43.4118  131.5631 C   0  0  0  0  0  0  0  0  0  0  0  0
   10.7449   43.5098  133.0156 C   0  0  0  0  0  0  0  0  0  0  0  0
    9.5984   42.6858  133.6142 C   0  0  0  0  0  0  0  0  0  0  0  0
    8.4808   42.7101  132.6243 C   0  0  0  0  0  0  0  0  0  0  0  0
    9.0047   43.4142  131.4088 C   0  0  0  0  0  0  0  0  0  0  0  0
 26 27  2  0  0  0
 27  1  1  0  0  0
  1  2  2  0  0  0
  2  3  1  0  0  0
  3  4  2  0  0  0
  4  5  1  0  0  0
  5 10  1  0  0  0
 10 11  2  0  0  0
 11 12  1  0  0  0
 12 13  2  0  0  0
 13 16  1  0  0  0
 16 17  1  0  0  0
 17 18  1  0  0  0
 18 19  2  0  0  0
 18 20  1  0  0  0
 17 22  1  0  0  0
 22 23  2  0  0  0
 22 24  1  0  0  0
 13 14  1  0  0  0
 14 15  2  0  0  0
  5  6  2  0  0  0
  6  7  1  0  0  0
  7  8  1  0  0  0
  8  9  2  0  0  0
 27 28  1  0  0  0
 28 29  1  0  0  0
 29 30  1  0  0  0
 30 31  1  0  0  0
 31 32  1  0  0  0
  9  1  1  0  0  0
 32 28  1  0  0  0
  9  4  1  0  0  0
 15 10  1  0  0  0
 20 21  1  0  0  0
 24 25  1  0  0  0
M  END
> <minimizedAffinity>
2.17513

> <CNNscore>
0.4161568284

> <CNNaffinity>
6.4277372360

> <CNN_VS>
2.6749467850

> <CNNaffinity_variance>
0.7593795657

$$$$
[H]OC(=O)C([H])(Oc1c([H])c([H])c(-c2noc([H])c3c(C(=O)C4([H])C([H])([H])C([H])([H])C([H])([H])C4([H])[H])c([H])c([H])c2-3)c([H])c1[H])C(=O)O[H]


 32 35  0  0  0  0  0  0  0  0999 V2000
    9.7312   46.2182  130.0856 C   0  0  0  0  0  0  0  0  0  0  0  0
   10.5142   47.3028  129.7519 C   0  0  0  0  0  0  0  0  0  0  0  0
    9.7324   48.4130  129.4510 C   0  0  0  0  0  0  0  0  0  0  0  0
    8.4123   48.0458  129.5907 C   0  0  0  0  0  0  0  0  0  0  0  0
    7.1933   48.6727  129.4427 C   0  0  0  0  0  0  0  0  0  0  0  0
    6.0551   47.9831  129.6738 N   0  0  0  0  0  0  0  0  0  0  0  0
    6.0800   46.7497  130.0301 O   0  0  0  0  0  0  0  0  0  0  0  0
    7.1803   46.0599  130.1992 C   0  0  0  0  0  0  0  0  0  0  0  0
    8.4234   46.6448  129.9957 C   0  0  0  0  0  0  0  0  0  0  0  0
    7.1290   50.0752  129.0422 C   0  0  0  0  0  0  0  0  0  0  0  0
    7.1754   50.4014  127.7043 C   0  0  0  0  0  0  0  0  0  0  0  0
    7.1238   51.7200  127.2670 C   0  0  0  0  0  0  0  0  0  0  0  0
    7.0241   52.7495  128.1665 C   0  0  0  0  0  0  0  0  0  0  0  0
    6.9765   52.4298  129.5241 C   0  0  0  0  0  0  0  0  0  0  0  0
    7.0287   51.1253  129.9306 C   0  0  0  0  0  0  0  0  0  0  0  0
    6.9697   54.0636  127.8047 O   0  0  0  0  0  0  0  0  0  0  0  0
    7.0591   54.6453  126.5519 C   0  0  0  0  0  0  0  0  0  0  0  0
    5.7450   54.6434  125.8874 C   0  0  0  0  0  0  0  0  0  0  0  0
    4.6729   54.6311  126.5608 O   0  0  0  0  0  0  0  0  0  0  0  0
    5.6107   54.6527  124.5220 O   0  0  0  0  0  0  0  0  0  0  0  0
    5.2910   53.8396  124.0149 H   0  0  0  0  0  0  0  0  0  0  0  0
    8.1662   54.1247  125.7169 C   0  0  0  0  0  0  0  0  0  0  0  0
    9.3209   54.5908  125.8612 O   0  0  0  0  0  0  0  0  0  0  0  0
    7.9096   53.1294  124.7877 O   0  0  0  0  0  0  0  0  0  0  0  0
    8.6862   52.6812  124.3223 H   0  0  0  0  0  0  0  0  0  0  0  0
    9.8958   43.9050  129.6944 O   0  0  0  0  0  0  0  0  0  0  0  0
   10.1491   44.8739  130.4571 C   0  0  0  0  0  0  0  0  0  0  0  0
   10.8701   44.5387  131.6987 C   0  0  0  0  0  0  0  0  0  0  0  0
   11.7637   45.5915  132.2242 C   0  0  0  0  0  0  0  0  0  0  0  0
   11.9218   45.1960  133.6974 C   0  0  0  0  0  0  0  0  0  0  0  0
   10.7099   44.4073  134.0697 C   0  0  0  0  0  0  0  0  0  0  0  0
    9.9199   44.2214  132.8092 C   0  0  0  0  0  0  0  0  0  0  0  0
 26 27  2  0  0  0
 27  1  1  0  0  0
  1  2  2  0  0  0
  2  3  1  0  0  0
  3  4  2  0  0  0
  4  5  1  0  0  0
  5 10  1  0  0  0
 10 11  2  0  0  0
 11 12  1  0  0  0
 12 13  2  0  0  0
 13 16  1  0  0  0
 16 17  1  0  0  0
 17 18  1  0  0  0
 18 19  2  0  0  0
 18 20  1  0  0  0
 17 22  1  0  0  0
 22 23  2  0  0  0
 22 24  1  0  0  0
 13 14  1  0  0  0
 14 15  2  0  0  0
  5  6  2  0  0  0
  6  7  1  0  0  0
  7  8  1  0  0  0
  8  9  2  0  0  0
 27 28  1  0  0  0
 28 29  1  0  0  0
 29 30  1  0  0  0
 30 31  1  0  0  0
 31 32  1  0  0  0
  9  1  1  0  0  0
 32 28  1  0  0  0
  9  4  1  0  0  0
 15 10  1  0  0  0
 20 21  1  0  0  0
 24 25  1  0  0  0
M  END
> <minimizedAffinity>
3.19673

> <CNNscore>
0.3944592476

> <CNNaffinity>
6.3609108925

> <CNN_VS>
2.5091202259

> <CNNaffinity_variance>
0.8706008196

$$$$
[H]OC(=O)C([H])(Oc1c([H])c([H])c(-c2noc([H])c3c(C(=O)C4([H])C([H])([H])C([H])([H])C([H])([H])C4([H])[H])c([H])c([H])c2-3)c([H])c1[H])C(=O)O[H]


 32 35  0  0  0  0  0  0  0  0999 V2000
    9.5309   47.1997  131.9669 C   0  0  0  0  0  0  0  0  0  0  0  0
   10.0525   48.4729  132.0552 C   0  0  0  0  0  0  0  0  0  0  0  0
    9.3731   49.3530  131.2197 C   0  0  0  0  0  0  0  0  0  0  0  0
    8.3882   48.6402  130.5726 C   0  0  0  0  0  0  0  0  0  0  0  0
    7.4075   48.9292  129.6477 C   0  0  0  0  0  0  0  0  0  0  0  0
    6.5836   47.9486  129.2190 N   0  0  0  0  0  0  0  0  0  0  0  0
    6.6918   46.7453  129.6540 O   0  0  0  0  0  0  0  0  0  0  0  0
    7.5861   46.3627  130.5309 C   0  0  0  0  0  0  0  0  0  0  0  0
    8.4980   47.2688  131.0566 C   0  0  0  0  0  0  0  0  0  0  0  0
    7.2547   50.2876  129.1348 C   0  0  0  0  0  0  0  0  0  0  0  0
    7.3217   50.5116  127.7770 C   0  0  0  0  0  0  0  0  0  0  0  0
    7.1889   51.7847  127.2345 C   0  0  0  0  0  0  0  0  0  0  0  0
    6.9848   52.8705  128.0458 C   0  0  0  0  0  0  0  0  0  0  0  0
    6.9155   52.6544  129.4228 C   0  0  0  0  0  0  0  0  0  0  0  0
    7.0489   51.3930  129.9335 C   0  0  0  0  0  0  0  0  0  0  0  0
    6.8470   54.1448  127.5789 O   0  0  0  0  0  0  0  0  0  0  0  0
    6.9571   54.6359  126.2895 C   0  0  0  0  0  0  0  0  0  0  0  0
    5.6458   54.6247  125.6196 C   0  0  0  0  0  0  0  0  0  0  0  0
    4.5708   54.6512  126.2882 O   0  0  0  0  0  0  0  0  0  0  0  0
    5.5171   54.5835  124.2543 O   0  0  0  0  0  0  0  0  0  0  0  0
    5.1895   53.7556  123.7771 H   0  0  0  0  0  0  0  0  0  0  0  0
    8.0520   54.0285  125.4983 C   0  0  0  0  0  0  0  0  0  0  0  0
    9.2430   54.2936  125.7860 O   0  0  0  0  0  0  0  0  0  0  0  0
    7.7441   53.1752  124.4509 O   0  0  0  0  0  0  0  0  0  0  0  0
    8.4883   52.6562  124.0063 H   0  0  0  0  0  0  0  0  0  0  0  0
    9.7178   45.8651  133.8943 O   0  0  0  0  0  0  0  0  0  0  0  0
    9.9524   45.9931  132.6642 C   0  0  0  0  0  0  0  0  0  0  0  0
   10.6584   44.8663  132.0274 C   0  0  0  0  0  0  0  0  0  0  0  0
    9.8289   43.6829  131.7195 C   0  0  0  0  0  0  0  0  0  0  0  0
   10.6515   42.9648  130.6427 C   0  0  0  0  0  0  0  0  0  0  0  0
   11.4927   44.0009  129.9732 C   0  0  0  0  0  0  0  0  0  0  0  0
   11.2767   45.2774  130.7291 C   0  0  0  0  0  0  0  0  0  0  0  0
 26 27  2  0  0  0
 27  1  1  0  0  0
  1  2  2  0  0  0
  2  3  1  0  0  0
  3  4  2  0  0  0
  4  5  1  0  0  0
  5 10  1  0  0  0
 10 11  2  0  0  0
 11 12  1  0  0  0
 12 13  2  0  0  0
 13 16  1  0  0  0
 16 17  1  0  0  0
 17 18  1  0  0  0
 18 19  2  0  0  0
 18 20  1  0  0  0
 17 22  1  0  0  0
 22 23  2  0  0  0
 22 24  1  0  0  0
 13 14  1  0  0  0
 14 15  2  0  0  0
  5  6  2  0  0  0
  6  7  1  0  0  0
  7  8  1  0  0  0
  8  9  2  0  0  0
 27 28  1  0  0  0
 28 29  1  0  0  0
 29 30  1  0  0  0
 30 31  1  0  0  0
 31 32  1  0  0  0
  9  1  1  0  0  0
 32 28  1  0  0  0
  9  4  1  0  0  0
 15 10  1  0  0  0
 20 21  1  0  0  0
 24 25  1  0  0  0
M  END
> <minimizedAffinity>
1.27857

> <CNNscore>
0.3778385222

> <CNNaffinity>
6.3757734299

> <CNN_VS>
2.4090127945

> <CNNaffinity_variance>
0.7220465541

$$$$
[H]OC(=O)C([H])(Oc1c([H])c([H])c(-c2noc([H])c3c(C(=O)C4([H])C([H])([H])C([H])([H])C([H])([H])C4([H])[H])c([H])c([H])c2-3)c([H])c1[H])C(=O)O[H]


 32 35  0  0  0  0  0  0  0  0999 V2000
    8.4878   45.2014  130.4950 C   0  0  0  0  0  0  0  0  0  0  0  0
    7.9510   45.5221  129.2663 C   0  0  0  0  0  0  0  0  0  0  0  0
    7.7338   46.8914  129.1550 C   0  0  0  0  0  0  0  0  0  0  0  0
    8.1366   47.4765  130.3350 C   0  0  0  0  0  0  0  0  0  0  0  0
    8.1791   48.7606  130.8349 C   0  0  0  0  0  0  0  0  0  0  0  0
    8.6572   48.9776  132.0794 N   0  0  0  0  0  0  0  0  0  0  0  0
    9.0758   48.0110  132.8138 O   0  0  0  0  0  0  0  0  0  0  0  0
    9.0798   46.7564  132.4384 C   0  0  0  0  0  0  0  0  0  0  0  0
    8.6156   46.3899  131.1818 C   0  0  0  0  0  0  0  0  0  0  0  0
    7.7142   49.8831  130.0252 C   0  0  0  0  0  0  0  0  0  0  0  0
    7.8426   49.8297  128.6544 C   0  0  0  0  0  0  0  0  0  0  0  0
    7.4227   50.8718  127.8357 C   0  0  0  0  0  0  0  0  0  0  0  0
    6.8607   51.9995  128.3753 C   0  0  0  0  0  0  0  0  0  0  0  0
    6.7262   52.0636  129.7629 C   0  0  0  0  0  0  0  0  0  0  0  0
    7.1465   51.0260  130.5481 C   0  0  0  0  0  0  0  0  0  0  0  0
    6.4287   53.0570  127.6297 O   0  0  0  0  0  0  0  0  0  0  0  0
    6.9125   53.5580  126.4336 C   0  0  0  0  0  0  0  0  0  0  0  0
    8.1825   54.2715  126.6492 C   0  0  0  0  0  0  0  0  0  0  0  0
    8.9447   54.5556  125.6789 O   0  0  0  0  0  0  0  0  0  0  0  0
    8.6057   54.6607  127.8949 O   0  0  0  0  0  0  0  0  0  0  0  0
    9.3798   54.2060  128.3582 H   0  0  0  0  0  0  0  0  0  0  0  0
    5.9144   54.3140  125.6423 C   0  0  0  0  0  0  0  0  0  0  0  0
    6.1813   54.6419  124.4622 O   0  0  0  0  0  0  0  0  0  0  0  0
    4.6991   54.6480  126.2180 O   0  0  0  0  0  0  0  0  0  0  0  0
    3.9712   55.0372  125.6355 H   0  0  0  0  0  0  0  0  0  0  0  0
    7.9595   43.0478  131.2785 O   0  0  0  0  0  0  0  0  0  0  0  0
    8.8554   43.8916  131.0138 C   0  0  0  0  0  0  0  0  0  0  0  0
   10.2405   43.4540  131.2658 C   0  0  0  0  0  0  0  0  0  0  0  0
   11.2909   44.2136  130.5567 C   0  0  0  0  0  0  0  0  0  0  0  0
   12.5437   43.9154  131.3894 C   0  0  0  0  0  0  0  0  0  0  0  0
   12.0811   43.5820  132.7693 C   0  0  0  0  0  0  0  0  0  0  0  0
   10.5832   43.5469  132.7186 C   0  0  0  0  0  0  0  0  0  0  0  0
 26 27  2  0  0  0
 27  1  1  0  0  0
  1  2  2  0  0  0
  2  3  1  0  0  0
  3  4  2  0  0  0
  4  5  1  0  0  0
  5 10  1  0  0  0
 10 11  2  0  0  0
 11 12  1  0  0  0
 12 13  2  0  0  0
 13 16  1  0  0  0
 16 17  1  0  0  0
 17 18  1  0  0  0
 18 19  2  0  0  0
 18 20  1  0  0  0
 17 22  1  0  0  0
 22 23  2  0  0  0
 22 24  1  0  0  0
 13 14  1  0  0  0
 14 15  2  0  0  0
  5  6  2  0  0  0
  6  7  1  0  0  0
  7  8  1  0  0  0
  8  9  2  0  0  0
 27 28  1  0  0  0
 28 29  1  0  0  0
 29 30  1  0  0  0
 30 31  1  0  0  0
 31 32  1  0  0  0
  9  1  1  0  0  0
 32 28  1  0  0  0
  9  4  1  0  0  0
 15 10  1  0  0  0
 20 21  1  0  0  0
 24 25  1  0  0  0
M  END
> <minimizedAffinity>
0.85507

> <CNNscore>
0.3755168319

> <CNNaffinity>
6.4478988647

> <CNN_VS>
2.4212944508

> <CNNaffinity_variance>
0.4678771496

$$$$
[H]OC(=O)C([H])(Oc1c([H])c([H])c(-c2noc([H])c3c(C(=O)C4([H])C([H])([H])C([H])([H])C([H])([H])C4([H])[H])c([H])c([H])c2-3)c([H])c1[H])C(=O)O[H]


 32 35  0  0  0  0  0  0  0  0999 V2000
    8.5149   46.0729  130.4861 C   0  0  0  0  0  0  0  0  0  0  0  0
    7.7898   46.2896  129.3336 C   0  0  0  0  0  0  0  0  0  0  0  0
    7.5879   47.6483  129.1154 C   0  0  0  0  0  0  0  0  0  0  0  0
    8.1931   48.3325  130.1462 C   0  0  0  0  0  0  0  0  0  0  0  0
    8.3463   49.6576  130.4945 C   0  0  0  0  0  0  0  0  0  0  0  0
    9.0282   49.9793  131.6152 N   0  0  0  0  0  0  0  0  0  0  0  0
    9.5406   49.0755  132.3698 O   0  0  0  0  0  0  0  0  0  0  0  0
    9.4545   47.7904  132.1330 C   0  0  0  0  0  0  0  0  0  0  0  0
    8.7810   47.3183  131.0139 C   0  0  0  0  0  0  0  0  0  0  0  0
    7.7794   50.7106  129.6570 C   0  0  0  0  0  0  0  0  0  0  0  0
    7.3546   50.4082  128.3817 C   0  0  0  0  0  0  0  0  0  0  0  0
    6.8127   51.3723  127.5394 C   0  0  0  0  0  0  0  0  0  0  0  0
    6.6833   52.6709  127.9583 C   0  0  0  0  0  0  0  0  0  0  0  0
    7.1107   52.9878  129.2485 C   0  0  0  0  0  0  0  0  0  0  0  0
    7.6405   52.0225  130.0591 C   0  0  0  0  0  0  0  0  0  0  0  0
    6.1612   53.6644  127.1829 O   0  0  0  0  0  0  0  0  0  0  0  0
    6.7794   54.4880  126.2580 C   0  0  0  0  0  0  0  0  0  0  0  0
    5.9603   54.6013  125.0396 C   0  0  0  0  0  0  0  0  0  0  0  0
    6.4979   54.6612  123.8947 O   0  0  0  0  0  0  0  0  0  0  0  0
    4.5897   54.6495  125.0759 O   0  0  0  0  0  0  0  0  0  0  0  0
    4.0833   55.4997  124.8728 H   0  0  0  0  0  0  0  0  0  0  0  0
    8.2027   54.1626  126.0088 C   0  0  0  0  0  0  0  0  0  0  0  0
    9.0877   54.6554  126.7473 O   0  0  0  0  0  0  0  0  0  0  0  0
    8.5358   53.3177  124.9624 O   0  0  0  0  0  0  0  0  0  0  0  0
    9.4875   52.9882  124.8823 H   0  0  0  0  0  0  0  0  0  0  0  0
    8.1772   44.2120  131.8840 O   0  0  0  0  0  0  0  0  0  0  0  0
    8.9337   44.8083  131.0735 C   0  0  0  0  0  0  0  0  0  0  0  0
   10.2181   44.1424  130.7895 C   0  0  0  0  0  0  0  0  0  0  0  0
   11.3056   45.0242  130.3172 C   0  0  0  0  0  0  0  0  0  0  0  0
   12.5638   44.2028  130.6242 C   0  0  0  0  0  0  0  0  0  0  0  0
   12.2194   43.2808  131.7470 C   0  0  0  0  0  0  0  0  0  0  0  0
   10.7528   43.4538  132.0047 C   0  0  0  0  0  0  0  0  0  0  0  0
 26 27  2  0  0  0
 27  1  1  0  0  0
  1  2  2  0  0  0
  2  3  1  0  0  0
  3  4  2  0  0  0
  4  5  1  0  0  0
  5 10  1  0  0  0
 10 11  2  0  0  0
 11 12  1  0  0  0
 12 13  2  0  0  0
 13 16  1  0  0  0
 16 17  1  0  0  0
 17 18  1  0  0  0
 18 19  2  0  0  0
 18 20  1  0  0  0
 17 22  1  0  0  0
 22 23  2  0  0  0
 22 24  1  0  0  0
 13 14  1  0  0  0
 14 15  2  0  0  0
  5  6  2  0  0  0
  6  7  1  0  0  0
  7  8  1  0  0  0
  8  9  2  0  0  0
 27 28  1  0  0  0
 28 29  1  0  0  0
 29 30  1  0  0  0
 30 31  1  0  0  0
 31 32  1  0  0  0
  9  1  1  0  0  0
 32 28  1  0  0  0
  9  4  1  0  0  0
 15 10  1  0  0  0
 20 21  1  0  0  0
 24 25  1  0  0  0
M  END
> <minimizedAffinity>
4.83029

> <CNNscore>
0.3738042712

> <CNNaffinity>
6.2386026382

> <CNN_VS>
2.3320162296

> <CNNaffinity_variance>
0.9735104442

$$$$
[H]OC(=O)C([H])(Oc1c([H])c([H])c(-c2noc([H])c3c(C(=O)C4([H])C([H])([H])C([H])([H])C([H])([H])C4([H])[H])c([H])c([H])c2-3)c([H])c1[H])C(=O)O[H]


 32 35  0  0  0  0  0  0  0  0999 V2000
    9.0235   46.5019  132.4855 C   0  0  0  0  0  0  0  0  0  0  0  0
    9.0916   47.7882  132.9769 C   0  0  0  0  0  0  0  0  0  0  0  0
    8.6442   48.7096  132.0360 C   0  0  0  0  0  0  0  0  0  0  0  0
    8.2767   48.0109  130.9075 C   0  0  0  0  0  0  0  0  0  0  0  0
    7.7684   48.3363  129.6679 C   0  0  0  0  0  0  0  0  0  0  0  0
    7.5137   47.3577  128.7724 N   0  0  0  0  0  0  0  0  0  0  0  0
    7.7350   46.1233  129.0485 O   0  0  0  0  0  0  0  0  0  0  0  0
    8.2155   45.7049  130.1926 C   0  0  0  0  0  0  0  0  0  0  0  0
    8.5226   46.6045  131.2052 C   0  0  0  0  0  0  0  0  0  0  0  0
    7.5019   49.7296  129.3226 C   0  0  0  0  0  0  0  0  0  0  0  0
    6.8840   50.0259  128.1273 C   0  0  0  0  0  0  0  0  0  0  0  0
    6.6115   51.3346  127.7453 C   0  0  0  0  0  0  0  0  0  0  0  0
    6.9544   52.3839  128.5578 C   0  0  0  0  0  0  0  0  0  0  0  0
    7.5808   52.0944  129.7708 C   0  0  0  0  0  0  0  0  0  0  0  0
    7.8387   50.7993  130.1254 C   0  0  0  0  0  0  0  0  0  0  0  0
    6.7164   53.6897  128.2431 O   0  0  0  0  0  0  0  0  0  0  0  0
    6.9302   54.3717  127.0578 C   0  0  0  0  0  0  0  0  0  0  0  0
    5.7271   54.3226  126.2102 C   0  0  0  0  0  0  0  0  0  0  0  0
    5.7803   54.6284  124.9827 O   0  0  0  0  0  0  0  0  0  0  0  0
    4.4992   53.9504  126.6961 O   0  0  0  0  0  0  0  0  0  0  0  0
    3.7531   54.6199  126.8214 H   0  0  0  0  0  0  0  0  0  0  0  0
    8.1837   54.0021  126.3605 C   0  0  0  0  0  0  0  0  0  0  0  0
    8.1560   53.1303  125.4602 O   0  0  0  0  0  0  0  0  0  0  0  0
    9.3696   54.6257  126.7135 O   0  0  0  0  0  0  0  0  0  0  0  0
   10.1909   54.4748  126.1449 H   0  0  0  0  0  0  0  0  0  0  0  0
    8.5232   44.3812  133.3706 O   0  0  0  0  0  0  0  0  0  0  0  0
    9.3981   45.2565  133.1401 C   0  0  0  0  0  0  0  0  0  0  0  0
   10.7670   44.9218  133.5731 C   0  0  0  0  0  0  0  0  0  0  0  0
   10.8747   43.8470  134.5814 C   0  0  0  0  0  0  0  0  0  0  0  0
   12.3268   43.3798  134.4231 C   0  0  0  0  0  0  0  0  0  0  0  0
   12.7416   43.7103  133.0274 C   0  0  0  0  0  0  0  0  0  0  0  0
   11.6089   44.4808  132.4184 C   0  0  0  0  0  0  0  0  0  0  0  0
 26 27  2  0  0  0
 27  1  1  0  0  0
  1  2  2  0  0  0
  2  3  1  0  0  0
  3  4  2  0  0  0
  4  5  1  0  0  0
  5 10  1  0  0  0
 10 11  2  0  0  0
 11 12  1  0  0  0
 12 13  2  0  0  0
 13 16  1  0  0  0
 16 17  1  0  0  0
 17 18  1  0  0  0
 18 19  2  0  0  0
 18 20  1  0  0  0
 17 22  1  0  0  0
 22 23  2  0  0  0
 22 24  1  0  0  0
 13 14  1  0  0  0
 14 15  2  0  0  0
  5  6  2  0  0  0
  6  7  1  0  0  0
  7  8  1  0  0  0
  8  9  2  0  0  0
 27 28  1  0  0  0
 28 29  1  0  0  0
 29 30  1  0  0  0
 30 31  1  0  0  0
 31 32  1  0  0  0
  9  1  1  0  0  0
 32 28  1  0  0  0
  9  4  1  0  0  0
 15 10  1  0  0  0
 20 21  1  0  0  0
 24 25  1  0  0  0
M  END
> <minimizedAffinity>
6.14819

> <CNNscore>
0.3673509359

> <CNNaffinity>
6.4411573410

> <CNN_VS>
2.3661651611

> <CNNaffinity_variance>
1.1394585371

$$$$
[H]c1c(OC([H])([H])[H])c([H])c2c3nnc(SC([H])([H])[H])nc3n(C([H])([H])[H])c2c1[H]


 18 20  0  0  0  0  0  0  0  0999 V2000
    9.1740   49.9761  131.4411 C   0  0  0  0  0  0  0  0  0  0  0  0
    8.3632   49.6946  130.3622 C   0  0  0  0  0  0  0  0  0  0  0  0
    8.3108   48.3851  129.8809 C   0  0  0  0  0  0  0  0  0  0  0  0
    9.0513   47.3628  130.4586 C   0  0  0  0  0  0  0  0  0  0  0  0
    9.8551   47.6619  131.5345 C   0  0  0  0  0  0  0  0  0  0  0  0
    9.9124   48.9686  132.0211 C   0  0  0  0  0  0  0  0  0  0  0  0
   10.4803   46.5001  131.9278 C   0  0  0  0  0  0  0  0  0  0  0  0
   11.3542   46.2549  132.9165 N   0  0  0  0  0  0  0  0  0  0  0  0
   11.8124   45.0263  133.0858 N   0  0  0  0  0  0  0  0  0  0  0  0
   11.3860   44.0675  132.2606 C   0  0  0  0  0  0  0  0  0  0  0  0
   10.5138   44.2755  131.2618 N   0  0  0  0  0  0  0  0  0  0  0  0
   10.0224   45.5222  131.0582 C   0  0  0  0  0  0  0  0  0  0  0  0
    9.1585   46.0426  130.1695 N   0  0  0  0  0  0  0  0  0  0  0  0
    8.4689   45.3171  129.0965 C   0  0  0  0  0  0  0  0  0  0  0  0
    9.6913   51.5665  133.2556 C   0  0  0  0  0  0  0  0  0  0  0  0
    9.2689   51.2517  131.9635 O   0  0  0  0  0  0  0  0  0  0  0  0
   12.0272   42.4157  132.5172 S   0  0  0  0  0  0  0  0  0  0  0  0
   10.8699   41.2113  131.7868 C   0  0  0  0  0  0  0  0  0  0  0  0
 15 16  1  0  0  0
 16  1  1  0  0  0
  1  2  2  0  0  0
  2  3  1  0  0  0
  3  4  2  0  0  0
  4  5  1  0  0  0
  5  6  2  0  0  0
  5  7  1  0  0  0
  7  8  2  0  0  0
  8  9  1  0  0  0
  9 10  2  0  0  0
 10 17  1  0  0  0
 17 18  1  0  0  0
 10 11  1  0  0  0
 11 12  2  0  0  0
 12 13  1  0  0  0
 13 14  1  0  0  0
  6  1  1  0  0  0
 12  7  1  0  0  0
 13  4  1  0  0  0
M  END
> <minimizedAffinity>
-0.87036

> <CNNscore>
0.4660114944

> <CNNaffinity>
6.5833144188

> <CNN_VS>
3.0679001808

> <CNNaffinity_variance>
1.1239724159

$$$$
[H]c1c(OC([H])([H])[H])c([H])c2c3nnc(SC([H])([H])[H])nc3n(C([H])([H])[H])c2c1[H]


 18 20  0  0  0  0  0  0  0  0999 V2000
    7.1414   49.6154  129.7797 C   0  0  0  0  0  0  0  0  0  0  0  0
    6.8084   48.7099  128.7949 C   0  0  0  0  0  0  0  0  0  0  0  0
    7.2605   47.3938  128.9075 C   0  0  0  0  0  0  0  0  0  0  0  0
    8.0341   46.9749  129.9815 C   0  0  0  0  0  0  0  0  0  0  0  0
    8.3568   47.8922  130.9550 C   0  0  0  0  0  0  0  0  0  0  0  0
    7.9083   49.2095  130.8491 C   0  0  0  0  0  0  0  0  0  0  0  0
    9.1192   47.2479  131.9031 C   0  0  0  0  0  0  0  0  0  0  0  0
    9.6792   47.6900  133.0400 N   0  0  0  0  0  0  0  0  0  0  0  0
   10.3759   46.8510  133.7874 N   0  0  0  0  0  0  0  0  0  0  0  0
   10.4980   45.5853  133.3808 C   0  0  0  0  0  0  0  0  0  0  0  0
    9.9527   45.1083  132.2508 N   0  0  0  0  0  0  0  0  0  0  0  0
    9.2314   45.9392  131.4594 C   0  0  0  0  0  0  0  0  0  0  0  0
    8.5758   45.7730  130.2977 N   0  0  0  0  0  0  0  0  0  0  0  0
    8.4710   44.5293  129.5261 C   0  0  0  0  0  0  0  0  0  0  0  0
    6.9527   51.8087  128.6646 C   0  0  0  0  0  0  0  0  0  0  0  0
    6.7245   50.9316  129.7255 O   0  0  0  0  0  0  0  0  0  0  0  0
   11.4488   44.4763  134.4160 S   0  0  0  0  0  0  0  0  0  0  0  0
   12.5163   43.4465  133.3561 C   0  0  0  0  0  0  0  0  0  0  0  0
 15 16  1  0  0  0
 16  1  1  0  0  0
  1  2  2  0  0  0
  2  3  1  0  0  0
  3  4  2  0  0  0
  4  5  1  0  0  0
  5  6  2  0  0  0
  5  7  1  0  0  0
  7  8  2  0  0  0
  8  9  1  0  0  0
  9 10  2  0  0  0
 10 17  1  0  0  0
 17 18  1  0  0  0
 10 11  1  0  0  0
 11 12  2  0  0  0
 12 13  1  0  0  0
 13 14  1  0  0  0
  6  1  1  0  0  0
 12  7  1  0  0  0
 13  4  1  0  0  0
M  END
> <minimizedAffinity>
-5.97510

> <CNNscore>
0.4619238377

> <CNNaffinity>
6.3792734146

> <CNN_VS>
2.9467384815

> <CNNaffinity_variance>
0.1069441587

$$$$
[H]c1c(OC([H])([H])[H])c([H])c2c3nnc(SC([H])([H])[H])nc3n(C([H])([H])[H])c2c1[H]


 18 20  0  0  0  0  0  0  0  0999 V2000
    8.7603   50.0806  131.2236 C   0  0  0  0  0  0  0  0  0  0  0  0
    9.4586   50.3819  132.3734 C   0  0  0  0  0  0  0  0  0  0  0  0
   10.1358   49.3587  133.0394 C   0  0  0  0  0  0  0  0  0  0  0  0
   10.1244   48.0503  132.5752 C   0  0  0  0  0  0  0  0  0  0  0  0
    9.4223   47.7679  131.4261 C   0  0  0  0  0  0  0  0  0  0  0  0
    8.7430   48.7856  130.7551 C   0  0  0  0  0  0  0  0  0  0  0  0
    9.5590   46.4221  131.1703 C   0  0  0  0  0  0  0  0  0  0  0  0
    9.0749   45.6542  130.1815 N   0  0  0  0  0  0  0  0  0  0  0  0
    9.3599   44.3633  130.1656 N   0  0  0  0  0  0  0  0  0  0  0  0
   10.1241   43.8669  131.1412 C   0  0  0  0  0  0  0  0  0  0  0  0
   10.6250   44.6037  132.1452 N   0  0  0  0  0  0  0  0  0  0  0  0
   10.3542   45.9308  132.1943 C   0  0  0  0  0  0  0  0  0  0  0  0
   10.6967   46.9143  133.0442 N   0  0  0  0  0  0  0  0  0  0  0  0
   11.5284   46.7780  134.2454 C   0  0  0  0  0  0  0  0  0  0  0  0
    7.3216   50.8276  129.3631 C   0  0  0  0  0  0  0  0  0  0  0  0
    8.0703   51.0488  130.5195 O   0  0  0  0  0  0  0  0  0  0  0  0
   10.4895   42.1150  131.0898 S   0  0  0  0  0  0  0  0  0  0  0  0
    9.0432   41.2280  130.4228 C   0  0  0  0  0  0  0  0  0  0  0  0
 15 16  1  0  0  0
 16  1  1  0  0  0
  1  2  2  0  0  0
  2  3  1  0  0  0
  3  4  2  0  0  0
  4  5  1  0  0  0
  5  6  2  0  0  0
  5  7  1  0  0  0
  7  8  2  0  0  0
  8  9  1  0  0  0
  9 10  2  0  0  0
 10 17  1  0  0  0
 17 18  1  0  0  0
 10 11  1  0  0  0
 11 12  2  0  0  0
 12 13  1  0  0  0
 13 14  1  0  0  0
  6  1  1  0  0  0
 12  7  1  0  0  0
 13  4  1  0  0  0
M  END
> <minimizedAffinity>
-1.29317

> <CNNscore>
0.4411715865

> <CNNaffinity>
6.4003129005

> <CNN_VS>
2.8236362934

> <CNNaffinity_variance>
0.9021137357

$$$$
[H]c1c(OC([H])([H])[H])c([H])c2c3nnc(SC([H])([H])[H])nc3n(C([H])([H])[H])c2c1[H]


 18 20  0  0  0  0  0  0  0  0999 V2000
   11.2489   43.8159  133.2650 C   0  0  0  0  0  0  0  0  0  0  0  0
   10.7694   42.9440  132.3109 C   0  0  0  0  0  0  0  0  0  0  0  0
    9.9410   43.4374  131.3011 C   0  0  0  0  0  0  0  0  0  0  0  0
    9.5890   44.7786  131.2334 C   0  0  0  0  0  0  0  0  0  0  0  0
   10.0767   45.6344  132.1940 C   0  0  0  0  0  0  0  0  0  0  0  0
   10.9053   45.1482  133.2062 C   0  0  0  0  0  0  0  0  0  0  0  0
    9.5956   46.8943  131.9176 C   0  0  0  0  0  0  0  0  0  0  0  0
    9.7742   48.0682  132.5434 N   0  0  0  0  0  0  0  0  0  0  0  0
    9.1898   49.1529  132.0642 N   0  0  0  0  0  0  0  0  0  0  0  0
    8.4373   49.0400  130.9672 C   0  0  0  0  0  0  0  0  0  0  0  0
    8.2362   47.8839  130.3157 N   0  0  0  0  0  0  0  0  0  0  0  0
    8.8196   46.7511  130.7776 C   0  0  0  0  0  0  0  0  0  0  0  0
    8.8149   45.4724  130.3631 N   0  0  0  0  0  0  0  0  0  0  0  0
    8.1065   44.9375  129.1946 C   0  0  0  0  0  0  0  0  0  0  0  0
   13.2285   44.0398  134.7211 C   0  0  0  0  0  0  0  0  0  0  0  0
   12.0724   43.3889  134.2890 O   0  0  0  0  0  0  0  0  0  0  0  0
    7.6597   50.5282  130.3458 S   0  0  0  0  0  0  0  0  0  0  0  0
    6.9438   50.1813  128.7056 C   0  0  0  0  0  0  0  0  0  0  0  0
 15 16  1  0  0  0
 16  1  1  0  0  0
  1  2  2  0  0  0
  2  3  1  0  0  0
  3  4  2  0  0  0
  4  5  1  0  0  0
  5  6  2  0  0  0
  5  7  1  0  0  0
  7  8  2  0  0  0
  8  9  1  0  0  0
  9 10  2  0  0  0
 10 17  1  0  0  0
 17 18  1  0  0  0
 10 11  1  0  0  0
 11 12  2  0  0  0
 12 13  1  0  0  0
 13 14  1  0  0  0
  6  1  1  0  0  0
 12  7  1  0  0  0
 13  4  1  0  0  0
M  END
> <minimizedAffinity>
-3.19049

> <CNNscore>
0.4239915013

> <CNNaffinity>
6.5499219894

> <CNN_VS>
2.7771112919

> <CNNaffinity_variance>
0.5712782741

$$$$
[H]c1c(OC([H])([H])[H])c([H])c2c3nnc(SC([H])([H])[H])nc3n(C([H])([H])[H])c2c1[H]


 18 20  0  0  0  0  0  0  0  0999 V2000
    7.4692   50.0069  129.8837 C   0  0  0  0  0  0  0  0  0  0  0  0
    8.2274   50.5300  130.9094 C   0  0  0  0  0  0  0  0  0  0  0  0
    9.0516   49.6748  131.6433 C   0  0  0  0  0  0  0  0  0  0  0  0
    9.1270   48.3162  131.3679 C   0  0  0  0  0  0  0  0  0  0  0  0
    8.3634   47.8116  130.3407 C   0  0  0  0  0  0  0  0  0  0  0  0
    7.5373   48.6605  129.6027 C   0  0  0  0  0  0  0  0  0  0  0  0
    8.6064   46.4588  130.2618 C   0  0  0  0  0  0  0  0  0  0  0  0
    8.1185   45.5172  129.4392 N   0  0  0  0  0  0  0  0  0  0  0  0
    8.5231   44.2658  129.5751 N   0  0  0  0  0  0  0  0  0  0  0  0
    9.4086   43.9825  130.5331 C   0  0  0  0  0  0  0  0  0  0  0  0
    9.9175   44.8972  131.3734 N   0  0  0  0  0  0  0  0  0  0  0  0
    9.5262   46.1902  131.2638 C   0  0  0  0  0  0  0  0  0  0  0  0
    9.8417   47.3124  131.9332 N   0  0  0  0  0  0  0  0  0  0  0  0
   10.7783   47.4227  133.0574 C   0  0  0  0  0  0  0  0  0  0  0  0
    6.9906   52.0141  128.5304 C   0  0  0  0  0  0  0  0  0  0  0  0
    6.6346   50.8012  129.1210 O   0  0  0  0  0  0  0  0  0  0  0  0
    9.9341   42.2783  130.6902 S   0  0  0  0  0  0  0  0  0  0  0  0
   11.1664   42.1598  132.0285 C   0  0  0  0  0  0  0  0  0  0  0  0
 15 16  1  0  0  0
 16  1  1  0  0  0
  1  2  2  0  0  0
  2  3  1  0  0  0
  3  4  2  0  0  0
  4  5  1  0  0  0
  5  6  2  0  0  0
  5  7  1  0  0  0
  7  8  2  0  0  0
  8  9  1  0  0  0
  9 10  2  0  0  0
 10 17  1  0  0  0
 17 18  1  0  0  0
 10 11  1  0  0  0
 11 12  2  0  0  0
 12 13  1  0  0  0
 13 14  1  0  0  0
  6  1  1  0  0  0
 12  7  1  0  0  0
 13  4  1  0  0  0
M  END
> <minimizedAffinity>
-5.10030

> <CNNscore>
0.4037388861

> <CNNaffinity>
6.3371734619

> <CNN_VS>
2.5585634708

> <CNNaffinity_variance>
0.1968030632

$$$$
[H]c1c(OC([H])([H])[H])c([H])c2c3nnc(SC([H])([H])[H])nc3n(C([H])([H])[H])c2c1[H]


 18 20  0  0  0  0  0  0  0  0999 V2000
    9.9583   42.6241  130.7334 C   0  0  0  0  0  0  0  0  0  0  0  0
    9.1872   42.7293  129.5954 C   0  0  0  0  0  0  0  0  0  0  0  0
    8.6675   43.9769  129.2453 C   0  0  0  0  0  0  0  0  0  0  0  0
    8.9063   45.1102  130.0108 C   0  0  0  0  0  0  0  0  0  0  0  0
    9.6780   44.9866  131.1432 C   0  0  0  0  0  0  0  0  0  0  0  0
   10.2009   43.7426  131.4992 C   0  0  0  0  0  0  0  0  0  0  0  0
    9.7716   46.2304  131.7256 C   0  0  0  0  0  0  0  0  0  0  0  0
   10.4038   46.6442  132.8350 N   0  0  0  0  0  0  0  0  0  0  0  0
   10.3364   47.9184  133.1815 N   0  0  0  0  0  0  0  0  0  0  0  0
    9.6365   48.7529  132.4096 C   0  0  0  0  0  0  0  0  0  0  0  0
    8.9919   48.3751  131.2945 N   0  0  0  0  0  0  0  0  0  0  0  0
    9.0388   47.0769  130.9079 C   0  0  0  0  0  0  0  0  0  0  0  0
    8.5152   46.4007  129.8708 N   0  0  0  0  0  0  0  0  0  0  0  0
    7.6821   46.9572  128.7987 C   0  0  0  0  0  0  0  0  0  0  0  0
   11.4352   41.2507  132.1554 C   0  0  0  0  0  0  0  0  0  0  0  0
   10.5008   41.4177  131.1327 O   0  0  0  0  0  0  0  0  0  0  0  0
    9.5650   50.4709  132.9085 S   0  0  0  0  0  0  0  0  0  0  0  0
    8.7803   51.4410  131.5794 C   0  0  0  0  0  0  0  0  0  0  0  0
 15 16  1  0  0  0
 16  1  1  0  0  0
  1  2  2  0  0  0
  2  3  1  0  0  0
  3  4  2  0  0  0
  4  5  1  0  0  0
  5  6  2  0  0  0
  5  7  1  0  0  0
  7  8  2  0  0  0
  8  9  1  0  0  0
  9 10  2  0  0  0
 10 17  1  0  0  0
 17 18  1  0  0  0
 10 11  1  0  0  0
 11 12  2  0  0  0
 12 13  1  0  0  0
 13 14  1  0  0  0
  6  1  1  0  0  0
 12  7  1  0  0  0
 13  4  1  0  0  0
M  END
> <minimizedAffinity>
0.51174

> <CNNscore>
0.3951641321

> <CNNaffinity>
6.5169234276

> <CNN_VS>
2.5752544403

> <CNNaffinity_variance>
1.6937415600

$$$$
[H]c1c(OC([H])([H])[H])c([H])c2c3nnc(SC([H])([H])[H])nc3n(C([H])([H])[H])c2c1[H]


 18 20  0  0  0  0  0  0  0  0999 V2000
    9.3970   48.1229  133.7449 C   0  0  0  0  0  0  0  0  0  0  0  0
    9.4313   47.2208  134.7868 C   0  0  0  0  0  0  0  0  0  0  0  0
    9.5431   45.8595  134.4975 C   0  0  0  0  0  0  0  0  0  0  0  0
    9.6205   45.3926  133.1924 C   0  0  0  0  0  0  0  0  0  0  0  0
    9.5848   46.3071  132.1651 C   0  0  0  0  0  0  0  0  0  0  0  0
    9.4732   47.6694  132.4468 C   0  0  0  0  0  0  0  0  0  0  0  0
    9.6759   45.6119  130.9803 C   0  0  0  0  0  0  0  0  0  0  0  0
    9.6859   46.0311  129.7053 N   0  0  0  0  0  0  0  0  0  0  0  0
    9.7855   45.1417  128.7321 N   0  0  0  0  0  0  0  0  0  0  0  0
    9.8727   43.8495  129.0557 C   0  0  0  0  0  0  0  0  0  0  0  0
    9.8656   43.3940  130.3183 N   0  0  0  0  0  0  0  0  0  0  0  0
    9.7652   44.2764  131.3421 C   0  0  0  0  0  0  0  0  0  0  0  0
    9.7318   44.1427  132.6792 N   0  0  0  0  0  0  0  0  0  0  0  0
    9.8018   42.8847  133.4314 C   0  0  0  0  0  0  0  0  0  0  0  0
    9.5904   50.4791  133.0379 C   0  0  0  0  0  0  0  0  0  0  0  0
    9.2876   49.4824  133.9661 O   0  0  0  0  0  0  0  0  0  0  0  0
   10.0052   42.6721  127.7135 S   0  0  0  0  0  0  0  0  0  0  0  0
    8.9266   43.2098  126.3457 C   0  0  0  0  0  0  0  0  0  0  0  0
 15 16  1  0  0  0
 16  1  1  0  0  0
  1  2  2  0  0  0
  2  3  1  0  0  0
  3  4  2  0  0  0
  4  5  1  0  0  0
  5  6  2  0  0  0
  5  7  1  0  0  0
  7  8  2  0  0  0
  8  9  1  0  0  0
  9 10  2  0  0  0
 10 17  1  0  0  0
 17 18  1  0  0  0
 10 11  1  0  0  0
 11 12  2  0  0  0
 12 13  1  0  0  0
 13 14  1  0  0  0
  6  1  1  0  0  0
 12  7  1  0  0  0
 13  4  1  0  0  0
M  END
> <minimizedAffinity>
1.59325

> <CNNscore>
0.3938246369

> <CNNaffinity>
6.4127755165

> <CNN_VS>
2.5255088806

> <CNNaffinity_variance>
0.9157374501

$$$$
[H]c1c(OC([H])([H])[H])c([H])c2c3nnc(SC([H])([H])[H])nc3n(C([H])([H])[H])c2c1[H]


 18 20  0  0  0  0  0  0  0  0999 V2000
    8.8204   50.3239  131.4570 C   0  0  0  0  0  0  0  0  0  0  0  0
    7.7371   50.5002  130.6227 C   0  0  0  0  0  0  0  0  0  0  0  0
    7.1672   49.3819  130.0113 C   0  0  0  0  0  0  0  0  0  0  0  0
    7.6613   48.1016  130.2210 C   0  0  0  0  0  0  0  0  0  0  0  0
    8.7430   47.9444  131.0567 C   0  0  0  0  0  0  0  0  0  0  0  0
    9.3178   49.0577  131.6714 C   0  0  0  0  0  0  0  0  0  0  0  0
    9.0447   46.6021  131.1055 C   0  0  0  0  0  0  0  0  0  0  0  0
   10.0001   45.9320  131.7685 N   0  0  0  0  0  0  0  0  0  0  0  0
   10.0755   44.6181  131.6427 N   0  0  0  0  0  0  0  0  0  0  0  0
    9.1921   44.0013  130.8544 C   0  0  0  0  0  0  0  0  0  0  0  0
    8.2242   44.6381  130.1766 N   0  0  0  0  0  0  0  0  0  0  0  0
    8.1161   45.9850  130.2814 C   0  0  0  0  0  0  0  0  0  0  0  0
    7.2792   46.8906  129.7461 N   0  0  0  0  0  0  0  0  0  0  0  0
    6.1696   46.6154  128.8262 C   0  0  0  0  0  0  0  0  0  0  0  0
    9.9185   51.3811  133.3976 C   0  0  0  0  0  0  0  0  0  0  0  0
    9.4283   51.3904  132.0913 O   0  0  0  0  0  0  0  0  0  0  0  0
    9.3233   42.2220  130.7057 S   0  0  0  0  0  0  0  0  0  0  0  0
   10.7520   41.6501  131.6830 C   0  0  0  0  0  0  0  0  0  0  0  0
 15 16  1  0  0  0
 16  1  1  0  0  0
  1  2  2  0  0  0
  2  3  1  0  0  0
  3  4  2  0  0  0
  4  5  1  0  0  0
  5  6  2  0  0  0
  5  7  1  0  0  0
  7  8  2  0  0  0
  8  9  1  0  0  0
  9 10  2  0  0  0
 10 17  1  0  0  0
 17 18  1  0  0  0
 10 11  1  0  0  0
 11 12  2  0  0  0
 12 13  1  0  0  0
 13 14  1  0  0  0
  6  1  1  0  0  0
 12  7  1  0  0  0
 13  4  1  0  0  0
M  END
> <minimizedAffinity>
-0.64680

> <CNNscore>
0.3915822208

> <CNNaffinity>
6.3199591637

> <CNN_VS>
2.4747836590

> <CNNaffinity_variance>
0.5365065336

$$$$
[H]c1c(OC([H])([H])[H])c([H])c2c3nnc(SC([H])([H])[H])nc3n(C([H])([H])[H])c2c1[H]


 18 20  0  0  0  0  0  0  0  0999 V2000
   10.1904   45.5401  128.6982 C   0  0  0  0  0  0  0  0  0  0  0  0
    9.7013   46.8289  128.7164 C   0  0  0  0  0  0  0  0  0  0  0  0
    9.4662   47.4442  129.9474 C   0  0  0  0  0  0  0  0  0  0  0  0
    9.7113   46.7940  131.1493 C   0  0  0  0  0  0  0  0  0  0  0  0
   10.1993   45.5081  131.1120 C   0  0  0  0  0  0  0  0  0  0  0  0
   10.4368   44.8868  129.8852 C   0  0  0  0  0  0  0  0  0  0  0  0
   10.3598   45.0818  132.4112 C   0  0  0  0  0  0  0  0  0  0  0  0
   10.8011   43.9182  132.9140 N   0  0  0  0  0  0  0  0  0  0  0  0
   10.8604   43.7606  134.2254 N   0  0  0  0  0  0  0  0  0  0  0  0
   10.4760   44.7720  135.0072 C   0  0  0  0  0  0  0  0  0  0  0  0
   10.0295   45.9486  134.5403 N   0  0  0  0  0  0  0  0  0  0  0  0
    9.9551   46.1466  133.2016 C   0  0  0  0  0  0  0  0  0  0  0  0
    9.5628   47.1823  132.4397 N   0  0  0  0  0  0  0  0  0  0  0  0
    9.0698   48.4789  132.9182 C   0  0  0  0  0  0  0  0  0  0  0  0
   10.5010   43.4919  127.3574 C   0  0  0  0  0  0  0  0  0  0  0  0
   10.4436   44.8774  127.5125 O   0  0  0  0  0  0  0  0  0  0  0  0
   10.5680   44.5244  136.7780 S   0  0  0  0  0  0  0  0  0  0  0  0
   11.6610   43.1064  137.1214 C   0  0  0  0  0  0  0  0  0  0  0  0
 15 16  1  0  0  0
 16  1  1  0  0  0
  1  2  2  0  0  0
  2  3  1  0  0  0
  3  4  2  0  0  0
  4  5  1  0  0  0
  5  6  2  0  0  0
  5  7  1  0  0  0
  7  8  2  0  0  0
  8  9  1  0  0  0
  9 10  2  0  0  0
 10 17  1  0  0  0
 17 18  1  0  0  0
 10 11  1  0  0  0
 11 12  2  0  0  0
 12 13  1  0  0  0
 13 14  1  0  0  0
  6  1  1  0  0  0
 12  7  1  0  0  0
 13  4  1  0  0  0
M  END
> <minimizedAffinity>
1.88982

> <CNNscore>
0.3869587183

> <CNNaffinity>
6.3471269608

> <CNN_VS>
2.4560761452

> <CNNaffinity_variance>
1.2418429852

$$$$
[H]OC1(c2c([H])c([H])c(C([H])([H])C([H])([H])C([H])([H])[H])c([H])c2[H])C([H])([H])C([H])([H])N(C([H])(c2c([H])c([H])c([H])c([H])c2[H])c2c([H])c([H])c([H])c([H])c2[H])C([H])([H])C1([H])[H]


 30 33  0  0  0  0  0  0  0  0999 V2000
    9.4571   45.3927  132.5962 C   0  0  0  0  0  0  0  0  0  0  0  0
    9.0256   45.2990  131.2544 O   0  0  0  0  0  0  0  0  0  0  0  0
    8.7424   46.5288  133.2210 C   0  0  0  0  0  0  0  0  0  0  0  0
    8.9505   47.7452  132.3605 C   0  0  0  0  0  0  0  0  0  0  0  0
   10.1488   47.7287  131.6072 N   0  0  0  0  0  0  0  0  0  0  0  0
   11.2611   47.0111  132.0120 C   0  0  0  0  0  0  0  0  0  0  0  0
   10.9327   45.6536  132.5880 C   0  0  0  0  0  0  0  0  0  0  0  0
    8.2813   44.6481  131.1891 H   0  0  0  0  0  0  0  0  0  0  0  0
    8.4375   41.6069  134.3307 C   0  0  0  0  0  0  0  0  0  0  0  0
    9.6596   42.1931  134.5994 C   0  0  0  0  0  0  0  0  0  0  0  0
   10.0068   43.4317  134.0635 C   0  0  0  0  0  0  0  0  0  0  0  0
    9.1295   44.1133  133.2394 C   0  0  0  0  0  0  0  0  0  0  0  0
    7.9178   43.5082  132.9917 C   0  0  0  0  0  0  0  0  0  0  0  0
    7.5596   42.2875  133.5122 C   0  0  0  0  0  0  0  0  0  0  0  0
    8.1693   40.2426  134.8306 C   0  0  0  0  0  0  0  0  0  0  0  0
    5.8324   40.9066  134.3824 C   0  0  0  0  0  0  0  0  0  0  0  0
    6.7246   40.0877  135.2754 C   0  0  0  0  0  0  0  0  0  0  0  0
   10.0561   48.3051  130.3250 C   0  0  0  0  0  0  0  0  0  0  0  0
   10.0972   47.2869  129.1974 C   0  0  0  0  0  0  0  0  0  0  0  0
    9.0221   46.4158  129.0061 C   0  0  0  0  0  0  0  0  0  0  0  0
    9.0467   45.4573  128.0312 C   0  0  0  0  0  0  0  0  0  0  0  0
   10.1734   45.3734  127.2335 C   0  0  0  0  0  0  0  0  0  0  0  0
   11.2217   46.2262  127.4170 C   0  0  0  0  0  0  0  0  0  0  0  0
   11.1860   47.2075  128.4218 C   0  0  0  0  0  0  0  0  0  0  0  0
    8.8774   49.1153  130.0233 C   0  0  0  0  0  0  0  0  0  0  0  0
    7.9985   48.7405  129.0107 C   0  0  0  0  0  0  0  0  0  0  0  0
    6.8509   49.4324  128.7458 C   0  0  0  0  0  0  0  0  0  0  0  0
    6.5165   50.5550  129.4979 C   0  0  0  0  0  0  0  0  0  0  0  0
    7.3691   50.9426  130.4924 C   0  0  0  0  0  0  0  0  0  0  0  0
    8.5292   50.2234  130.7378 C   0  0  0  0  0  0  0  0  0  0  0  0
 16 17  1  0  0  0
 17 15  1  0  0  0
 15  9  1  0  0  0
  9 10  2  0  0  0
 10 11  1  0  0  0
 11 12  2  0  0  0
 12  1  1  0  0  0
  1  2  1  0  0  0
  1  3  1  0  0  0
  3  4  1  0  0  0
  4  5  1  0  0  0
  5 18  1  0  0  0
 18 19  1  0  0  0
 19 20  2  0  0  0
 20 21  1  0  0  0
 21 22  2  0  0  0
 22 23  1  0  0  0
 23 24  2  0  0  0
 18 25  1  0  0  0
 25 26  2  0  0  0
 26 27  1  0  0  0
 27 28  2  0  0  0
 28 29  1  0  0  0
 29 30  2  0  0  0
  5  6  1  0  0  0
  6  7  1  0  0  0
 12 13  1  0  0  0
 13 14  2  0  0  0
 14  9  1  0  0  0
  7  1  1  0  0  0
 24 19  1  0  0  0
 30 25  1  0  0  0
  2  8  1  0  0  0
M  END
> <minimizedAffinity>
13.66087

> <CNNscore>
0.5457609892

> <CNNaffinity>
7.5730156898

> <CNN_VS>
4.1330566406

> <CNNaffinity_variance>
2.8663775921

$$$$
[H]OC1(c2c([H])c([H])c(C([H])([H])C([H])([H])C([H])([H])[H])c([H])c2[H])C([H])([H])C([H])([H])N(C([H])(c2c([H])c([H])c([H])c([H])c2[H])c2c([H])c([H])c([H])c([H])c2[H])C([H])([H])C1([H])[H]


 30 33  0  0  0  0  0  0  0  0999 V2000
    9.6335   44.5397  131.1565 C   0  0  0  0  0  0  0  0  0  0  0  0
    9.9478   45.2541  129.9792 O   0  0  0  0  0  0  0  0  0  0  0  0
    8.2101   44.7963  131.4728 C   0  0  0  0  0  0  0  0  0  0  0  0
    7.9986   46.2853  131.5123 C   0  0  0  0  0  0  0  0  0  0  0  0
    9.1537   47.0296  131.8517 N   0  0  0  0  0  0  0  0  0  0  0  0
   10.1786   46.4904  132.6099 C   0  0  0  0  0  0  0  0  0  0  0  0
   10.5079   45.0587  132.2571 C   0  0  0  0  0  0  0  0  0  0  0  0
    9.8406   44.6618  129.1920 H   0  0  0  0  0  0  0  0  0  0  0  0
   10.3499   40.3652  130.4930 C   0  0  0  0  0  0  0  0  0  0  0  0
    9.6160   41.1023  129.5833 C   0  0  0  0  0  0  0  0  0  0  0  0
    9.3857   42.4644  129.7665 C   0  0  0  0  0  0  0  0  0  0  0  0
    9.8894   43.1208  130.8750 C   0  0  0  0  0  0  0  0  0  0  0  0
   10.6200   42.3633  131.7627 C   0  0  0  0  0  0  0  0  0  0  0  0
   10.8565   41.0194  131.5970 C   0  0  0  0  0  0  0  0  0  0  0  0
   10.4642   38.9036  130.3083 C   0  0  0  0  0  0  0  0  0  0  0  0
    8.2168   38.0996  129.6714 C   0  0  0  0  0  0  0  0  0  0  0  0
    9.5954   38.4188  129.1598 C   0  0  0  0  0  0  0  0  0  0  0  0
    9.2850   48.2649  131.1868 C   0  0  0  0  0  0  0  0  0  0  0  0
    8.0705   48.6371  130.3524 C   0  0  0  0  0  0  0  0  0  0  0  0
    7.8745   48.0422  129.1038 C   0  0  0  0  0  0  0  0  0  0  0  0
    6.8182   48.3886  128.3076 C   0  0  0  0  0  0  0  0  0  0  0  0
    5.9423   49.3511  128.7758 C   0  0  0  0  0  0  0  0  0  0  0  0
    6.1308   49.9294  129.9966 C   0  0  0  0  0  0  0  0  0  0  0  0
    7.2195   49.5660  130.8066 C   0  0  0  0  0  0  0  0  0  0  0  0
    9.5310   49.4553  131.9987 C   0  0  0  0  0  0  0  0  0  0  0  0
    9.0919   50.7067  131.5752 C   0  0  0  0  0  0  0  0  0  0  0  0
    9.2411   51.8302  132.3377 C   0  0  0  0  0  0  0  0  0  0  0  0
    9.8465   51.7563  133.5890 C   0  0  0  0  0  0  0  0  0  0  0  0
   10.2897   50.5381  134.0201 C   0  0  0  0  0  0  0  0  0  0  0  0
   10.1281   49.4140  133.2240 C   0  0  0  0  0  0  0  0  0  0  0  0
 16 17  1  0  0  0
 17 15  1  0  0  0
 15  9  1  0  0  0
  9 10  2  0  0  0
 10 11  1  0  0  0
 11 12  2  0  0  0
 12  1  1  0  0  0
  1  2  1  0  0  0
  1  3  1  0  0  0
  3  4  1  0  0  0
  4  5  1  0  0  0
  5 18  1  0  0  0
 18 19  1  0  0  0
 19 20  2  0  0  0
 20 21  1  0  0  0
 21 22  2  0  0  0
 22 23  1  0  0  0
 23 24  2  0  0  0
 18 25  1  0  0  0
 25 26  2  0  0  0
 26 27  1  0  0  0
 27 28  2  0  0  0
 28 29  1  0  0  0
 29 30  2  0  0  0
  5  6  1  0  0  0
  6  7  1  0  0  0
 12 13  1  0  0  0
 13 14  2  0  0  0
 14  9  1  0  0  0
  7  1  1  0  0  0
 24 19  1  0  0  0
 30 25  1  0  0  0
  2  8  1  0  0  0
M  END
> <minimizedAffinity>
18.21550

> <CNNscore>
0.5372067094

> <CNNaffinity>
7.3082380295

> <CNN_VS>
3.9260344505

> <CNNaffinity_variance>
2.5267021656

$$$$
[H]OC1(c2c([H])c([H])c(C([H])([H])C([H])([H])C([H])([H])[H])c([H])c2[H])C([H])([H])C([H])([H])N(C([H])(c2c([H])c([H])c([H])c([H])c2[H])c2c([H])c([H])c([H])c([H])c2[H])C([H])([H])C1([H])[H]


 30 33  0  0  0  0  0  0  0  0999 V2000
    9.9724   45.3774  131.9514 C   0  0  0  0  0  0  0  0  0  0  0  0
   10.3140   46.0001  130.7304 O   0  0  0  0  0  0  0  0  0  0  0  0
    8.5390   45.6448  132.2080 C   0  0  0  0  0  0  0  0  0  0  0  0
    8.3157   47.1302  132.1243 C   0  0  0  0  0  0  0  0  0  0  0  0
    9.4557   47.9097  132.4351 N   0  0  0  0  0  0  0  0  0  0  0  0
   10.4630   47.4412  133.2608 C   0  0  0  0  0  0  0  0  0  0  0  0
   10.8123   45.9895  133.0310 C   0  0  0  0  0  0  0  0  0  0  0  0
   10.2328   45.3468  129.9897 H   0  0  0  0  0  0  0  0  0  0  0  0
   10.8877   41.2043  131.5948 C   0  0  0  0  0  0  0  0  0  0  0  0
    9.5746   41.6341  131.6043 C   0  0  0  0  0  0  0  0  0  0  0  0
    9.2515   42.9863  131.6997 C   0  0  0  0  0  0  0  0  0  0  0  0
   10.2462   43.9433  131.7896 C   0  0  0  0  0  0  0  0  0  0  0  0
   11.5453   43.4876  131.7738 C   0  0  0  0  0  0  0  0  0  0  0  0
   11.8812   42.1580  131.6802 C   0  0  0  0  0  0  0  0  0  0  0  0
   11.1695   39.7539  131.6089 C   0  0  0  0  0  0  0  0  0  0  0  0
   11.3194   37.8929  129.9912 C   0  0  0  0  0  0  0  0  0  0  0  0
   10.4691   39.0405  130.4646 C   0  0  0  0  0  0  0  0  0  0  0  0
    9.5964   49.0901  131.6788 C   0  0  0  0  0  0  0  0  0  0  0  0
    8.5307   49.2554  130.6078 C   0  0  0  0  0  0  0  0  0  0  0  0
    7.3093   49.8533  130.9271 C   0  0  0  0  0  0  0  0  0  0  0  0
    6.3119   49.9752  129.9998 C   0  0  0  0  0  0  0  0  0  0  0  0
    6.5472   49.4870  128.7273 C   0  0  0  0  0  0  0  0  0  0  0  0
    7.7410   48.9068  128.4137 C   0  0  0  0  0  0  0  0  0  0  0  0
    8.7591   48.7867  129.3743 C   0  0  0  0  0  0  0  0  0  0  0  0
    9.5772   50.3656  132.3926 C   0  0  0  0  0  0  0  0  0  0  0  0
    8.8833   51.4571  131.8775 C   0  0  0  0  0  0  0  0  0  0  0  0
    8.7840   52.6428  132.5484 C   0  0  0  0  0  0  0  0  0  0  0  0
    9.3836   52.7984  133.7951 C   0  0  0  0  0  0  0  0  0  0  0  0
   10.0743   51.7407  134.3151 C   0  0  0  0  0  0  0  0  0  0  0  0
   10.1617   50.5491  133.6109 C   0  0  0  0  0  0  0  0  0  0  0  0
 16 17  1  0  0  0
 17 15  1  0  0  0
 15  9  1  0  0  0
  9 10  2  0  0  0
 10 11  1  0  0  0
 11 12  2  0  0  0
 12  1  1  0  0  0
  1  2  1  0  0  0
  1  3  1  0  0  0
  3  4  1  0  0  0
  4  5  1  0  0  0
  5 18  1  0  0  0
 18 19  1  0  0  0
 19 20  2  0  0  0
 20 21  1  0  0  0
 21 22  2  0  0  0
 22 23  1  0  0  0
 23 24  2  0  0  0
 18 25  1  0  0  0
 25 26  2  0  0  0
 26 27  1  0  0  0
 27 28  2  0  0  0
 28 29  1  0  0  0
 29 30  2  0  0  0
  5  6  1  0  0  0
  6  7  1  0  0  0
 12 13  1  0  0  0
 13 14  2  0  0  0
 14  9  1  0  0  0
  7  1  1  0  0  0
 24 19  1  0  0  0
 30 25  1  0  0  0
  2  8  1  0  0  0
M  END
> <minimizedAffinity>
23.28863

> <CNNscore>
0.5183377862

> <CNNaffinity>
7.3093214035

> <CNN_VS>
3.7886974812

> <CNNaffinity_variance>
2.5868618488

$$$$
[H]OC1(c2c([H])c([H])c(C([H])([H])C([H])([H])C([H])([H])[H])c([H])c2[H])C([H])([H])C([H])([H])N(C([H])(c2c([H])c([H])c([H])c([H])c2[H])c2c([H])c([H])c([H])c([H])c2[H])C([H])([H])C1([H])[H]


 30 33  0  0  0  0  0  0  0  0999 V2000
    9.7397   45.5473  131.2028 C   0  0  0  0  0  0  0  0  0  0  0  0
    9.3390   46.7985  131.7218 O   0  0  0  0  0  0  0  0  0  0  0  0
   10.6200   45.8029  130.0402 C   0  0  0  0  0  0  0  0  0  0  0  0
    9.8956   46.7227  129.0955 C   0  0  0  0  0  0  0  0  0  0  0  0
    8.4844   46.6374  129.1659 N   0  0  0  0  0  0  0  0  0  0  0  0
    7.8382   45.4898  129.5918 C   0  0  0  0  0  0  0  0  0  0  0  0
    8.5079   44.8146  130.7657 C   0  0  0  0  0  0  0  0  0  0  0  0
    9.9490   47.0649  132.4559 H   0  0  0  0  0  0  0  0  0  0  0  0
   11.7908   43.6320  134.4439 C   0  0  0  0  0  0  0  0  0  0  0  0
   10.7571   42.9874  133.7918 C   0  0  0  0  0  0  0  0  0  0  0  0
   10.0876   43.5807  132.7233 C   0  0  0  0  0  0  0  0  0  0  0  0
   10.4427   44.8432  132.2836 C   0  0  0  0  0  0  0  0  0  0  0  0
   11.4782   45.4606  132.9485 C   0  0  0  0  0  0  0  0  0  0  0  0
   12.1490   44.8897  134.0037 C   0  0  0  0  0  0  0  0  0  0  0  0
   12.3866   43.0053  135.6420 C   0  0  0  0  0  0  0  0  0  0  0  0
   10.5641   44.3455  136.6346 C   0  0  0  0  0  0  0  0  0  0  0  0
   11.5039   43.1931  136.8646 C   0  0  0  0  0  0  0  0  0  0  0  0
    7.8027   47.8574  128.9867 C   0  0  0  0  0  0  0  0  0  0  0  0
    6.3001   47.7480  129.1869 C   0  0  0  0  0  0  0  0  0  0  0  0
    5.4792   48.8441  128.9111 C   0  0  0  0  0  0  0  0  0  0  0  0
    4.1295   48.7947  129.1245 C   0  0  0  0  0  0  0  0  0  0  0  0
    3.5951   47.6211  129.6245 C   0  0  0  0  0  0  0  0  0  0  0  0
    4.3955   46.5492  129.8902 C   0  0  0  0  0  0  0  0  0  0  0  0
    5.7812   46.6107  129.6671 C   0  0  0  0  0  0  0  0  0  0  0  0
    8.1880   48.9862  129.8317 C   0  0  0  0  0  0  0  0  0  0  0  0
    9.3709   48.9529  130.5650 C   0  0  0  0  0  0  0  0  0  0  0  0
    9.7990   50.0146  131.3102 C   0  0  0  0  0  0  0  0  0  0  0  0
    9.0516   51.1881  131.3577 C   0  0  0  0  0  0  0  0  0  0  0  0
    7.8845   51.2385  130.6496 C   0  0  0  0  0  0  0  0  0  0  0  0
    7.4719   50.1445  129.9037 C   0  0  0  0  0  0  0  0  0  0  0  0
 16 17  1  0  0  0
 17 15  1  0  0  0
 15  9  1  0  0  0
  9 10  2  0  0  0
 10 11  1  0  0  0
 11 12  2  0  0  0
 12  1  1  0  0  0
  1  2  1  0  0  0
  1  3  1  0  0  0
  3  4  1  0  0  0
  4  5  1  0  0  0
  5 18  1  0  0  0
 18 19  1  0  0  0
 19 20  2  0  0  0
 20 21  1  0  0  0
 21 22  2  0  0  0
 22 23  1  0  0  0
 23 24  2  0  0  0
 18 25  1  0  0  0
 25 26  2  0  0  0
 26 27  1  0  0  0
 27 28  2  0  0  0
 28 29  1  0  0  0
 29 30  2  0  0  0
  5  6  1  0  0  0
  6  7  1  0  0  0
 12 13  1  0  0  0
 13 14  2  0  0  0
 14  9  1  0  0  0
  7  1  1  0  0  0
 24 19  1  0  0  0
 30 25  1  0  0  0
  2  8  1  0  0  0
M  END
> <minimizedAffinity>
6.97282

> <CNNscore>
0.5042100549

> <CNNaffinity>
7.5600738525

> <CNN_VS>
3.8118653297

> <CNNaffinity_variance>
2.6801440716

$$$$
[H]OC1(c2c([H])c([H])c(C([H])([H])C([H])([H])C([H])([H])[H])c([H])c2[H])C([H])([H])C([H])([H])N(C([H])(c2c([H])c([H])c([H])c([H])c2[H])c2c([H])c([H])c([H])c([H])c2[H])C([H])([H])C1([H])[H]


 30 33  0  0  0  0  0  0  0  0999 V2000
    7.8437   48.4616  130.1022 C   0  0  0  0  0  0  0  0  0  0  0  0
    8.8655   47.8617  129.3333 O   0  0  0  0  0  0  0  0  0  0  0  0
    8.3782   48.6871  131.4643 C   0  0  0  0  0  0  0  0  0  0  0  0
    8.9277   47.3831  131.9753 C   0  0  0  0  0  0  0  0  0  0  0  0
    8.3177   46.2344  131.4167 N   0  0  0  0  0  0  0  0  0  0  0  0
    7.0242   46.2555  130.9244 C   0  0  0  0  0  0  0  0  0  0  0  0
    6.6872   47.5101  130.1532 C   0  0  0  0  0  0  0  0  0  0  0  0
    9.3643   48.5611  128.8394 H   0  0  0  0  0  0  0  0  0  0  0  0
    6.9062   52.2153  128.2552 C   0  0  0  0  0  0  0  0  0  0  0  0
    7.1805   51.1040  127.4813 C   0  0  0  0  0  0  0  0  0  0  0  0
    7.4690   49.8683  128.0574 C   0  0  0  0  0  0  0  0  0  0  0  0
    7.4898   49.7203  129.4326 C   0  0  0  0  0  0  0  0  0  0  0  0
    7.2090   50.8425  130.1792 C   0  0  0  0  0  0  0  0  0  0  0  0
    6.9225   52.0682  129.6271 C   0  0  0  0  0  0  0  0  0  0  0  0
    6.7218   53.5238  127.5943 C   0  0  0  0  0  0  0  0  0  0  0  0
    7.4465   54.6495  125.5181 C   0  0  0  0  0  0  0  0  0  0  0  0
    7.9149   53.8795  126.7231 C   0  0  0  0  0  0  0  0  0  0  0  0
    9.1838   45.1447  131.1985 C   0  0  0  0  0  0  0  0  0  0  0  0
   10.4552   45.2040  132.0290 C   0  0  0  0  0  0  0  0  0  0  0  0
   10.3822   45.4875  133.3949 C   0  0  0  0  0  0  0  0  0  0  0  0
   11.5095   45.5944  134.1614 C   0  0  0  0  0  0  0  0  0  0  0  0
   12.7331   45.4127  133.5429 C   0  0  0  0  0  0  0  0  0  0  0  0
   12.8049   45.1319  132.2102 C   0  0  0  0  0  0  0  0  0  0  0  0
   11.6403   45.0241  131.4319 C   0  0  0  0  0  0  0  0  0  0  0  0
    8.6660   43.8001  131.4451 C   0  0  0  0  0  0  0  0  0  0  0  0
    8.3733   43.3783  132.7391 C   0  0  0  0  0  0  0  0  0  0  0  0
    7.8232   42.1561  133.0026 C   0  0  0  0  0  0  0  0  0  0  0  0
    7.5295   41.2777  131.9634 C   0  0  0  0  0  0  0  0  0  0  0  0
    7.8150   41.6707  130.6866 C   0  0  0  0  0  0  0  0  0  0  0  0
    8.3763   42.9162  130.4479 C   0  0  0  0  0  0  0  0  0  0  0  0
 16 17  1  0  0  0
 17 15  1  0  0  0
 15  9  1  0  0  0
  9 10  2  0  0  0
 10 11  1  0  0  0
 11 12  2  0  0  0
 12  1  1  0  0  0
  1  2  1  0  0  0
  1  3  1  0  0  0
  3  4  1  0  0  0
  4  5  1  0  0  0
  5 18  1  0  0  0
 18 19  1  0  0  0
 19 20  2  0  0  0
 20 21  1  0  0  0
 21 22  2  0  0  0
 22 23  1  0  0  0
 23 24  2  0  0  0
 18 25  1  0  0  0
 25 26  2  0  0  0
 26 27  1  0  0  0
 27 28  2  0  0  0
 28 29  1  0  0  0
 29 30  2  0  0  0
  5  6  1  0  0  0
  6  7  1  0  0  0
 12 13  1  0  0  0
 13 14  2  0  0  0
 14  9  1  0  0  0
  7  1  1  0  0  0
 24 19  1  0  0  0
 30 25  1  0  0  0
  2  8  1  0  0  0
M  END
> <minimizedAffinity>
4.48004

> <CNNscore>
0.4734271467

> <CNNaffinity>
7.1678438187

> <CNN_VS>
3.3934519291

> <CNNaffinity_variance>
1.1950601339

$$$$
[H]OC1(c2c([H])c([H])c(C([H])([H])C([H])([H])C([H])([H])[H])c([H])c2[H])C([H])([H])C([H])([H])N(C([H])(c2c([H])c([H])c([H])c([H])c2[H])c2c([H])c([H])c([H])c([H])c2[H])C([H])([H])C1([H])[H]


 30 33  0  0  0  0  0  0  0  0999 V2000
    8.3074   45.8792  130.0962 C   0  0  0  0  0  0  0  0  0  0  0  0
    8.6963   46.6820  131.1914 O   0  0  0  0  0  0  0  0  0  0  0  0
    8.7797   46.5436  128.8603 C   0  0  0  0  0  0  0  0  0  0  0  0
    8.2770   47.9615  128.8675 C   0  0  0  0  0  0  0  0  0  0  0  0
    7.0830   48.1531  129.6032 N   0  0  0  0  0  0  0  0  0  0  0  0
    6.1715   47.1308  129.8036 C   0  0  0  0  0  0  0  0  0  0  0  0
    6.8114   45.7939  130.0962 C   0  0  0  0  0  0  0  0  0  0  0  0
    9.5620   46.3593  131.5497 H   0  0  0  0  0  0  0  0  0  0  0  0
    9.9835   41.9703  130.6367 C   0  0  0  0  0  0  0  0  0  0  0  0
   10.6457   42.9167  129.8783 C   0  0  0  0  0  0  0  0  0  0  0  0
   10.1314   44.2000  129.7036 C   0  0  0  0  0  0  0  0  0  0  0  0
    8.9322   44.5637  130.2892 C   0  0  0  0  0  0  0  0  0  0  0  0
    8.2958   43.6028  131.0424 C   0  0  0  0  0  0  0  0  0  0  0  0
    8.7892   42.3329  131.2249 C   0  0  0  0  0  0  0  0  0  0  0  0
   10.5156   40.5930  130.6923 C   0  0  0  0  0  0  0  0  0  0  0  0
   11.6999   41.7341  132.5358 C   0  0  0  0  0  0  0  0  0  0  0  0
   11.4471   40.4045  131.8780 C   0  0  0  0  0  0  0  0  0  0  0  0
    6.9970   49.3782  130.2938 C   0  0  0  0  0  0  0  0  0  0  0  0
    8.0822   49.5615  131.3420 C   0  0  0  0  0  0  0  0  0  0  0  0
    8.1147   48.7295  132.4636 C   0  0  0  0  0  0  0  0  0  0  0  0
    9.0486   48.8972  133.4481 C   0  0  0  0  0  0  0  0  0  0  0  0
    9.9674   49.9206  133.3019 C   0  0  0  0  0  0  0  0  0  0  0  0
    9.9387   50.7308  132.2051 C   0  0  0  0  0  0  0  0  0  0  0  0
    8.9748   50.5495  131.1994 C   0  0  0  0  0  0  0  0  0  0  0  0
    7.0551   50.6104  129.5096 C   0  0  0  0  0  0  0  0  0  0  0  0
    7.3858   50.5767  128.1576 C   0  0  0  0  0  0  0  0  0  0  0  0
    7.3824   51.6970  127.3762 C   0  0  0  0  0  0  0  0  0  0  0  0
    7.0380   52.9321  127.9182 C   0  0  0  0  0  0  0  0  0  0  0  0
    6.7161   52.9871  129.2447 C   0  0  0  0  0  0  0  0  0  0  0  0
    6.7307   51.8345  130.0157 C   0  0  0  0  0  0  0  0  0  0  0  0
 16 17  1  0  0  0
 17 15  1  0  0  0
 15  9  1  0  0  0
  9 10  2  0  0  0
 10 11  1  0  0  0
 11 12  2  0  0  0
 12  1  1  0  0  0
  1  2  1  0  0  0
  1  3  1  0  0  0
  3  4  1  0  0  0
  4  5  1  0  0  0
  5 18  1  0  0  0
 18 19  1  0  0  0
 19 20  2  0  0  0
 20 21  1  0  0  0
 21 22  2  0  0  0
 22 23  1  0  0  0
 23 24  2  0  0  0
 18 25  1  0  0  0
 25 26  2  0  0  0
 26 27  1  0  0  0
 27 28  2  0  0  0
 28 29  1  0  0  0
 29 30  2  0  0  0
  5  6  1  0  0  0
  6  7  1  0  0  0
 12 13  1  0  0  0
 13 14  2  0  0  0
 14  9  1  0  0  0
  7  1  1  0  0  0
 24 19  1  0  0  0
 30 25  1  0  0  0
  2  8  1  0  0  0
M  END
> <minimizedAffinity>
11.62695

> <CNNscore>
0.4598638713

> <CNNaffinity>
7.1517753601

> <CNN_VS>
3.2888431549

> <CNNaffinity_variance>
1.8688285351

$$$$
[H]OC1(c2c([H])c([H])c(C([H])([H])C([H])([H])C([H])([H])[H])c([H])c2[H])C([H])([H])C([H])([H])N(C([H])(c2c([H])c([H])c([H])c([H])c2[H])c2c([H])c([H])c([H])c([H])c2[H])C([H])([H])C1([H])[H]


 30 33  0  0  0  0  0  0  0  0999 V2000
    9.0169   43.5286  130.2081 C   0  0  0  0  0  0  0  0  0  0  0  0
   10.2340   44.0983  130.6433 O   0  0  0  0  0  0  0  0  0  0  0  0
    8.1998   44.6109  129.6141 C   0  0  0  0  0  0  0  0  0  0  0  0
    8.0996   45.7282  130.6165 C   0  0  0  0  0  0  0  0  0  0  0  0
    8.2181   45.3143  131.9649 N   0  0  0  0  0  0  0  0  0  0  0  0
    7.8868   44.0335  132.3720 C   0  0  0  0  0  0  0  0  0  0  0  0
    8.3222   42.9564  131.4062 C   0  0  0  0  0  0  0  0  0  0  0  0
   10.9201   43.9982  129.9353 H   0  0  0  0  0  0  0  0  0  0  0  0
   10.1441   40.5950  127.2920 C   0  0  0  0  0  0  0  0  0  0  0  0
    9.7460   40.2069  128.5570 C   0  0  0  0  0  0  0  0  0  0  0  0
    9.3565   41.1398  129.5162 C   0  0  0  0  0  0  0  0  0  0  0  0
    9.3592   42.4920  129.2250 C   0  0  0  0  0  0  0  0  0  0  0  0
    9.7564   42.8502  127.9563 C   0  0  0  0  0  0  0  0  0  0  0  0
   10.1434   41.9432  126.9988 C   0  0  0  0  0  0  0  0  0  0  0  0
   10.6565   39.5740  126.3549 C   0  0  0  0  0  0  0  0  0  0  0  0
   12.8276   38.4202  126.1140 C   0  0  0  0  0  0  0  0  0  0  0  0
   12.1410   39.7590  126.0887 C   0  0  0  0  0  0  0  0  0  0  0  0
    8.8965   46.2157  132.8089 C   0  0  0  0  0  0  0  0  0  0  0  0
   10.3299   45.8073  133.1063 C   0  0  0  0  0  0  0  0  0  0  0  0
   10.6206   45.0765  134.2607 C   0  0  0  0  0  0  0  0  0  0  0  0
   11.9045   44.7333  134.5820 C   0  0  0  0  0  0  0  0  0  0  0  0
   12.9152   45.1322  133.7263 C   0  0  0  0  0  0  0  0  0  0  0  0
   12.6317   45.8423  132.5969 C   0  0  0  0  0  0  0  0  0  0  0  0
   11.3088   46.1896  132.2762 C   0  0  0  0  0  0  0  0  0  0  0  0
    9.0112   47.6062  132.3727 C   0  0  0  0  0  0  0  0  0  0  0  0
    9.6650   48.5469  133.1638 C   0  0  0  0  0  0  0  0  0  0  0  0
    9.8533   49.8379  132.7592 C   0  0  0  0  0  0  0  0  0  0  0  0
    9.3904   50.2606  131.5163 C   0  0  0  0  0  0  0  0  0  0  0  0
    8.7409   49.3538  130.7275 C   0  0  0  0  0  0  0  0  0  0  0  0
    8.5607   48.0500  131.1645 C   0  0  0  0  0  0  0  0  0  0  0  0
 16 17  1  0  0  0
 17 15  1  0  0  0
 15  9  1  0  0  0
  9 10  2  0  0  0
 10 11  1  0  0  0
 11 12  2  0  0  0
 12  1  1  0  0  0
  1  2  1  0  0  0
  1  3  1  0  0  0
  3  4  1  0  0  0
  4  5  1  0  0  0
  5 18  1  0  0  0
 18 19  1  0  0  0
 19 20  2  0  0  0
 20 21  1  0  0  0
 21 22  2  0  0  0
 22 23  1  0  0  0
 23 24  2  0  0  0
 18 25  1  0  0  0
 25 26  2  0  0  0
 26 27  1  0  0  0
 27 28  2  0  0  0
 28 29  1  0  0  0
 29 30  2  0  0  0
  5  6  1  0  0  0
  6  7  1  0  0  0
 12 13  1  0  0  0
 13 14  2  0  0  0
 14  9  1  0  0  0
  7  1  1  0  0  0
 24 19  1  0  0  0
 30 25  1  0  0  0
  2  8  1  0  0  0
M  END
> <minimizedAffinity>
10.23006

> <CNNscore>
0.4399601221

> <CNNaffinity>
7.3897523880

> <CNN_VS>
3.2511963844

> <CNNaffinity_variance>
1.5712063313

$$$$
[H]OC1(c2c([H])c([H])c(C([H])([H])C([H])([H])C([H])([H])[H])c([H])c2[H])C([H])([H])C([H])([H])N(C([H])(c2c([H])c([H])c([H])c([H])c2[H])c2c([H])c([H])c([H])c([H])c2[H])C([H])([H])C1([H])[H]


 30 33  0  0  0  0  0  0  0  0999 V2000
    9.6240   45.0072  130.2466 C   0  0  0  0  0  0  0  0  0  0  0  0
    9.7676   45.8889  131.3409 O   0  0  0  0  0  0  0  0  0  0  0  0
   10.4907   45.5016  129.1528 C   0  0  0  0  0  0  0  0  0  0  0  0
   10.1532   46.9461  128.9023 C   0  0  0  0  0  0  0  0  0  0  0  0
    8.8261   47.3024  129.2422 N   0  0  0  0  0  0  0  0  0  0  0  0
    7.7961   46.3777  129.2490 C   0  0  0  0  0  0  0  0  0  0  0  0
    8.1880   45.0346  129.8190 C   0  0  0  0  0  0  0  0  0  0  0  0
   10.4596   45.5414  131.9593 H   0  0  0  0  0  0  0  0  0  0  0  0
   10.8301   41.0756  131.4583 C   0  0  0  0  0  0  0  0  0  0  0  0
   11.3253   42.1904  132.1073 C   0  0  0  0  0  0  0  0  0  0  0  0
   10.9340   43.4779  131.7451 C   0  0  0  0  0  0  0  0  0  0  0  0
   10.0317   43.6761  130.7155 C   0  0  0  0  0  0  0  0  0  0  0  0
    9.5515   42.5481  130.0890 C   0  0  0  0  0  0  0  0  0  0  0  0
    9.9268   41.2715  130.4338 C   0  0  0  0  0  0  0  0  0  0  0  0
   11.3669   39.7437  131.8061 C   0  0  0  0  0  0  0  0  0  0  0  0
    9.8552   38.6051  130.2182 C   0  0  0  0  0  0  0  0  0  0  0  0
   11.2918   38.7888  130.6265 C   0  0  0  0  0  0  0  0  0  0  0  0
    8.6739   48.5959  129.7795 C   0  0  0  0  0  0  0  0  0  0  0  0
    7.2515   49.1247  129.6951 C   0  0  0  0  0  0  0  0  0  0  0  0
    6.9341   50.3627  130.2590 C   0  0  0  0  0  0  0  0  0  0  0  0
    5.6553   50.8464  130.2418 C   0  0  0  0  0  0  0  0  0  0  0  0
    4.6772   50.0708  129.6462 C   0  0  0  0  0  0  0  0  0  0  0  0
    4.9871   48.8638  129.0919 C   0  0  0  0  0  0  0  0  0  0  0  0
    6.3045   48.3763  129.1150 C   0  0  0  0  0  0  0  0  0  0  0  0
    9.0425   48.8025  131.1788 C   0  0  0  0  0  0  0  0  0  0  0  0
    8.4936   48.0087  132.1823 C   0  0  0  0  0  0  0  0  0  0  0  0
    8.8653   48.1249  133.4915 C   0  0  0  0  0  0  0  0  0  0  0  0
    9.8267   49.0578  133.8701 C   0  0  0  0  0  0  0  0  0  0  0  0
   10.3730   49.8505  132.9008 C   0  0  0  0  0  0  0  0  0  0  0  0
    9.9749   49.7134  131.5795 C   0  0  0  0  0  0  0  0  0  0  0  0
 16 17  1  0  0  0
 17 15  1  0  0  0
 15  9  1  0  0  0
  9 10  2  0  0  0
 10 11  1  0  0  0
 11 12  2  0  0  0
 12  1  1  0  0  0
  1  2  1  0  0  0
  1  3  1  0  0  0
  3  4  1  0  0  0
  4  5  1  0  0  0
  5 18  1  0  0  0
 18 19  1  0  0  0
 19 20  2  0  0  0
 20 21  1  0  0  0
 21 22  2  0  0  0
 22 23  1  0  0  0
 23 24  2  0  0  0
 18 25  1  0  0  0
 25 26  2  0  0  0
 26 27  1  0  0  0
 27 28  2  0  0  0
 28 29  1  0  0  0
 29 30  2  0  0  0
  5  6  1  0  0  0
  6  7  1  0  0  0
 12 13  1  0  0  0
 13 14  2  0  0  0
 14  9  1  0  0  0
  7  1  1  0  0  0
 24 19  1  0  0  0
 30 25  1  0  0  0
  2  8  1  0  0  0
M  END
> <minimizedAffinity>
7.89447

> <CNNscore>
0.4294144809

> <CNNaffinity>
7.3017148972

> <CNN_VS>
3.1354620457

> <CNNaffinity_variance>
1.4439395666

$$$$
[H]OC1(c2c([H])c([H])c(C([H])([H])C([H])([H])C([H])([H])[H])c([H])c2[H])C([H])([H])C([H])([H])N(C([H])(c2c([H])c([H])c([H])c([H])c2[H])c2c([H])c([H])c([H])c([H])c2[H])C([H])([H])C1([H])[H]


 30 33  0  0  0  0  0  0  0  0999 V2000
    7.9042   47.2413  130.8867 C   0  0  0  0  0  0  0  0  0  0  0  0
    9.1924   47.4542  130.3475 O   0  0  0  0  0  0  0  0  0  0  0  0
    7.8709   47.8595  132.2316 C   0  0  0  0  0  0  0  0  0  0  0  0
    9.0302   47.3211  133.0251 C   0  0  0  0  0  0  0  0  0  0  0  0
    9.4610   46.0329  132.6272 N   0  0  0  0  0  0  0  0  0  0  0  0
    8.6102   45.1314  132.0112 C   0  0  0  0  0  0  0  0  0  0  0  0
    7.6887   45.7623  130.9937 C   0  0  0  0  0  0  0  0  0  0  0  0
    9.1875   48.2714  129.7871 H   0  0  0  0  0  0  0  0  0  0  0  0
    4.9904   49.0060  128.2838 C   0  0  0  0  0  0  0  0  0  0  0  0
    6.0650   49.7477  128.7359 C   0  0  0  0  0  0  0  0  0  0  0  0
    7.0357   49.1917  129.5669 C   0  0  0  0  0  0  0  0  0  0  0  0
    6.9478   47.8702  129.9661 C   0  0  0  0  0  0  0  0  0  0  0  0
    5.8694   47.1537  129.4978 C   0  0  0  0  0  0  0  0  0  0  0  0
    4.9035   47.6865  128.6778 C   0  0  0  0  0  0  0  0  0  0  0  0
    3.9319   49.6773  127.5013 C   0  0  0  0  0  0  0  0  0  0  0  0
    2.1933   51.4263  127.6464 C   0  0  0  0  0  0  0  0  0  0  0  0
    3.5729   51.0285  128.0966 C   0  0  0  0  0  0  0  0  0  0  0  0
   10.8517   45.8191  132.7003 C   0  0  0  0  0  0  0  0  0  0  0  0
   11.2739   44.9721  133.8896 C   0  0  0  0  0  0  0  0  0  0  0  0
   12.4817   44.2714  133.8517 C   0  0  0  0  0  0  0  0  0  0  0  0
   12.8693   43.4636  134.8847 C   0  0  0  0  0  0  0  0  0  0  0  0
   12.0266   43.3587  135.9763 C   0  0  0  0  0  0  0  0  0  0  0  0
   10.8491   44.0457  136.0157 C   0  0  0  0  0  0  0  0  0  0  0  0
   10.4606   44.8731  134.9488 C   0  0  0  0  0  0  0  0  0  0  0  0
   11.5052   45.1760  131.5619 C   0  0  0  0  0  0  0  0  0  0  0  0
   11.6829   45.8629  130.3641 C   0  0  0  0  0  0  0  0  0  0  0  0
   12.3501   45.3208  129.3027 C   0  0  0  0  0  0  0  0  0  0  0  0
   12.8866   44.0392  129.3888 C   0  0  0  0  0  0  0  0  0  0  0  0
   12.7176   43.3462  130.5539 C   0  0  0  0  0  0  0  0  0  0  0  0
   12.0332   43.9197  131.6150 C   0  0  0  0  0  0  0  0  0  0  0  0
 16 17  1  0  0  0
 17 15  1  0  0  0
 15  9  1  0  0  0
  9 10  2  0  0  0
 10 11  1  0  0  0
 11 12  2  0  0  0
 12  1  1  0  0  0
  1  2  1  0  0  0
  1  3  1  0  0  0
  3  4  1  0  0  0
  4  5  1  0  0  0
  5 18  1  0  0  0
 18 19  1  0  0  0
 19 20  2  0  0  0
 20 21  1  0  0  0
 21 22  2  0  0  0
 22 23  1  0  0  0
 23 24  2  0  0  0
 18 25  1  0  0  0
 25 26  2  0  0  0
 26 27  1  0  0  0
 27 28  2  0  0  0
 28 29  1  0  0  0
 29 30  2  0  0  0
  5  6  1  0  0  0
  6  7  1  0  0  0
 12 13  1  0  0  0
 13 14  2  0  0  0
 14  9  1  0  0  0
  7  1  1  0  0  0
 24 19  1  0  0  0
 30 25  1  0  0  0
  2  8  1  0  0  0
M  END
> <minimizedAffinity>
12.35349

> <CNNscore>
0.4286007881

> <CNNaffinity>
7.1734085083

> <CNN_VS>
3.0745284557

> <CNNaffinity_variance>
1.6570224762

$$$$
[H]N=C(c1c([H])c([H])c([H])c(Oc2nc(Oc3c([H])c([H])c([H])c(N([H])C(=O)C([H])([H])[H])c3[H])c(F)c(C([H])([H])[H])c2F)c1[H])N([H])[H]


 34 36  0  0  0  0  0  0  0  0999 V2000
    9.7184   43.9626  129.4797 C   0  0  0  0  0  0  0  0  0  0  0  0
    9.6061   45.2739  129.8022 N   0  0  0  0  0  0  0  0  0  0  0  0
    9.9609   46.2842  129.0046 C   0  0  0  0  0  0  0  0  0  0  0  0
   10.4799   45.9888  127.7609 C   0  0  0  0  0  0  0  0  0  0  0  0
   10.8484   47.0070  126.9304 F   0  0  0  0  0  0  0  0  0  0  0  0
   10.6261   44.6814  127.3582 C   0  0  0  0  0  0  0  0  0  0  0  0
   11.1819   44.3390  126.0253 C   0  0  0  0  0  0  0  0  0  0  0  0
   10.2392   43.6911  128.2333 C   0  0  0  0  0  0  0  0  0  0  0  0
   10.4049   42.4098  127.7870 F   0  0  0  0  0  0  0  0  0  0  0  0
    9.3352   42.9849  130.3467 O   0  0  0  0  0  0  0  0  0  0  0  0
    8.7854   42.1528  133.8785 C   0  0  0  0  0  0  0  0  0  0  0  0
    9.9198   42.7266  134.3975 C   0  0  0  0  0  0  0  0  0  0  0  0
   10.8652   43.3803  133.6325 C   0  0  0  0  0  0  0  0  0  0  0  0
   10.6952   43.4800  132.2844 C   0  0  0  0  0  0  0  0  0  0  0  0
    9.5798   42.9258  131.7046 C   0  0  0  0  0  0  0  0  0  0  0  0
    8.6582   42.2831  132.4891 C   0  0  0  0  0  0  0  0  0  0  0  0
    5.6209   40.3518  135.1699 C   0  0  0  0  0  0  0  0  0  0  0  0
    6.5375   41.0379  134.2009 C   0  0  0  0  0  0  0  0  0  0  0  0
    6.1093   41.1641  133.0480 O   0  0  0  0  0  0  0  0  0  0  0  0
    7.7812   41.4874  134.6164 N   0  0  0  0  0  0  0  0  0  0  0  0
    8.0467   41.3222  135.6517 H   0  0  0  0  0  0  0  0  0  0  0  0
    9.8042   47.6021  129.4325 O   0  0  0  0  0  0  0  0  0  0  0  0
    9.9066   47.9650  130.7614 C   0  0  0  0  0  0  0  0  0  0  0  0
   10.2230   47.0667  131.7715 C   0  0  0  0  0  0  0  0  0  0  0  0
   10.3134   47.4766  133.0787 C   0  0  0  0  0  0  0  0  0  0  0  0
   10.0884   48.8120  133.4271 C   0  0  0  0  0  0  0  0  0  0  0  0
    9.7760   49.7138  132.4537 C   0  0  0  0  0  0  0  0  0  0  0  0
    9.6898   49.2667  131.1204 C   0  0  0  0  0  0  0  0  0  0  0  0
    9.5314   51.1165  132.7528 C   0  0  0  0  0  0  0  0  0  0  0  0
    9.9948   51.6673  133.7931 N   0  0  0  0  0  0  0  0  0  0  0  0
    8.7539   51.8918  131.8575 N   0  0  0  0  0  0  0  0  0  0  0  0
   10.5619   51.1778  134.4839 H   0  0  0  0  0  0  0  0  0  0  0  0
    7.9058   52.3610  132.2151 H   0  0  0  0  0  0  0  0  0  0  0  0
    9.0403   51.9784  130.8685 H   0  0  0  0  0  0  0  0  0  0  0  0
 17 18  1  0  0  0
 18 19  2  0  0  0
 18 20  1  0  0  0
 20 11  1  0  0  0
 11 12  2  0  0  0
 12 13  1  0  0  0
 13 14  2  0  0  0
 14 15  1  0  0  0
 15 10  1  0  0  0
 10  1  1  0  0  0
  1  2  2  0  0  0
  2  3  1  0  0  0
  3 22  1  0  0  0
 22 23  1  0  0  0
 23 24  2  0  0  0
 24 25  1  0  0  0
 25 26  2  0  0  0
 26 27  1  0  0  0
 27 29  1  0  0  0
 29 30  2  0  0  0
 29 31  1  0  0  0
 27 28  2  0  0  0
  3  4  2  0  0  0
  4  5  1  0  0  0
  4  6  1  0  0  0
  6  7  1  0  0  0
  6  8  2  0  0  0
  8  9  1  0  0  0
 15 16  2  0  0  0
 16 11  1  0  0  0
  8  1  1  0  0  0
 28 23  1  0  0  0
 20 21  1  0  0  0
 30 32  1  0  0  0
 31 33  1  0  0  0
 31 34  1  0  0  0
M  END
> <minimizedAffinity>
15.08147

> <CNNscore>
0.5621868968

> <CNNaffinity>
7.6248526573

> <CNN_VS>
4.2865924835

> <CNNaffinity_variance>
2.3767533302

$$$$
[H]N=C(c1c([H])c([H])c([H])c(Oc2nc(Oc3c([H])c([H])c([H])c(N([H])C(=O)C([H])([H])[H])c3[H])c(F)c(C([H])([H])[H])c2F)c1[H])N([H])[H]


 34 36  0  0  0  0  0  0  0  0999 V2000
    8.4172   44.4837  129.9134 C   0  0  0  0  0  0  0  0  0  0  0  0
    8.4582   45.7620  130.3610 N   0  0  0  0  0  0  0  0  0  0  0  0
    9.1813   46.7372  129.8054 C   0  0  0  0  0  0  0  0  0  0  0  0
    9.9459   46.4386  128.6966 C   0  0  0  0  0  0  0  0  0  0  0  0
   10.6921   47.4213  128.1136 F   0  0  0  0  0  0  0  0  0  0  0  0
    9.9587   45.1632  128.1805 C   0  0  0  0  0  0  0  0  0  0  0  0
   10.7730   44.8180  126.9887 C   0  0  0  0  0  0  0  0  0  0  0  0
    9.1883   44.2082  128.8053 C   0  0  0  0  0  0  0  0  0  0  0  0
    9.2355   42.9577  128.2553 F   0  0  0  0  0  0  0  0  0  0  0  0
    7.6546   43.5408  130.5330 O   0  0  0  0  0  0  0  0  0  0  0  0
    9.4952   42.6114  133.5690 C   0  0  0  0  0  0  0  0  0  0  0  0
    8.6008   41.6995  134.0730 C   0  0  0  0  0  0  0  0  0  0  0  0
    7.4101   41.3734  133.4548 C   0  0  0  0  0  0  0  0  0  0  0  0
    7.0717   41.9708  132.2780 C   0  0  0  0  0  0  0  0  0  0  0  0
    7.9252   42.8929  131.7222 C   0  0  0  0  0  0  0  0  0  0  0  0
    9.1003   43.1965  132.3585 C   0  0  0  0  0  0  0  0  0  0  0  0
   13.1033   43.7364  134.3695 C   0  0  0  0  0  0  0  0  0  0  0  0
   11.8940   43.4144  133.5427 C   0  0  0  0  0  0  0  0  0  0  0  0
   12.0154   43.5723  132.3225 O   0  0  0  0  0  0  0  0  0  0  0  0
   10.7312   42.9694  134.1519 N   0  0  0  0  0  0  0  0  0  0  0  0
   10.7441   42.8678  135.2286 H   0  0  0  0  0  0  0  0  0  0  0  0
    9.1540   48.0230  130.3446 O   0  0  0  0  0  0  0  0  0  0  0  0
    9.6199   48.3020  131.6147 C   0  0  0  0  0  0  0  0  0  0  0  0
   10.0476   47.3210  132.4991 C   0  0  0  0  0  0  0  0  0  0  0  0
   10.5029   47.6492  133.7521 C   0  0  0  0  0  0  0  0  0  0  0  0
   10.5473   48.9827  134.1707 C   0  0  0  0  0  0  0  0  0  0  0  0
   10.1328   49.9648  133.3210 C   0  0  0  0  0  0  0  0  0  0  0  0
    9.6703   49.6005  132.0410 C   0  0  0  0  0  0  0  0  0  0  0  0
   10.1555   51.3699  133.6980 C   0  0  0  0  0  0  0  0  0  0  0  0
   11.1493   51.8867  134.2857 N   0  0  0  0  0  0  0  0  0  0  0  0
    9.0366   52.1865  133.4006 N   0  0  0  0  0  0  0  0  0  0  0  0
   11.9898   51.3664  134.5332 H   0  0  0  0  0  0  0  0  0  0  0  0
    8.5616   52.6786  134.1748 H   0  0  0  0  0  0  0  0  0  0  0  0
    8.7119   52.2797  132.4241 H   0  0  0  0  0  0  0  0  0  0  0  0
 17 18  1  0  0  0
 18 19  2  0  0  0
 18 20  1  0  0  0
 20 11  1  0  0  0
 11 12  2  0  0  0
 12 13  1  0  0  0
 13 14  2  0  0  0
 14 15  1  0  0  0
 15 10  1  0  0  0
 10  1  1  0  0  0
  1  2  2  0  0  0
  2  3  1  0  0  0
  3 22  1  0  0  0
 22 23  1  0  0  0
 23 24  2  0  0  0
 24 25  1  0  0  0
 25 26  2  0  0  0
 26 27  1  0  0  0
 27 29  1  0  0  0
 29 30  2  0  0  0
 29 31  1  0  0  0
 27 28  2  0  0  0
  3  4  2  0  0  0
  4  5  1  0  0  0
  4  6  1  0  0  0
  6  7  1  0  0  0
  6  8  2  0  0  0
  8  9  1  0  0  0
 15 16  2  0  0  0
 16 11  1  0  0  0
  8  1  1  0  0  0
 28 23  1  0  0  0
 20 21  1  0  0  0
 30 32  1  0  0  0
 31 33  1  0  0  0
 31 34  1  0  0  0
M  END
> <minimizedAffinity>
12.82567

> <CNNscore>
0.5245755315

> <CNNaffinity>
7.4656906128

> <CNN_VS>
3.9163186550

> <CNNaffinity_variance>
1.4191763401

$$$$
[H]N=C(c1c([H])c([H])c([H])c(Oc2nc(Oc3c([H])c([H])c([H])c(N([H])C(=O)C([H])([H])[H])c3[H])c(F)c(C([H])([H])[H])c2F)c1[H])N([H])[H]


 34 36  0  0  0  0  0  0  0  0999 V2000
    9.4155   45.7681  134.0397 C   0  0  0  0  0  0  0  0  0  0  0  0
    9.1370   45.0113  132.9508 N   0  0  0  0  0  0  0  0  0  0  0  0
    9.5723   43.7630  132.7633 C   0  0  0  0  0  0  0  0  0  0  0  0
   10.3622   43.1889  133.7379 C   0  0  0  0  0  0  0  0  0  0  0  0
   10.8172   41.9139  133.5657 F   0  0  0  0  0  0  0  0  0  0  0  0
   10.6902   43.8920  134.8742 C   0  0  0  0  0  0  0  0  0  0  0  0
   11.5381   43.2956  135.9363 C   0  0  0  0  0  0  0  0  0  0  0  0
   10.2057   45.1748  134.9999 C   0  0  0  0  0  0  0  0  0  0  0  0
   10.5598   45.8311  136.1454 F   0  0  0  0  0  0  0  0  0  0  0  0
    8.9353   47.0366  134.1618 O   0  0  0  0  0  0  0  0  0  0  0  0
    8.1291   49.0555  131.2051 C   0  0  0  0  0  0  0  0  0  0  0  0
    9.0995   50.0162  131.3490 C   0  0  0  0  0  0  0  0  0  0  0  0
   10.0146   50.0305  132.3828 C   0  0  0  0  0  0  0  0  0  0  0  0
    9.9817   49.0524  133.3306 C   0  0  0  0  0  0  0  0  0  0  0  0
    9.0335   48.0621  133.2422 C   0  0  0  0  0  0  0  0  0  0  0  0
    8.1381   48.0737  132.2049 C   0  0  0  0  0  0  0  0  0  0  0  0
    5.1845   49.5149  128.7467 C   0  0  0  0  0  0  0  0  0  0  0  0
    6.0644   49.7759  129.9330 C   0  0  0  0  0  0  0  0  0  0  0  0
    5.7257   50.7158  130.6612 O   0  0  0  0  0  0  0  0  0  0  0  0
    7.1803   48.9857  130.1607 N   0  0  0  0  0  0  0  0  0  0  0  0
    7.3755   48.1897  129.4551 H   0  0  0  0  0  0  0  0  0  0  0  0
    9.2281   43.0683  131.6042 O   0  0  0  0  0  0  0  0  0  0  0  0
    9.4889   43.5627  130.3410 C   0  0  0  0  0  0  0  0  0  0  0  0
    9.8180   42.7536  129.2620 C   0  0  0  0  0  0  0  0  0  0  0  0
   10.0684   43.2932  128.0247 C   0  0  0  0  0  0  0  0  0  0  0  0
    9.9985   44.6746  127.8190 C   0  0  0  0  0  0  0  0  0  0  0  0
    9.6774   45.4909  128.8625 C   0  0  0  0  0  0  0  0  0  0  0  0
    9.4252   44.9111  130.1216 C   0  0  0  0  0  0  0  0  0  0  0  0
    9.5883   46.9353  128.7117 C   0  0  0  0  0  0  0  0  0  0  0  0
    8.6047   47.4864  128.1379 N   0  0  0  0  0  0  0  0  0  0  0  0
   10.6285   47.7518  129.2200 N   0  0  0  0  0  0  0  0  0  0  0  0
    7.8188   46.9687  127.7471 H   0  0  0  0  0  0  0  0  0  0  0  0
   11.1215   48.3879  128.5723 H   0  0  0  0  0  0  0  0  0  0  0  0
   10.8796   47.7026  130.2210 H   0  0  0  0  0  0  0  0  0  0  0  0
 17 18  1  0  0  0
 18 19  2  0  0  0
 18 20  1  0  0  0
 20 11  1  0  0  0
 11 12  2  0  0  0
 12 13  1  0  0  0
 13 14  2  0  0  0
 14 15  1  0  0  0
 15 10  1  0  0  0
 10  1  1  0  0  0
  1  2  2  0  0  0
  2  3  1  0  0  0
  3 22  1  0  0  0
 22 23  1  0  0  0
 23 24  2  0  0  0
 24 25  1  0  0  0
 25 26  2  0  0  0
 26 27  1  0  0  0
 27 29  1  0  0  0
 29 30  2  0  0  0
 29 31  1  0  0  0
 27 28  2  0  0  0
  3  4  2  0  0  0
  4  5  1  0  0  0
  4  6  1  0  0  0
  6  7  1  0  0  0
  6  8  2  0  0  0
  8  9  1  0  0  0
 15 16  2  0  0  0
 16 11  1  0  0  0
  8  1  1  0  0  0
 28 23  1  0  0  0
 20 21  1  0  0  0
 30 32  1  0  0  0
 31 33  1  0  0  0
 31 34  1  0  0  0
M  END
> <minimizedAffinity>
-0.99801

> <CNNscore>
0.4641167819

> <CNNaffinity>
7.6084351540

> <CNN_VS>
3.5312025547

> <CNNaffinity_variance>
0.2730000913

$$$$
[H]N=C(c1c([H])c([H])c([H])c(Oc2nc(Oc3c([H])c([H])c([H])c(N([H])C(=O)C([H])([H])[H])c3[H])c(F)c(C([H])([H])[H])c2F)c1[H])N([H])[H]


 34 36  0  0  0  0  0  0  0  0999 V2000
    9.0639   44.4165  129.8415 C   0  0  0  0  0  0  0  0  0  0  0  0
    8.8566   44.6737  131.1556 N   0  0  0  0  0  0  0  0  0  0  0  0
    8.5083   43.7573  132.0620 C   0  0  0  0  0  0  0  0  0  0  0  0
    8.3441   42.4518  131.6474 C   0  0  0  0  0  0  0  0  0  0  0  0
    7.9885   41.4998  132.5583 F   0  0  0  0  0  0  0  0  0  0  0  0
    8.5362   42.1088  130.3289 C   0  0  0  0  0  0  0  0  0  0  0  0
    8.3656   40.7114  129.8592 C   0  0  0  0  0  0  0  0  0  0  0  0
    8.8943   43.1064  129.4498 C   0  0  0  0  0  0  0  0  0  0  0  0
    9.0726   42.7153  128.1523 F   0  0  0  0  0  0  0  0  0  0  0  0
    9.4180   45.4046  128.9739 O   0  0  0  0  0  0  0  0  0  0  0  0
    8.1002   48.7176  129.8437 C   0  0  0  0  0  0  0  0  0  0  0  0
    9.2618   49.4367  129.7057 C   0  0  0  0  0  0  0  0  0  0  0  0
   10.4688   48.8771  129.3364 C   0  0  0  0  0  0  0  0  0  0  0  0
   10.5480   47.5400  129.0878 C   0  0  0  0  0  0  0  0  0  0  0  0
    9.4197   46.7655  129.2090 C   0  0  0  0  0  0  0  0  0  0  0  0
    8.2355   47.3485  129.5770 C   0  0  0  0  0  0  0  0  0  0  0  0
    4.9187   50.8325  130.4183 C   0  0  0  0  0  0  0  0  0  0  0  0
    6.2926   50.4855  129.9267 C   0  0  0  0  0  0  0  0  0  0  0  0
    6.8741   51.3650  129.2810 O   0  0  0  0  0  0  0  0  0  0  0  0
    6.8386   49.2418  130.2032 N   0  0  0  0  0  0  0  0  0  0  0  0
    6.2356   48.5537  130.7799 H   0  0  0  0  0  0  0  0  0  0  0  0
    8.3186   44.1263  133.3934 O   0  0  0  0  0  0  0  0  0  0  0  0
    9.0458   45.1374  133.9910 C   0  0  0  0  0  0  0  0  0  0  0  0
    8.4804   46.0805  134.8385 C   0  0  0  0  0  0  0  0  0  0  0  0
    9.2461   47.0670  135.4090 C   0  0  0  0  0  0  0  0  0  0  0  0
   10.6180   47.1474  135.1505 C   0  0  0  0  0  0  0  0  0  0  0  0
   11.1973   46.2332  134.3217 C   0  0  0  0  0  0  0  0  0  0  0  0
   10.3887   45.2314  133.7496 C   0  0  0  0  0  0  0  0  0  0  0  0
   12.6192   46.2639  134.0145 C   0  0  0  0  0  0  0  0  0  0  0  0
   13.4867   46.5244  134.8976 N   0  0  0  0  0  0  0  0  0  0  0  0
   13.0496   45.9950  132.6918 N   0  0  0  0  0  0  0  0  0  0  0  0
   13.2571   46.7278  135.8693 H   0  0  0  0  0  0  0  0  0  0  0  0
   13.6115   46.7076  132.1983 H   0  0  0  0  0  0  0  0  0  0  0  0
   12.7995   45.0996  132.2407 H   0  0  0  0  0  0  0  0  0  0  0  0
 17 18  1  0  0  0
 18 19  2  0  0  0
 18 20  1  0  0  0
 20 11  1  0  0  0
 11 12  2  0  0  0
 12 13  1  0  0  0
 13 14  2  0  0  0
 14 15  1  0  0  0
 15 10  1  0  0  0
 10  1  1  0  0  0
  1  2  2  0  0  0
  2  3  1  0  0  0
  3 22  1  0  0  0
 22 23  1  0  0  0
 23 24  2  0  0  0
 24 25  1  0  0  0
 25 26  2  0  0  0
 26 27  1  0  0  0
 27 29  1  0  0  0
 29 30  2  0  0  0
 29 31  1  0  0  0
 27 28  2  0  0  0
  3  4  2  0  0  0
  4  5  1  0  0  0
  4  6  1  0  0  0
  6  7  1  0  0  0
  6  8  2  0  0  0
  8  9  1  0  0  0
 15 16  2  0  0  0
 16 11  1  0  0  0
  8  1  1  0  0  0
 28 23  1  0  0  0
 20 21  1  0  0  0
 30 32  1  0  0  0
 31 33  1  0  0  0
 31 34  1  0  0  0
M  END
> <minimizedAffinity>
6.58585

> <CNNscore>
0.4417949319

> <CNNaffinity>
7.6009430885

> <CNN_VS>
3.3580582142

> <CNNaffinity_variance>
1.4029940367

$$$$
[H]N=C(c1c([H])c([H])c([H])c(Oc2nc(Oc3c([H])c([H])c([H])c(N([H])C(=O)C([H])([H])[H])c3[H])c(F)c(C([H])([H])[H])c2F)c1[H])N([H])[H]


 34 36  0  0  0  0  0  0  0  0999 V2000
    9.2113   46.1543  133.9551 C   0  0  0  0  0  0  0  0  0  0  0  0
    8.8969   45.4021  132.8727 N   0  0  0  0  0  0  0  0  0  0  0  0
    9.2124   44.1129  132.7276 C   0  0  0  0  0  0  0  0  0  0  0  0
    9.9071   43.4878  133.7425 C   0  0  0  0  0  0  0  0  0  0  0  0
   10.2389   42.1704  133.6139 F   0  0  0  0  0  0  0  0  0  0  0  0
   10.2638   44.1828  134.8751 C   0  0  0  0  0  0  0  0  0  0  0  0
   11.0111   43.5320  135.9800 C   0  0  0  0  0  0  0  0  0  0  0  0
    9.9050   45.5097  134.9559 C   0  0  0  0  0  0  0  0  0  0  0  0
   10.2827   46.1558  136.0997 F   0  0  0  0  0  0  0  0  0  0  0  0
    8.8555   47.4665  134.0328 O   0  0  0  0  0  0  0  0  0  0  0  0
    7.9742   49.1983  130.9195 C   0  0  0  0  0  0  0  0  0  0  0  0
    8.9127   50.1991  130.9755 C   0  0  0  0  0  0  0  0  0  0  0  0
    9.8299   50.3314  131.9990 C   0  0  0  0  0  0  0  0  0  0  0  0
    9.8322   49.4372  133.0269 C   0  0  0  0  0  0  0  0  0  0  0  0
    8.9170   48.4125  133.0286 C   0  0  0  0  0  0  0  0  0  0  0  0
    8.0187   48.3062  131.9992 C   0  0  0  0  0  0  0  0  0  0  0  0
    5.6495   47.8863  128.1268 C   0  0  0  0  0  0  0  0  0  0  0  0
    6.7005   47.8536  129.1964 C   0  0  0  0  0  0  0  0  0  0  0  0
    7.2316   46.7557  129.3994 O   0  0  0  0  0  0  0  0  0  0  0  0
    7.0252   49.0087  129.8904 N   0  0  0  0  0  0  0  0  0  0  0  0
    6.4941   49.9122  129.6236 H   0  0  0  0  0  0  0  0  0  0  0  0
    8.8411   43.4272  131.5715 O   0  0  0  0  0  0  0  0  0  0  0  0
    9.5418   43.5424  130.3866 C   0  0  0  0  0  0  0  0  0  0  0  0
    8.9657   43.3350  129.1406 C   0  0  0  0  0  0  0  0  0  0  0  0
    9.7047   43.4619  127.9905 C   0  0  0  0  0  0  0  0  0  0  0  0
   11.0595   43.8039  128.0446 C   0  0  0  0  0  0  0  0  0  0  0  0
   11.6489   44.0128  129.2560 C   0  0  0  0  0  0  0  0  0  0  0  0
   10.8677   43.8761  130.4204 C   0  0  0  0  0  0  0  0  0  0  0  0
   13.0537   44.3713  129.3776 C   0  0  0  0  0  0  0  0  0  0  0  0
   13.7925   44.5271  128.3626 N   0  0  0  0  0  0  0  0  0  0  0  0
   13.6148   44.5525  130.6658 N   0  0  0  0  0  0  0  0  0  0  0  0
   13.4637   44.4149  127.4047 H   0  0  0  0  0  0  0  0  0  0  0  0
   14.4299   43.9788  130.9373 H   0  0  0  0  0  0  0  0  0  0  0  0
   13.2073   45.2482  131.3120 H   0  0  0  0  0  0  0  0  0  0  0  0
 17 18  1  0  0  0
 18 19  2  0  0  0
 18 20  1  0  0  0
 20 11  1  0  0  0
 11 12  2  0  0  0
 12 13  1  0  0  0
 13 14  2  0  0  0
 14 15  1  0  0  0
 15 10  1  0  0  0
 10  1  1  0  0  0
  1  2  2  0  0  0
  2  3  1  0  0  0
  3 22  1  0  0  0
 22 23  1  0  0  0
 23 24  2  0  0  0
 24 25  1  0  0  0
 25 26  2  0  0  0
 26 27  1  0  0  0
 27 29  1  0  0  0
 29 30  2  0  0  0
 29 31  1  0  0  0
 27 28  2  0  0  0
  3  4  2  0  0  0
  4  5  1  0  0  0
  4  6  1  0  0  0
  6  7  1  0  0  0
  6  8  2  0  0  0
  8  9  1  0  0  0
 15 16  2  0  0  0
 16 11  1  0  0  0
  8  1  1  0  0  0
 28 23  1  0  0  0
 20 21  1  0  0  0
 30 32  1  0  0  0
 31 33  1  0  0  0
 31 34  1  0  0  0
M  END
> <minimizedAffinity>
-3.24362

> <CNNscore>
0.4405262172

> <CNNaffinity>
7.7431030273

> <CNN_VS>
3.4110398293

> <CNNaffinity_variance>
0.5799661875

$$$$
[H]N=C(c1c([H])c([H])c([H])c(Oc2nc(Oc3c([H])c([H])c([H])c(N([H])C(=O)C([H])([H])[H])c3[H])c(F)c(C([H])([H])[H])c2F)c1[H])N([H])[H]


 34 36  0  0  0  0  0  0  0  0999 V2000
    9.0834   47.1583  133.2092 C   0  0  0  0  0  0  0  0  0  0  0  0
    9.3504   45.9178  132.7338 N   0  0  0  0  0  0  0  0  0  0  0  0
    9.7233   44.8807  133.4876 C   0  0  0  0  0  0  0  0  0  0  0  0
    9.8500   45.0690  134.8484 C   0  0  0  0  0  0  0  0  0  0  0  0
   10.2299   44.0217  135.6365 F   0  0  0  0  0  0  0  0  0  0  0  0
    9.5968   46.2996  135.4093 C   0  0  0  0  0  0  0  0  0  0  0  0
    9.7263   46.5264  136.8703 C   0  0  0  0  0  0  0  0  0  0  0  0
    9.2165   47.3234  134.5706 C   0  0  0  0  0  0  0  0  0  0  0  0
    8.9771   48.5254  135.1757 F   0  0  0  0  0  0  0  0  0  0  0  0
    8.7075   48.1693  132.3780 O   0  0  0  0  0  0  0  0  0  0  0  0
    7.4758   49.2101  129.0812 C   0  0  0  0  0  0  0  0  0  0  0  0
    6.9991   47.9953  128.6539 C   0  0  0  0  0  0  0  0  0  0  0  0
    7.0646   46.8399  129.4069 C   0  0  0  0  0  0  0  0  0  0  0  0
    7.6274   46.8702  130.6472 C   0  0  0  0  0  0  0  0  0  0  0  0
    8.1233   48.0564  131.1317 C   0  0  0  0  0  0  0  0  0  0  0  0
    8.0443   49.1873  130.3619 C   0  0  0  0  0  0  0  0  0  0  0  0
    7.0385   52.8389  127.8301 C   0  0  0  0  0  0  0  0  0  0  0  0
    7.0191   51.6803  128.7824 C   0  0  0  0  0  0  0  0  0  0  0  0
    6.6314   51.9296  129.9296 O   0  0  0  0  0  0  0  0  0  0  0  0
    7.4203   50.4229  128.3589 N   0  0  0  0  0  0  0  0  0  0  0  0
    7.7379   50.3252  127.3298 H   0  0  0  0  0  0  0  0  0  0  0  0
    9.9751   43.6420  132.8987 O   0  0  0  0  0  0  0  0  0  0  0  0
    9.8840   43.4395  131.5353 C   0  0  0  0  0  0  0  0  0  0  0  0
    9.0570   42.4821  130.9635 C   0  0  0  0  0  0  0  0  0  0  0  0
    9.0013   42.3192  129.6014 C   0  0  0  0  0  0  0  0  0  0  0  0
    9.7777   43.1149  128.7533 C   0  0  0  0  0  0  0  0  0  0  0  0
   10.5980   44.0622  129.2899 C   0  0  0  0  0  0  0  0  0  0  0  0
   10.6361   44.2085  130.6907 C   0  0  0  0  0  0  0  0  0  0  0  0
   11.4294   44.9210  128.4603 C   0  0  0  0  0  0  0  0  0  0  0  0
   10.9306   45.7004  127.5977 N   0  0  0  0  0  0  0  0  0  0  0  0
   12.8368   44.8878  128.6190 N   0  0  0  0  0  0  0  0  0  0  0  0
    9.9297   45.7816  127.4245 H   0  0  0  0  0  0  0  0  0  0  0  0
   13.4234   44.6607  127.7995 H   0  0  0  0  0  0  0  0  0  0  0  0
   13.2560   45.0887  129.5417 H   0  0  0  0  0  0  0  0  0  0  0  0
 17 18  1  0  0  0
 18 19  2  0  0  0
 18 20  1  0  0  0
 20 11  1  0  0  0
 11 12  2  0  0  0
 12 13  1  0  0  0
 13 14  2  0  0  0
 14 15  1  0  0  0
 15 10  1  0  0  0
 10  1  1  0  0  0
  1  2  2  0  0  0
  2  3  1  0  0  0
  3 22  1  0  0  0
 22 23  1  0  0  0
 23 24  2  0  0  0
 24 25  1  0  0  0
 25 26  2  0  0  0
 26 27  1  0  0  0
 27 29  1  0  0  0
 29 30  2  0  0  0
 29 31  1  0  0  0
 27 28  2  0  0  0
  3  4  2  0  0  0
  4  5  1  0  0  0
  4  6  1  0  0  0
  6  7  1  0  0  0
  6  8  2  0  0  0
  8  9  1  0  0  0
 15 16  2  0  0  0
 16 11  1  0  0  0
  8  1  1  0  0  0
 28 23  1  0  0  0
 20 21  1  0  0  0
 30 32  1  0  0  0
 31 33  1  0  0  0
 31 34  1  0  0  0
M  END
> <minimizedAffinity>
-1.12933

> <CNNscore>
0.4340079129

> <CNNaffinity>
7.6356415749

> <CNN_VS>
3.3139288425

> <CNNaffinity_variance>
0.4927150607

$$$$
[H]N=C(c1c([H])c([H])c([H])c(Oc2nc(Oc3c([H])c([H])c([H])c(N([H])C(=O)C([H])([H])[H])c3[H])c(F)c(C([H])([H])[H])c2F)c1[H])N([H])[H]


 34 36  0  0  0  0  0  0  0  0999 V2000
    7.9124   46.1352  132.4675 C   0  0  0  0  0  0  0  0  0  0  0  0
    7.8884   46.2902  131.1216 N   0  0  0  0  0  0  0  0  0  0  0  0
    7.8500   47.4684  130.4945 C   0  0  0  0  0  0  0  0  0  0  0  0
    7.8335   48.6184  131.2563 C   0  0  0  0  0  0  0  0  0  0  0  0
    7.7946   49.8326  130.6347 F   0  0  0  0  0  0  0  0  0  0  0  0
    7.8560   48.5459  132.6301 C   0  0  0  0  0  0  0  0  0  0  0  0
    7.8390   49.7689  133.4707 C   0  0  0  0  0  0  0  0  0  0  0  0
    7.8952   47.2968  133.2083 C   0  0  0  0  0  0  0  0  0  0  0  0
    7.9156   47.2781  134.5749 F   0  0  0  0  0  0  0  0  0  0  0  0
    7.9511   44.8989  133.0371 O   0  0  0  0  0  0  0  0  0  0  0  0
   11.3186   44.4191  134.4149 C   0  0  0  0  0  0  0  0  0  0  0  0
   11.3255   43.0464  134.4512 C   0  0  0  0  0  0  0  0  0  0  0  0
   10.2643   42.2649  134.0397 C   0  0  0  0  0  0  0  0  0  0  0  0
    9.1315   42.8552  133.5660 C   0  0  0  0  0  0  0  0  0  0  0  0
    9.0627   44.2260  133.5049 C   0  0  0  0  0  0  0  0  0  0  0  0
   10.1317   44.9760  133.9202 C   0  0  0  0  0  0  0  0  0  0  0  0
   14.6855   46.2148  135.0187 C   0  0  0  0  0  0  0  0  0  0  0  0
   13.7239   45.2006  134.4741 C   0  0  0  0  0  0  0  0  0  0  0  0
   14.2094   44.3387  133.7325 O   0  0  0  0  0  0  0  0  0  0  0  0
   12.3802   45.2639  134.8085 N   0  0  0  0  0  0  0  0  0  0  0  0
   12.0716   46.0631  135.4686 H   0  0  0  0  0  0  0  0  0  0  0  0
    7.8278   47.5193  129.1011 O   0  0  0  0  0  0  0  0  0  0  0  0
    8.7062   46.7930  128.3207 C   0  0  0  0  0  0  0  0  0  0  0  0
    9.3631   47.3261  127.2200 C   0  0  0  0  0  0  0  0  0  0  0  0
   10.2280   46.5629  126.4753 C   0  0  0  0  0  0  0  0  0  0  0  0
   10.4699   45.2262  126.8071 C   0  0  0  0  0  0  0  0  0  0  0  0
    9.8371   44.6789  127.8834 C   0  0  0  0  0  0  0  0  0  0  0  0
    8.9548   45.4842  128.6303 C   0  0  0  0  0  0  0  0  0  0  0  0
   10.0476   43.2948  128.2791 C   0  0  0  0  0  0  0  0  0  0  0  0
   10.6019   42.9914  129.3751 N   0  0  0  0  0  0  0  0  0  0  0  0
    9.6218   42.2540  127.4175 N   0  0  0  0  0  0  0  0  0  0  0  0
   10.9348   43.6812  130.0472 H   0  0  0  0  0  0  0  0  0  0  0  0
   10.3178   41.5639  127.0910 H   0  0  0  0  0  0  0  0  0  0  0  0
    8.6314   42.1973  127.1284 H   0  0  0  0  0  0  0  0  0  0  0  0
 17 18  1  0  0  0
 18 19  2  0  0  0
 18 20  1  0  0  0
 20 11  1  0  0  0
 11 12  2  0  0  0
 12 13  1  0  0  0
 13 14  2  0  0  0
 14 15  1  0  0  0
 15 10  1  0  0  0
 10  1  1  0  0  0
  1  2  2  0  0  0
  2  3  1  0  0  0
  3 22  1  0  0  0
 22 23  1  0  0  0
 23 24  2  0  0  0
 24 25  1  0  0  0
 25 26  2  0  0  0
 26 27  1  0  0  0
 27 29  1  0  0  0
 29 30  2  0  0  0
 29 31  1  0  0  0
 27 28  2  0  0  0
  3  4  2  0  0  0
  4  5  1  0  0  0
  4  6  1  0  0  0
  6  7  1  0  0  0
  6  8  2  0  0  0
  8  9  1  0  0  0
 15 16  2  0  0  0
 16 11  1  0  0  0
  8  1  1  0  0  0
 28 23  1  0  0  0
 20 21  1  0  0  0
 30 32  1  0  0  0
 31 33  1  0  0  0
 31 34  1  0  0  0
M  END
> <minimizedAffinity>
21.70829

> <CNNscore>
0.4088737071

> <CNNaffinity>
7.3043699265

> <CNN_VS>
2.9865648746

> <CNNaffinity_variance>
2.4574959278

$$$$
[H]N=C(c1c([H])c([H])c([H])c(Oc2nc(Oc3c([H])c([H])c([H])c(N([H])C(=O)C([H])([H])[H])c3[H])c(F)c(C([H])([H])[H])c2F)c1[H])N([H])[H]


 34 36  0  0  0  0  0  0  0  0999 V2000
    9.0494   48.0181  132.3434 C   0  0  0  0  0  0  0  0  0  0  0  0
    8.7739   46.8812  131.6596 N   0  0  0  0  0  0  0  0  0  0  0  0
    8.7458   45.6600  132.1986 C   0  0  0  0  0  0  0  0  0  0  0  0
    9.0135   45.5296  133.5456 C   0  0  0  0  0  0  0  0  0  0  0  0
    8.9896   44.2900  134.1160 F   0  0  0  0  0  0  0  0  0  0  0  0
    9.3025   46.6364  134.3102 C   0  0  0  0  0  0  0  0  0  0  0  0
    9.5937   46.5212  135.7609 C   0  0  0  0  0  0  0  0  0  0  0  0
    9.3138   47.8642  133.6869 C   0  0  0  0  0  0  0  0  0  0  0  0
    9.6066   48.9317  134.4887 F   0  0  0  0  0  0  0  0  0  0  0  0
    9.0600   49.2313  131.7250 O   0  0  0  0  0  0  0  0  0  0  0  0
    6.0414   49.3165  129.6395 C   0  0  0  0  0  0  0  0  0  0  0  0
    6.2619   50.5212  129.0187 C   0  0  0  0  0  0  0  0  0  0  0  0
    7.3673   51.3135  129.2566 C   0  0  0  0  0  0  0  0  0  0  0  0
    8.3117   50.9083  130.1510 C   0  0  0  0  0  0  0  0  0  0  0  0
    8.1483   49.7115  130.8055 C   0  0  0  0  0  0  0  0  0  0  0  0
    7.0410   48.9460  130.5491 C   0  0  0  0  0  0  0  0  0  0  0  0
    3.5459   46.3844  129.3223 C   0  0  0  0  0  0  0  0  0  0  0  0
    4.8300   47.0956  129.6307 C   0  0  0  0  0  0  0  0  0  0  0  0
    5.7467   46.3911  130.0686 O   0  0  0  0  0  0  0  0  0  0  0  0
    4.9379   48.4617  129.4220 N   0  0  0  0  0  0  0  0  0  0  0  0
    4.0682   48.9731  129.0325 H   0  0  0  0  0  0  0  0  0  0  0  0
    8.4507   44.5515  131.4056 O   0  0  0  0  0  0  0  0  0  0  0  0
    9.2429   44.1737  130.3389 C   0  0  0  0  0  0  0  0  0  0  0  0
    8.7362   43.5872  129.1871 C   0  0  0  0  0  0  0  0  0  0  0  0
    9.5653   43.2294  128.1530 C   0  0  0  0  0  0  0  0  0  0  0  0
   10.9443   43.4468  128.2334 C   0  0  0  0  0  0  0  0  0  0  0  0
   11.4668   44.0211  129.3539 C   0  0  0  0  0  0  0  0  0  0  0  0
   10.5937   44.3787  130.4002 C   0  0  0  0  0  0  0  0  0  0  0  0
   12.8925   44.2736  129.4970 C   0  0  0  0  0  0  0  0  0  0  0  0
   13.5674   44.8254  128.5803 N   0  0  0  0  0  0  0  0  0  0  0  0
   13.5480   43.8934  130.6941 N   0  0  0  0  0  0  0  0  0  0  0  0
   13.1692   45.1271  127.6922 H   0  0  0  0  0  0  0  0  0  0  0  0
   14.3507   43.2456  130.6361 H   0  0  0  0  0  0  0  0  0  0  0  0
   13.2199   44.2639  131.6011 H   0  0  0  0  0  0  0  0  0  0  0  0
 17 18  1  0  0  0
 18 19  2  0  0  0
 18 20  1  0  0  0
 20 11  1  0  0  0
 11 12  2  0  0  0
 12 13  1  0  0  0
 13 14  2  0  0  0
 14 15  1  0  0  0
 15 10  1  0  0  0
 10  1  1  0  0  0
  1  2  2  0  0  0
  2  3  1  0  0  0
  3 22  1  0  0  0
 22 23  1  0  0  0
 23 24  2  0  0  0
 24 25  1  0  0  0
 25 26  2  0  0  0
 26 27  1  0  0  0
 27 29  1  0  0  0
 29 30  2  0  0  0
 29 31  1  0  0  0
 27 28  2  0  0  0
  3  4  2  0  0  0
  4  5  1  0  0  0
  4  6  1  0  0  0
  6  7  1  0  0  0
  6  8  2  0  0  0
  8  9  1  0  0  0
 15 16  2  0  0  0
 16 11  1  0  0  0
  8  1  1  0  0  0
 28 23  1  0  0  0
 20 21  1  0  0  0
 30 32  1  0  0  0
 31 33  1  0  0  0
 31 34  1  0  0  0
M  END
> <minimizedAffinity>
0.35086

> <CNNscore>
0.4085259438

> <CNNaffinity>
7.4588880539

> <CNN_VS>
3.0471491814

> <CNNaffinity_variance>
0.5121259093

$$$$
[H]N=C(c1c([H])c([H])c([H])c(Oc2nc(Oc3c([H])c([H])c([H])c(N([H])C(=O)C([H])([H])[H])c3[H])c(F)c(C([H])([H])[H])c2F)c1[H])N([H])[H]


 34 36  0  0  0  0  0  0  0  0999 V2000
   11.5601   44.7486  130.2198 C   0  0  0  0  0  0  0  0  0  0  0  0
   10.9849   45.9102  130.6148 N   0  0  0  0  0  0  0  0  0  0  0  0
   10.3103   46.7346  129.8098 C   0  0  0  0  0  0  0  0  0  0  0  0
   10.1806   46.3939  128.4792 C   0  0  0  0  0  0  0  0  0  0  0  0
    9.4946   47.2229  127.6398 F   0  0  0  0  0  0  0  0  0  0  0  0
   10.7362   45.2303  127.9993 C   0  0  0  0  0  0  0  0  0  0  0  0
   10.6099   44.8427  126.5723 C   0  0  0  0  0  0  0  0  0  0  0  0
   11.4181   44.4286  128.8872 C   0  0  0  0  0  0  0  0  0  0  0  0
   11.9517   43.2850  128.3618 F   0  0  0  0  0  0  0  0  0  0  0  0
   12.2341   43.9574  131.0995 O   0  0  0  0  0  0  0  0  0  0  0  0
   10.2937   42.8110  133.9960 C   0  0  0  0  0  0  0  0  0  0  0  0
   11.1669   43.1927  134.9846 C   0  0  0  0  0  0  0  0  0  0  0  0
   12.3748   43.8152  134.7401 C   0  0  0  0  0  0  0  0  0  0  0  0
   12.7533   44.0805  133.4585 C   0  0  0  0  0  0  0  0  0  0  0  0
   11.9227   43.7226  132.4244 C   0  0  0  0  0  0  0  0  0  0  0  0
   10.7297   43.1062  132.6973 C   0  0  0  0  0  0  0  0  0  0  0  0
    6.7006   41.4099  133.7693 C   0  0  0  0  0  0  0  0  0  0  0  0
    7.9433   42.1364  133.3478 C   0  0  0  0  0  0  0  0  0  0  0  0
    7.9080   42.6653  132.2308 O   0  0  0  0  0  0  0  0  0  0  0  0
    9.0418   42.1865  134.1917 N   0  0  0  0  0  0  0  0  0  0  0  0
    8.9550   41.6875  135.1472 H   0  0  0  0  0  0  0  0  0  0  0  0
    9.7551   47.9091  130.3168 O   0  0  0  0  0  0  0  0  0  0  0  0
    8.4754   48.3197  129.9975 C   0  0  0  0  0  0  0  0  0  0  0  0
    7.3852   47.4603  129.9766 C   0  0  0  0  0  0  0  0  0  0  0  0
    6.1317   47.9170  129.6529 C   0  0  0  0  0  0  0  0  0  0  0  0
    5.9202   49.2622  129.3350 C   0  0  0  0  0  0  0  0  0  0  0  0
    6.9743   50.1265  129.3481 C   0  0  0  0  0  0  0  0  0  0  0  0
    8.2500   49.6317  129.6839 C   0  0  0  0  0  0  0  0  0  0  0  0
    6.8182   51.5370  129.0274 C   0  0  0  0  0  0  0  0  0  0  0  0
    6.9535   51.9714  127.8469 N   0  0  0  0  0  0  0  0  0  0  0  0
    6.5058   52.4536  130.0614 N   0  0  0  0  0  0  0  0  0  0  0  0
    7.1774   51.3764  127.0506 H   0  0  0  0  0  0  0  0  0  0  0  0
    7.1414   53.2510  130.2266 H   0  0  0  0  0  0  0  0  0  0  0  0
    5.6555   52.3160  130.6322 H   0  0  0  0  0  0  0  0  0  0  0  0
 17 18  1  0  0  0
 18 19  2  0  0  0
 18 20  1  0  0  0
 20 11  1  0  0  0
 11 12  2  0  0  0
 12 13  1  0  0  0
 13 14  2  0  0  0
 14 15  1  0  0  0
 15 10  1  0  0  0
 10  1  1  0  0  0
  1  2  2  0  0  0
  2  3  1  0  0  0
  3 22  1  0  0  0
 22 23  1  0  0  0
 23 24  2  0  0  0
 24 25  1  0  0  0
 25 26  2  0  0  0
 26 27  1  0  0  0
 27 29  1  0  0  0
 29 30  2  0  0  0
 29 31  1  0  0  0
 27 28  2  0  0  0
  3  4  2  0  0  0
  4  5  1  0  0  0
  4  6  1  0  0  0
  6  7  1  0  0  0
  6  8  2  0  0  0
  8  9  1  0  0  0
 15 16  2  0  0  0
 16 11  1  0  0  0
  8  1  1  0  0  0
 28 23  1  0  0  0
 20 21  1  0  0  0
 30 32  1  0  0  0
 31 33  1  0  0  0
 31 34  1  0  0  0
M  END
> <minimizedAffinity>
4.18452

> <CNNscore>
0.4047207534

> <CNNaffinity>
7.3326616287

> <CNN_VS>
2.9676804543

> <CNNaffinity_variance>
1.2750344276

$$$$
[H]c1c([H])c(C(N=[N+]=[N-])(C([H])([H])[H])C([H])([H])[H])c(Cl)c([H])c1C(F)(F)F


 17 17  0  0  0  0  0  0  0  0999 V2000
    8.8911   47.1576  130.7300 C   0  0  0  0  0  0  0  0  0  0  0  0
    8.2316   46.3718  129.7611 C   0  0  0  0  0  0  0  0  0  0  0  0
    8.2524   45.0278  130.0075 C   0  0  0  0  0  0  0  0  0  0  0  0
    8.8360   44.3844  131.0377 C   0  0  0  0  0  0  0  0  0  0  0  0
    9.4999   45.1855  132.0002 C   0  0  0  0  0  0  0  0  0  0  0  0
    9.5079   46.5745  131.8183 C   0  0  0  0  0  0  0  0  0  0  0  0
   10.3635   47.5740  133.0094 Cl  0  0  0  0  0  0  0  0  0  0  0  0
    8.8007   42.9155  131.2624 C   0  0  0  0  0  0  0  0  0  0  0  0
   10.0756   42.3605  131.3510 F   0  0  0  0  0  0  0  0  0  0  0  0
    8.0383   42.2806  130.3392 F   0  0  0  0  0  0  0  0  0  0  0  0
    8.2500   42.6245  132.5186 F   0  0  0  0  0  0  0  0  0  0  0  0
    8.3427   49.1982  132.0099 C   0  0  0  0  0  0  0  0  0  0  0  0
    8.8402   48.6420  130.6338 C   0  0  0  0  0  0  0  0  0  0  0  0
   10.1608   49.2834  130.3912 C   0  0  0  0  0  0  0  0  0  0  0  0
    7.8826   49.0748  129.6434 N   0  0  0  0  0  0  0  0  0  0  0  0
    7.4338   50.1963  129.6885 N   0  0  0  0  0  0  0  0  0  0  0  0
    6.6711   51.0739  129.1681 N   0  0  0  0  0  0  0  0  0  0  0  0
 12 13  1  0  0  0
 13 14  1  0  0  0
 13 15  1  0  0  0
 15 16  2  0  0  0
 16 17  2  0  0  0
 13  1  1  0  0  0
  1  2  2  0  0  0
  2  3  1  0  0  0
  3  4  2  0  0  0
  4  8  1  0  0  0
  8  9  1  0  0  0
  8 10  1  0  0  0
  8 11  1  0  0  0
  4  5  1  0  0  0
  5  6  2  0  0  0
  6  7  1  0  0  0
  6  1  1  0  0  0
M  CHG 1  16   1
M  CHG 1  17  -1
M  END
> <minimizedAffinity>
-6.39000

> <CNNscore>
0.7707513571

> <CNNaffinity>
6.7564020157

> <CNN_VS>
5.2075061798

> <CNNaffinity_variance>
0.1827266514

$$$$
[H]c1c([H])c(C(N=[N+]=[N-])(C([H])([H])[H])C([H])([H])[H])c(Cl)c([H])c1C(F)(F)F


 17 17  0  0  0  0  0  0  0  0999 V2000
    9.0592   46.5314  131.4082 C   0  0  0  0  0  0  0  0  0  0  0  0
    9.7177   47.2567  132.4238 C   0  0  0  0  0  0  0  0  0  0  0  0
   10.5952   46.5220  133.1707 C   0  0  0  0  0  0  0  0  0  0  0  0
   10.8791   45.2095  133.0600 C   0  0  0  0  0  0  0  0  0  0  0  0
   10.2062   44.4921  132.0396 C   0  0  0  0  0  0  0  0  0  0  0  0
    9.3004   45.1847  131.2260 C   0  0  0  0  0  0  0  0  0  0  0  0
    8.4377   44.2790  129.9669 Cl  0  0  0  0  0  0  0  0  0  0  0  0
   11.8667   44.4724  133.8911 C   0  0  0  0  0  0  0  0  0  0  0  0
   12.5248   43.4746  133.1751 F   0  0  0  0  0  0  0  0  0  0  0  0
   11.3111   43.9916  135.0299 F   0  0  0  0  0  0  0  0  0  0  0  0
   12.9160   45.3201  134.2736 F   0  0  0  0  0  0  0  0  0  0  0  0
    8.8761   47.2799  129.0611 C   0  0  0  0  0  0  0  0  0  0  0  0
    8.1651   47.2440  130.4552 C   0  0  0  0  0  0  0  0  0  0  0  0
    6.8577   46.5716  130.2260 C   0  0  0  0  0  0  0  0  0  0  0  0
    7.9606   48.6180  130.8495 N   0  0  0  0  0  0  0  0  0  0  0  0
    7.2271   49.3282  130.2021 N   0  0  0  0  0  0  0  0  0  0  0  0
    6.6869   50.4725  130.0566 N   0  0  0  0  0  0  0  0  0  0  0  0
 12 13  1  0  0  0
 13 14  1  0  0  0
 13 15  1  0  0  0
 15 16  2  0  0  0
 16 17  2  0  0  0
 13  1  1  0  0  0
  1  2  2  0  0  0
  2  3  1  0  0  0
  3  4  2  0  0  0
  4  8  1  0  0  0
  8  9  1  0  0  0
  8 10  1  0  0  0
  8 11  1  0  0  0
  4  5  1  0  0  0
  5  6  2  0  0  0
  6  7  1  0  0  0
  6  1  1  0  0  0
M  CHG 1  16   1
M  CHG 1  17  -1
M  END
> <minimizedAffinity>
-6.88297

> <CNNscore>
0.7366859913

> <CNNaffinity>
6.7956938744

> <CNN_VS>
5.0062923431

> <CNNaffinity_variance>
0.2519286871

$$$$
[H]c1c([H])c(C(N=[N+]=[N-])(C([H])([H])[H])C([H])([H])[H])c(Cl)c([H])c1C(F)(F)F


 17 17  0  0  0  0  0  0  0  0999 V2000
    9.6357   44.7854  130.8769 C   0  0  0  0  0  0  0  0  0  0  0  0
   10.0448   45.9445  130.1837 C   0  0  0  0  0  0  0  0  0  0  0  0
    9.8699   47.1116  130.8726 C   0  0  0  0  0  0  0  0  0  0  0  0
    9.3444   47.2756  132.1025 C   0  0  0  0  0  0  0  0  0  0  0  0
    8.9323   46.1036  132.7849 C   0  0  0  0  0  0  0  0  0  0  0  0
    9.0937   44.8689  132.1434 C   0  0  0  0  0  0  0  0  0  0  0  0
    8.5514   43.4050  132.9877 Cl  0  0  0  0  0  0  0  0  0  0  0  0
    9.2043   48.5758  132.8092 C   0  0  0  0  0  0  0  0  0  0  0  0
    8.5210   48.4534  134.0172 F   0  0  0  0  0  0  0  0  0  0  0  0
    8.6559   49.5269  132.0146 F   0  0  0  0  0  0  0  0  0  0  0  0
   10.4597   49.0528  133.2123 F   0  0  0  0  0  0  0  0  0  0  0  0
    8.5074   42.6956  130.1968 C   0  0  0  0  0  0  0  0  0  0  0  0
    9.8795   43.4445  130.2787 C   0  0  0  0  0  0  0  0  0  0  0  0
   10.4034   43.4836  128.8865 C   0  0  0  0  0  0  0  0  0  0  0  0
   10.7388   42.6408  131.1159 N   0  0  0  0  0  0  0  0  0  0  0  0
   11.6730   43.1522  131.6878 N   0  0  0  0  0  0  0  0  0  0  0  0
   12.6609   43.0104  132.4793 N   0  0  0  0  0  0  0  0  0  0  0  0
 12 13  1  0  0  0
 13 14  1  0  0  0
 13 15  1  0  0  0
 15 16  2  0  0  0
 16 17  2  0  0  0
 13  1  1  0  0  0
  1  2  2  0  0  0
  2  3  1  0  0  0
  3  4  2  0  0  0
  4  8  1  0  0  0
  8  9  1  0  0  0
  8 10  1  0  0  0
  8 11  1  0  0  0
  4  5  1  0  0  0
  5  6  2  0  0  0
  6  7  1  0  0  0
  6  1  1  0  0  0
M  CHG 1  16   1
M  CHG 1  17  -1
M  END
> <minimizedAffinity>
-6.34061

> <CNNscore>
0.6707625985

> <CNNaffinity>
6.6808919907

> <CNN_VS>
4.4812922478

> <CNNaffinity_variance>
0.1427214146

$$$$
[H]c1c([H])c(C(N=[N+]=[N-])(C([H])([H])[H])C([H])([H])[H])c(Cl)c([H])c1C(F)(F)F


 17 17  0  0  0  0  0  0  0  0999 V2000
    9.6852   47.1139  131.2388 C   0  0  0  0  0  0  0  0  0  0  0  0
    9.7707   45.7839  130.7753 C   0  0  0  0  0  0  0  0  0  0  0  0
   10.2554   44.8920  131.6902 C   0  0  0  0  0  0  0  0  0  0  0  0
   10.6691   45.1398  132.9485 C   0  0  0  0  0  0  0  0  0  0  0  0
   10.5832   46.4809  133.3989 C   0  0  0  0  0  0  0  0  0  0  0  0
   10.0830   47.4480  132.5175 C   0  0  0  0  0  0  0  0  0  0  0  0
   10.0022   49.1315  133.0734 Cl  0  0  0  0  0  0  0  0  0  0  0  0
   11.1645   44.1164  133.9059 C   0  0  0  0  0  0  0  0  0  0  0  0
   10.4825   42.9068  133.7912 F   0  0  0  0  0  0  0  0  0  0  0  0
   11.1653   44.5750  135.1812 F   0  0  0  0  0  0  0  0  0  0  0  0
   12.4844   43.7561  133.5994 F   0  0  0  0  0  0  0  0  0  0  0  0
   10.1254   49.2889  130.1533 C   0  0  0  0  0  0  0  0  0  0  0  0
    9.0673   48.1569  130.3752 C   0  0  0  0  0  0  0  0  0  0  0  0
    8.6927   47.6804  129.0163 C   0  0  0  0  0  0  0  0  0  0  0  0
    7.9327   48.7736  131.0212 N   0  0  0  0  0  0  0  0  0  0  0  0
    7.3303   49.6610  130.4635 N   0  0  0  0  0  0  0  0  0  0  0  0
    6.3630   50.4895  130.4899 N   0  0  0  0  0  0  0  0  0  0  0  0
 12 13  1  0  0  0
 13 14  1  0  0  0
 13 15  1  0  0  0
 15 16  2  0  0  0
 16 17  2  0  0  0
 13  1  1  0  0  0
  1  2  2  0  0  0
  2  3  1  0  0  0
  3  4  2  0  0  0
  4  8  1  0  0  0
  8  9  1  0  0  0
  8 10  1  0  0  0
  8 11  1  0  0  0
  4  5  1  0  0  0
  5  6  2  0  0  0
  6  7  1  0  0  0
  6  1  1  0  0  0
M  CHG 1  16   1
M  CHG 1  17  -1
M  END
> <minimizedAffinity>
-6.36869

> <CNNscore>
0.6570307016

> <CNNaffinity>
6.5874643326

> <CNN_VS>
4.3281664848

> <CNNaffinity_variance>
0.2375005186

$$$$
[H]c1c([H])c(C(N=[N+]=[N-])(C([H])([H])[H])C([H])([H])[H])c(Cl)c([H])c1C(F)(F)F


 17 17  0  0  0  0  0  0  0  0999 V2000
    9.6265   45.0808  131.7292 C   0  0  0  0  0  0  0  0  0  0  0  0
    8.3369   45.6535  131.7448 C   0  0  0  0  0  0  0  0  0  0  0  0
    8.3197   47.0191  131.6979 C   0  0  0  0  0  0  0  0  0  0  0  0
    9.3727   47.8590  131.6595 C   0  0  0  0  0  0  0  0  0  0  0  0
   10.6620   47.2704  131.6501 C   0  0  0  0  0  0  0  0  0  0  0  0
   10.7556   45.8731  131.6838 C   0  0  0  0  0  0  0  0  0  0  0  0
   12.3710   45.1384  131.7004 Cl  0  0  0  0  0  0  0  0  0  0  0  0
    9.2857   49.3410  131.5839 C   0  0  0  0  0  0  0  0  0  0  0  0
    9.8122   49.9628  132.7141 F   0  0  0  0  0  0  0  0  0  0  0  0
    8.0245   49.7609  131.3197 F   0  0  0  0  0  0  0  0  0  0  0  0
   10.1037   49.8286  130.5548 F   0  0  0  0  0  0  0  0  0  0  0  0
   10.7339   43.1593  132.8174 C   0  0  0  0  0  0  0  0  0  0  0  0
    9.7748   43.6013  131.6619 C   0  0  0  0  0  0  0  0  0  0  0  0
    8.5082   42.8507  131.8773 C   0  0  0  0  0  0  0  0  0  0  0  0
   10.3990   43.1885  130.4270 N   0  0  0  0  0  0  0  0  0  0  0  0
    9.7707   43.2176  129.3947 N   0  0  0  0  0  0  0  0  0  0  0  0
    9.7565   43.0251  128.1356 N   0  0  0  0  0  0  0  0  0  0  0  0
 12 13  1  0  0  0
 13 14  1  0  0  0
 13 15  1  0  0  0
 15 16  2  0  0  0
 16 17  2  0  0  0
 13  1  1  0  0  0
  1  2  2  0  0  0
  2  3  1  0  0  0
  3  4  2  0  0  0
  4  8  1  0  0  0
  8  9  1  0  0  0
  8 10  1  0  0  0
  8 11  1  0  0  0
  4  5  1  0  0  0
  5  6  2  0  0  0
  6  7  1  0  0  0
  6  1  1  0  0  0
M  CHG 1  16   1
M  CHG 1  17  -1
M  END
> <minimizedAffinity>
-7.12114

> <CNNscore>
0.6091309190

> <CNNaffinity>
6.6635513306

> <CNN_VS>
4.0589752197

> <CNNaffinity_variance>
0.0921569467

$$$$
[H]c1c([H])c(C(N=[N+]=[N-])(C([H])([H])[H])C([H])([H])[H])c(Cl)c([H])c1C(F)(F)F


 17 17  0  0  0  0  0  0  0  0999 V2000
    9.6809   47.2417  131.6494 C   0  0  0  0  0  0  0  0  0  0  0  0
   10.3525   46.8440  132.8250 C   0  0  0  0  0  0  0  0  0  0  0  0
   10.7024   45.5235  132.8620 C   0  0  0  0  0  0  0  0  0  0  0  0
   10.4651   44.5783  131.9314 C   0  0  0  0  0  0  0  0  0  0  0  0
    9.7846   44.9904  130.7584 C   0  0  0  0  0  0  0  0  0  0  0  0
    9.4062   46.3345  130.6463 C   0  0  0  0  0  0  0  0  0  0  0  0
    8.5295   46.8429  129.1893 Cl  0  0  0  0  0  0  0  0  0  0  0  0
   10.8960   43.1586  132.0214 C   0  0  0  0  0  0  0  0  0  0  0  0
   10.7147   42.4710  130.8232 F   0  0  0  0  0  0  0  0  0  0  0  0
   10.3121   42.5177  133.0630 F   0  0  0  0  0  0  0  0  0  0  0  0
   12.2822   43.0780  132.2160 F   0  0  0  0  0  0  0  0  0  0  0  0
    9.7595   49.4609  132.7319 C   0  0  0  0  0  0  0  0  0  0  0  0
    9.3488   48.6775  131.4404 C   0  0  0  0  0  0  0  0  0  0  0  0
   10.0931   49.3195  130.3233 C   0  0  0  0  0  0  0  0  0  0  0  0
    7.9277   48.8723  131.2742 N   0  0  0  0  0  0  0  0  0  0  0  0
    7.5184   49.8271  130.6559 N   0  0  0  0  0  0  0  0  0  0  0  0
    6.5156   50.4673  130.2009 N   0  0  0  0  0  0  0  0  0  0  0  0
 12 13  1  0  0  0
 13 14  1  0  0  0
 13 15  1  0  0  0
 15 16  2  0  0  0
 16 17  2  0  0  0
 13  1  1  0  0  0
  1  2  2  0  0  0
  2  3  1  0  0  0
  3  4  2  0  0  0
  4  8  1  0  0  0
  8  9  1  0  0  0
  8 10  1  0  0  0
  8 11  1  0  0  0
  4  5  1  0  0  0
  5  6  2  0  0  0
  6  7  1  0  0  0
  6  1  1  0  0  0
M  CHG 1  16   1
M  CHG 1  17  -1
M  END
> <minimizedAffinity>
-6.53925

> <CNNscore>
0.6087874174

> <CNNaffinity>
6.6587052345

> <CNN_VS>
4.0537357330

> <CNNaffinity_variance>
0.3372729719

$$$$
[H]c1c([H])c(C(N=[N+]=[N-])(C([H])([H])[H])C([H])([H])[H])c(Cl)c([H])c1C(F)(F)F


 17 17  0  0  0  0  0  0  0  0999 V2000
   10.3405   44.5699  130.3077 C   0  0  0  0  0  0  0  0  0  0  0  0
   11.4790   45.3652  130.5577 C   0  0  0  0  0  0  0  0  0  0  0  0
   12.0055   45.2279  131.8113 C   0  0  0  0  0  0  0  0  0  0  0  0
   11.5568   44.4509  132.8166 C   0  0  0  0  0  0  0  0  0  0  0  0
   10.4092   43.6618  132.5535 C   0  0  0  0  0  0  0  0  0  0  0  0
    9.8232   43.7425  131.2837 C   0  0  0  0  0  0  0  0  0  0  0  0
    8.3698   42.7751  130.9649 Cl  0  0  0  0  0  0  0  0  0  0  0  0
   12.1925   44.3271  134.1545 C   0  0  0  0  0  0  0  0  0  0  0  0
   13.2657   43.4385  134.1530 F   0  0  0  0  0  0  0  0  0  0  0  0
   11.2889   44.0236  135.1179 F   0  0  0  0  0  0  0  0  0  0  0  0
   12.7954   45.5375  134.5251 F   0  0  0  0  0  0  0  0  0  0  0  0
   10.5020   45.5965  128.0666 C   0  0  0  0  0  0  0  0  0  0  0  0
    9.7438   44.5453  128.9443 C   0  0  0  0  0  0  0  0  0  0  0  0
    9.8918   43.2447  128.2369 C   0  0  0  0  0  0  0  0  0  0  0  0
    8.3577   44.9496  128.9668 N   0  0  0  0  0  0  0  0  0  0  0  0
    8.0535   46.0354  129.4025 N   0  0  0  0  0  0  0  0  0  0  0  0
    7.1306   46.8784  129.6481 N   0  0  0  0  0  0  0  0  0  0  0  0
 12 13  1  0  0  0
 13 14  1  0  0  0
 13 15  1  0  0  0
 15 16  2  0  0  0
 16 17  2  0  0  0
 13  1  1  0  0  0
  1  2  2  0  0  0
  2  3  1  0  0  0
  3  4  2  0  0  0
  4  8  1  0  0  0
  8  9  1  0  0  0
  8 10  1  0  0  0
  8 11  1  0  0  0
  4  5  1  0  0  0
  5  6  2  0  0  0
  6  7  1  0  0  0
  6  1  1  0  0  0
M  CHG 1  16   1
M  CHG 1  17  -1
M  END
> <minimizedAffinity>
-5.97744

> <CNNscore>
0.5885317922

> <CNNaffinity>
6.4058318138

> <CNN_VS>
3.7700357437

> <CNNaffinity_variance>
0.3698276281

$$$$
[H]c1c([H])c(C(N=[N+]=[N-])(C([H])([H])[H])C([H])([H])[H])c(Cl)c([H])c1C(F)(F)F


 17 17  0  0  0  0  0  0  0  0999 V2000
    9.0838   47.1677  131.0516 C   0  0  0  0  0  0  0  0  0  0  0  0
    9.7323   46.3392  131.9921 C   0  0  0  0  0  0  0  0  0  0  0  0
    9.7807   45.0174  131.6488 C   0  0  0  0  0  0  0  0  0  0  0  0
    9.2725   44.4293  130.5481 C   0  0  0  0  0  0  0  0  0  0  0  0
    8.6188   45.2723  129.6149 C   0  0  0  0  0  0  0  0  0  0  0  0
    8.5425   46.6425  129.8957 C   0  0  0  0  0  0  0  0  0  0  0  0
    7.6991   47.6925  128.7399 Cl  0  0  0  0  0  0  0  0  0  0  0  0
    9.3813   42.9836  130.2201 C   0  0  0  0  0  0  0  0  0  0  0  0
    8.1573   42.3242  130.3112 F   0  0  0  0  0  0  0  0  0  0  0  0
   10.3402   42.3689  130.9546 F   0  0  0  0  0  0  0  0  0  0  0  0
    9.7247   42.8109  128.8717 F   0  0  0  0  0  0  0  0  0  0  0  0
    9.6298   48.9369  132.6870 C   0  0  0  0  0  0  0  0  0  0  0  0
    9.0661   48.6418  131.2568 C   0  0  0  0  0  0  0  0  0  0  0  0
    9.9341   49.3993  130.3151 C   0  0  0  0  0  0  0  0  0  0  0  0
    7.7198   49.1631  131.2283 N   0  0  0  0  0  0  0  0  0  0  0  0
    7.4519   50.1021  130.5157 N   0  0  0  0  0  0  0  0  0  0  0  0
    6.5661   50.9089  130.0832 N   0  0  0  0  0  0  0  0  0  0  0  0
 12 13  1  0  0  0
 13 14  1  0  0  0
 13 15  1  0  0  0
 15 16  2  0  0  0
 16 17  2  0  0  0
 13  1  1  0  0  0
  1  2  2  0  0  0
  2  3  1  0  0  0
  3  4  2  0  0  0
  4  8  1  0  0  0
  8  9  1  0  0  0
  8 10  1  0  0  0
  8 11  1  0  0  0
  4  5  1  0  0  0
  5  6  2  0  0  0
  6  7  1  0  0  0
  6  1  1  0  0  0
M  CHG 1  16   1
M  CHG 1  17  -1
M  END
> <minimizedAffinity>
-6.88936

> <CNNscore>
0.5753005147

> <CNNaffinity>
6.5540175438

> <CNN_VS>
3.7705297470

> <CNNaffinity_variance>
0.2004494965

$$$$
[H]c1c([H])c(C(N=[N+]=[N-])(C([H])([H])[H])C([H])([H])[H])c(Cl)c([H])c1C(F)(F)F


 17 17  0  0  0  0  0  0  0  0999 V2000
    9.2506   45.2923  130.9478 C   0  0  0  0  0  0  0  0  0  0  0  0
    8.5280   45.4060  132.1545 C   0  0  0  0  0  0  0  0  0  0  0  0
    9.2575   45.1498  133.2814 C   0  0  0  0  0  0  0  0  0  0  0  0
   10.5534   44.7900  133.3641 C   0  0  0  0  0  0  0  0  0  0  0  0
   11.2654   44.6738  132.1440 C   0  0  0  0  0  0  0  0  0  0  0  0
   10.5836   44.9346  130.9485 C   0  0  0  0  0  0  0  0  0  0  0  0
   11.4690   44.7614  129.4201 Cl  0  0  0  0  0  0  0  0  0  0  0  0
   11.2978   44.5492  134.6279 C   0  0  0  0  0  0  0  0  0  0  0  0
   11.4834   43.1925  134.8853 F   0  0  0  0  0  0  0  0  0  0  0  0
   10.7297   45.1880  135.6794 F   0  0  0  0  0  0  0  0  0  0  0  0
   12.6124   45.0251  134.5212 F   0  0  0  0  0  0  0  0  0  0  0  0
    9.3680   46.8787  129.0577 C   0  0  0  0  0  0  0  0  0  0  0  0
    8.5976   45.6568  129.6609 C   0  0  0  0  0  0  0  0  0  0  0  0
    8.6542   44.5906  128.6245 C   0  0  0  0  0  0  0  0  0  0  0  0
    7.2344   46.0879  129.8636 N   0  0  0  0  0  0  0  0  0  0  0  0
    6.7941   47.0151  129.2251 N   0  0  0  0  0  0  0  0  0  0  0  0
    5.7999   47.7662  128.9606 N   0  0  0  0  0  0  0  0  0  0  0  0
 12 13  1  0  0  0
 13 14  1  0  0  0
 13 15  1  0  0  0
 15 16  2  0  0  0
 16 17  2  0  0  0
 13  1  1  0  0  0
  1  2  2  0  0  0
  2  3  1  0  0  0
  3  4  2  0  0  0
  4  8  1  0  0  0
  8  9  1  0  0  0
  8 10  1  0  0  0
  8 11  1  0  0  0
  4  5  1  0  0  0
  5  6  2  0  0  0
  6  7  1  0  0  0
  6  1  1  0  0  0
M  CHG 1  16   1
M  CHG 1  17  -1
M  END
> <minimizedAffinity>
-5.69586

> <CNNscore>
0.5660026073

> <CNNaffinity>
6.6321058273

> <CNN_VS>
3.7537891865

> <CNNaffinity_variance>
0.4308183193

$$$$
[H]c1c([H])c(C([H])([H])OC([H])([H])C2([H])C([H])([H])C([H])([H])N(C([H])([H])C([H])([H])C([H])([H])C([H])([H])C([H])([H])[H])C([H])([H])C2([H])[H])c([H])c([H])c1F


 21 22  0  0  0  0  0  0  0  0999 V2000
   10.7408   43.1086  133.1335 N   0  0  0  0  0  0  0  0  0  0  0  0
    9.3686   43.4204  133.0423 C   0  0  0  0  0  0  0  0  0  0  0  0
    8.7071   43.2121  131.7346 C   0  0  0  0  0  0  0  0  0  0  0  0
    9.5242   43.9552  130.6845 C   0  0  0  0  0  0  0  0  0  0  0  0
   10.8637   43.2518  130.6682 C   0  0  0  0  0  0  0  0  0  0  0  0
   11.5392   43.1826  131.9823 C   0  0  0  0  0  0  0  0  0  0  0  0
   11.2871   43.7746  134.2877 C   0  0  0  0  0  0  0  0  0  0  0  0
   10.6663   45.0898  134.5975 C   0  0  0  0  0  0  0  0  0  0  0  0
   11.2062   46.1899  133.7194 C   0  0  0  0  0  0  0  0  0  0  0  0
    8.9010   46.8910  134.1728 C   0  0  0  0  0  0  0  0  0  0  0  0
   10.1851   47.2717  133.4779 C   0  0  0  0  0  0  0  0  0  0  0  0
    8.9040   43.8187  129.3141 C   0  0  0  0  0  0  0  0  0  0  0  0
    8.4938   45.0716  128.8544 O   0  0  0  0  0  0  0  0  0  0  0  0
    9.4143   46.0383  129.2505 C   0  0  0  0  0  0  0  0  0  0  0  0
    8.6725   47.3085  129.5180 C   0  0  0  0  0  0  0  0  0  0  0  0
    9.3035   48.3981  130.0904 C   0  0  0  0  0  0  0  0  0  0  0  0
    8.6416   49.5812  130.3475 C   0  0  0  0  0  0  0  0  0  0  0  0
    7.3044   49.7180  130.0361 C   0  0  0  0  0  0  0  0  0  0  0  0
    6.6264   50.8777  130.2803 F   0  0  0  0  0  0  0  0  0  0  0  0
    6.6694   48.6353  129.4653 C   0  0  0  0  0  0  0  0  0  0  0  0
    7.3357   47.4411  129.2053 C   0  0  0  0  0  0  0  0  0  0  0  0
 10 11  1  0  0  0
 11  9  1  0  0  0
  9  8  1  0  0  0
  8  7  1  0  0  0
  7  1  1  0  0  0
  1  2  1  0  0  0
  2  3  1  0  0  0
  3  4  1  0  0  0
  4 12  1  0  0  0
 12 13  1  0  0  0
 13 14  1  0  0  0
 14 15  1  0  0  0
 15 16  2  0  0  0
 16 17  1  0  0  0
 17 18  2  0  0  0
 18 19  1  0  0  0
 18 20  1  0  0  0
 20 21  2  0  0  0
  4  5  1  0  0  0
  5  6  1  0  0  0
  6  1  1  0  0  0
 21 15  1  0  0  0
M  END
> <minimizedAffinity>
-7.32874

> <CNNscore>
0.5159426928

> <CNNaffinity>
6.9767789841

> <CNN_VS>
3.5996181965

> <CNNaffinity_variance>
0.0808760151

$$$$
[H]c1c([H])c(C([H])([H])OC([H])([H])C2([H])C([H])([H])C([H])([H])N(C([H])([H])C([H])([H])C([H])([H])C([H])([H])C([H])([H])[H])C([H])([H])C2([H])[H])c([H])c([H])c1F


 21 22  0  0  0  0  0  0  0  0999 V2000
   10.8461   43.4469  132.9487 N   0  0  0  0  0  0  0  0  0  0  0  0
   11.8862   44.3760  132.7404 C   0  0  0  0  0  0  0  0  0  0  0  0
   11.8027   45.6663  133.4610 C   0  0  0  0  0  0  0  0  0  0  0  0
   10.4376   46.2724  133.1584 C   0  0  0  0  0  0  0  0  0  0  0  0
    9.4432   45.3098  133.7701 C   0  0  0  0  0  0  0  0  0  0  0  0
    9.5707   43.9124  133.3022 C   0  0  0  0  0  0  0  0  0  0  0  0
   10.8600   42.4929  131.8698 C   0  0  0  0  0  0  0  0  0  0  0  0
   11.0216   43.0880  130.5167 C   0  0  0  0  0  0  0  0  0  0  0  0
    9.7364   43.0576  129.7292 C   0  0  0  0  0  0  0  0  0  0  0  0
   11.0166   44.7856  128.5518 C   0  0  0  0  0  0  0  0  0  0  0  0
    9.8398   43.8468  128.4495 C   0  0  0  0  0  0  0  0  0  0  0  0
   10.2737   47.6123  133.8359 C   0  0  0  0  0  0  0  0  0  0  0  0
    9.3085   48.3658  133.1651 O   0  0  0  0  0  0  0  0  0  0  0  0
    9.7371   48.6225  131.8655 C   0  0  0  0  0  0  0  0  0  0  0  0
    8.5959   48.3592  130.9362 C   0  0  0  0  0  0  0  0  0  0  0  0
    8.2637   47.0706  130.5588 C   0  0  0  0  0  0  0  0  0  0  0  0
    7.2155   46.8010  129.7028 C   0  0  0  0  0  0  0  0  0  0  0  0
    6.4510   47.8270  129.1864 C   0  0  0  0  0  0  0  0  0  0  0  0
    5.4087   47.5872  128.3376 F   0  0  0  0  0  0  0  0  0  0  0  0
    6.7771   49.1140  129.5587 C   0  0  0  0  0  0  0  0  0  0  0  0
    7.8340   49.3876  130.4220 C   0  0  0  0  0  0  0  0  0  0  0  0
 10 11  1  0  0  0
 11  9  1  0  0  0
  9  8  1  0  0  0
  8  7  1  0  0  0
  7  1  1  0  0  0
  1  2  1  0  0  0
  2  3  1  0  0  0
  3  4  1  0  0  0
  4 12  1  0  0  0
 12 13  1  0  0  0
 13 14  1  0  0  0
 14 15  1  0  0  0
 15 16  2  0  0  0
 16 17  1  0  0  0
 17 18  2  0  0  0
 18 19  1  0  0  0
 18 20  1  0  0  0
 20 21  2  0  0  0
  4  5  1  0  0  0
  5  6  1  0  0  0
  6  1  1  0  0  0
 21 15  1  0  0  0
M  END
> <minimizedAffinity>
-7.67134

> <CNNscore>
0.5029581785

> <CNNaffinity>
6.9560418129

> <CNN_VS>
3.4985980988

> <CNNaffinity_variance>
0.0787838995

$$$$
[H]c1c([H])c(C([H])([H])OC([H])([H])C2([H])C([H])([H])C([H])([H])N(C([H])([H])C([H])([H])C([H])([H])C([H])([H])C([H])([H])[H])C([H])([H])C2([H])[H])c([H])c([H])c1F


 21 22  0  0  0  0  0  0  0  0999 V2000
    9.0386   48.2068  132.0576 N   0  0  0  0  0  0  0  0  0  0  0  0
    8.6584   46.8782  131.7775 C   0  0  0  0  0  0  0  0  0  0  0  0
    8.9279   45.8582  132.8159 C   0  0  0  0  0  0  0  0  0  0  0  0
   10.4041   45.9561  133.1818 C   0  0  0  0  0  0  0  0  0  0  0  0
   10.5591   47.3290  133.7985 C   0  0  0  0  0  0  0  0  0  0  0  0
   10.1019   48.4446  132.9415 C   0  0  0  0  0  0  0  0  0  0  0  0
    9.1146   48.9338  130.8167 C   0  0  0  0  0  0  0  0  0  0  0  0
    8.1672   50.0746  130.7063 C   0  0  0  0  0  0  0  0  0  0  0  0
    6.9479   49.7195  129.8938 C   0  0  0  0  0  0  0  0  0  0  0  0
    6.1174   47.6244  128.9284 C   0  0  0  0  0  0  0  0  0  0  0  0
    7.2365   48.6358  128.8871 C   0  0  0  0  0  0  0  0  0  0  0  0
   10.7771   44.9274  134.2229 C   0  0  0  0  0  0  0  0  0  0  0  0
   10.8962   43.6716  133.6246 O   0  0  0  0  0  0  0  0  0  0  0  0
   11.9183   43.6999  132.6797 C   0  0  0  0  0  0  0  0  0  0  0  0
   11.3008   43.6210  131.3204 C   0  0  0  0  0  0  0  0  0  0  0  0
   11.8331   44.3192  130.2516 C   0  0  0  0  0  0  0  0  0  0  0  0
   11.2822   44.2633  128.9877 C   0  0  0  0  0  0  0  0  0  0  0  0
   10.1621   43.4950  128.7449 C   0  0  0  0  0  0  0  0  0  0  0  0
    9.5976   43.4226  127.5037 F   0  0  0  0  0  0  0  0  0  0  0  0
    9.6265   42.7965  129.8063 C   0  0  0  0  0  0  0  0  0  0  0  0
   10.1810   42.8519  131.0818 C   0  0  0  0  0  0  0  0  0  0  0  0
 10 11  1  0  0  0
 11  9  1  0  0  0
  9  8  1  0  0  0
  8  7  1  0  0  0
  7  1  1  0  0  0
  1  2  1  0  0  0
  2  3  1  0  0  0
  3  4  1  0  0  0
  4 12  1  0  0  0
 12 13  1  0  0  0
 13 14  1  0  0  0
 14 15  1  0  0  0
 15 16  2  0  0  0
 16 17  1  0  0  0
 17 18  2  0  0  0
 18 19  1  0  0  0
 18 20  1  0  0  0
 20 21  2  0  0  0
  4  5  1  0  0  0
  5  6  1  0  0  0
  6  1  1  0  0  0
 21 15  1  0  0  0
M  END
> <minimizedAffinity>
-7.87625

> <CNNscore>
0.4786059260

> <CNNaffinity>
6.9895772934

> <CNN_VS>
3.3452532291

> <CNNaffinity_variance>
0.0567419119

$$$$
[H]c1c([H])c(C([H])([H])OC([H])([H])C2([H])C([H])([H])C([H])([H])N(C([H])([H])C([H])([H])C([H])([H])C([H])([H])C([H])([H])[H])C([H])([H])C2([H])[H])c([H])c([H])c1F


 21 22  0  0  0  0  0  0  0  0999 V2000
    8.9356   45.2789  129.2362 N   0  0  0  0  0  0  0  0  0  0  0  0
   10.2069   45.7860  129.5753 C   0  0  0  0  0  0  0  0  0  0  0  0
   11.2288   44.8166  130.0305 C   0  0  0  0  0  0  0  0  0  0  0  0
   10.6204   44.0124  131.1732 C   0  0  0  0  0  0  0  0  0  0  0  0
    9.4754   43.2503  130.5426 C   0  0  0  0  0  0  0  0  0  0  0  0
    8.4852   44.0957  129.8407 C   0  0  0  0  0  0  0  0  0  0  0  0
    7.9882   46.3633  129.2580 C   0  0  0  0  0  0  0  0  0  0  0  0
    8.3953   47.5270  130.0894 C   0  0  0  0  0  0  0  0  0  0  0  0
    7.4109   48.6644  129.9895 C   0  0  0  0  0  0  0  0  0  0  0  0
    9.4160   49.7176  130.9283 C   0  0  0  0  0  0  0  0  0  0  0  0
    8.0101   49.9709  130.4427 C   0  0  0  0  0  0  0  0  0  0  0  0
   11.6084   43.0098  131.7208 C   0  0  0  0  0  0  0  0  0  0  0  0
   12.2322   43.5326  132.8551 O   0  0  0  0  0  0  0  0  0  0  0  0
   11.3312   43.5511  133.9164 C   0  0  0  0  0  0  0  0  0  0  0  0
   10.5891   44.8484  133.8772 C   0  0  0  0  0  0  0  0  0  0  0  0
    9.2137   44.8900  134.0177 C   0  0  0  0  0  0  0  0  0  0  0  0
    8.5056   46.0739  133.9851 C   0  0  0  0  0  0  0  0  0  0  0  0
    9.1586   47.2763  133.8080 C   0  0  0  0  0  0  0  0  0  0  0  0
    8.4815   48.4615  133.7719 F   0  0  0  0  0  0  0  0  0  0  0  0
   10.5299   47.2417  133.6671 C   0  0  0  0  0  0  0  0  0  0  0  0
   11.2457   46.0484  133.6998 C   0  0  0  0  0  0  0  0  0  0  0  0
 10 11  1  0  0  0
 11  9  1  0  0  0
  9  8  1  0  0  0
  8  7  1  0  0  0
  7  1  1  0  0  0
  1  2  1  0  0  0
  2  3  1  0  0  0
  3  4  1  0  0  0
  4 12  1  0  0  0
 12 13  1  0  0  0
 13 14  1  0  0  0
 14 15  1  0  0  0
 15 16  2  0  0  0
 16 17  1  0  0  0
 17 18  2  0  0  0
 18 19  1  0  0  0
 18 20  1  0  0  0
 20 21  2  0  0  0
  4  5  1  0  0  0
  5  6  1  0  0  0
  6  1  1  0  0  0
 21 15  1  0  0  0
M  END
> <minimizedAffinity>
-7.03071

> <CNNscore>
0.4383988380

> <CNNaffinity>
6.9526734352

> <CNN_VS>
3.0480439663

> <CNNaffinity_variance>
0.1696214527

$$$$
[H]c1c([H])c(C([H])([H])OC([H])([H])C2([H])C([H])([H])C([H])([H])N(C([H])([H])C([H])([H])C([H])([H])C([H])([H])C([H])([H])[H])C([H])([H])C2([H])[H])c([H])c([H])c1F


 21 22  0  0  0  0  0  0  0  0999 V2000
    9.9969   44.2747  132.3389 N   0  0  0  0  0  0  0  0  0  0  0  0
    8.6790   44.7057  132.5951 C   0  0  0  0  0  0  0  0  0  0  0  0
    8.4507   46.1626  132.7243 C   0  0  0  0  0  0  0  0  0  0  0  0
    9.4281   46.6884  133.7687 C   0  0  0  0  0  0  0  0  0  0  0  0
   10.7970   46.4634  133.1648 C   0  0  0  0  0  0  0  0  0  0  0  0
   11.0733   45.0655  132.7682 C   0  0  0  0  0  0  0  0  0  0  0  0
   10.0994   42.8806  132.6856 C   0  0  0  0  0  0  0  0  0  0  0  0
    9.6111   42.5422  134.0488 C   0  0  0  0  0  0  0  0  0  0  0  0
    8.9941   41.1678  134.1027 C   0  0  0  0  0  0  0  0  0  0  0  0
    6.7209   41.5828  133.2834 C   0  0  0  0  0  0  0  0  0  0  0  0
    7.5403   41.2167  134.4964 C   0  0  0  0  0  0  0  0  0  0  0  0
    9.2475   48.1721  133.9863 C   0  0  0  0  0  0  0  0  0  0  0  0
   10.0442   48.8819  133.0859 O   0  0  0  0  0  0  0  0  0  0  0  0
    9.2461   49.4184  132.0790 C   0  0  0  0  0  0  0  0  0  0  0  0
    9.1500   48.4156  130.9743 C   0  0  0  0  0  0  0  0  0  0  0  0
   10.2795   47.7961  130.4707 C   0  0  0  0  0  0  0  0  0  0  0  0
   10.2177   46.8675  129.4518 C   0  0  0  0  0  0  0  0  0  0  0  0
    9.0051   46.5208  128.8924 C   0  0  0  0  0  0  0  0  0  0  0  0
    8.9167   45.6050  127.8834 F   0  0  0  0  0  0  0  0  0  0  0  0
    7.8752   47.1348  129.3900 C   0  0  0  0  0  0  0  0  0  0  0  0
    7.9358   48.0717  130.4177 C   0  0  0  0  0  0  0  0  0  0  0  0
 10 11  1  0  0  0
 11  9  1  0  0  0
  9  8  1  0  0  0
  8  7  1  0  0  0
  7  1  1  0  0  0
  1  2  1  0  0  0
  2  3  1  0  0  0
  3  4  1  0  0  0
  4 12  1  0  0  0
 12 13  1  0  0  0
 13 14  1  0  0  0
 14 15  1  0  0  0
 15 16  2  0  0  0
 16 17  1  0  0  0
 17 18  2  0  0  0
 18 19  1  0  0  0
 18 20  1  0  0  0
 20 21  2  0  0  0
  4  5  1  0  0  0
  5  6  1  0  0  0
  6  1  1  0  0  0
 21 15  1  0  0  0
M  END
> <minimizedAffinity>
2.80554

> <CNNscore>
0.4307917058

> <CNNaffinity>
7.0722913742

> <CNN_VS>
3.0466845036

> <CNNaffinity_variance>
1.8210300207

$$$$
[H]c1c([H])c(C([H])([H])OC([H])([H])C2([H])C([H])([H])C([H])([H])N(C([H])([H])C([H])([H])C([H])([H])C([H])([H])C([H])([H])[H])C([H])([H])C2([H])[H])c([H])c([H])c1F


 21 22  0  0  0  0  0  0  0  0999 V2000
    8.1883   47.0853  129.6248 N   0  0  0  0  0  0  0  0  0  0  0  0
    7.3887   45.9789  129.9781 C   0  0  0  0  0  0  0  0  0  0  0  0
    8.0834   44.7220  130.3366 C   0  0  0  0  0  0  0  0  0  0  0  0
    9.0384   44.3855  129.1976 C   0  0  0  0  0  0  0  0  0  0  0  0
   10.0471   45.5132  129.1932 C   0  0  0  0  0  0  0  0  0  0  0  0
    9.4593   46.8652  129.0730 C   0  0  0  0  0  0  0  0  0  0  0  0
    7.3742   48.0278  128.9015 C   0  0  0  0  0  0  0  0  0  0  0  0
    7.6710   49.4557  129.1914 C   0  0  0  0  0  0  0  0  0  0  0  0
    7.7463   49.7274  130.6724 C   0  0  0  0  0  0  0  0  0  0  0  0
    9.5333   49.0827  132.2222 C   0  0  0  0  0  0  0  0  0  0  0  0
    9.1519   50.0382  131.1184 C   0  0  0  0  0  0  0  0  0  0  0  0
    9.7756   43.0952  129.4674 C   0  0  0  0  0  0  0  0  0  0  0  0
    9.4685   42.6350  130.7493 O   0  0  0  0  0  0  0  0  0  0  0  0
   10.6335   42.5534  131.5074 C   0  0  0  0  0  0  0  0  0  0  0  0
   10.7586   43.8092  132.3088 C   0  0  0  0  0  0  0  0  0  0  0  0
    9.7733   44.1884  133.2024 C   0  0  0  0  0  0  0  0  0  0  0  0
    9.8648   45.3423  133.9537 C   0  0  0  0  0  0  0  0  0  0  0  0
   10.9623   46.1701  133.8355 C   0  0  0  0  0  0  0  0  0  0  0  0
   11.0772   47.3172  134.5672 F   0  0  0  0  0  0  0  0  0  0  0  0
   11.9482   45.7977  132.9463 C   0  0  0  0  0  0  0  0  0  0  0  0
   11.8574   44.6342  132.1878 C   0  0  0  0  0  0  0  0  0  0  0  0
 10 11  1  0  0  0
 11  9  1  0  0  0
  9  8  1  0  0  0
  8  7  1  0  0  0
  7  1  1  0  0  0
  1  2  1  0  0  0
  2  3  1  0  0  0
  3  4  1  0  0  0
  4 12  1  0  0  0
 12 13  1  0  0  0
 13 14  1  0  0  0
 14 15  1  0  0  0
 15 16  2  0  0  0
 16 17  1  0  0  0
 17 18  2  0  0  0
 18 19  1  0  0  0
 18 20  1  0  0  0
 20 21  2  0  0  0
  4  5  1  0  0  0
  5  6  1  0  0  0
  6  1  1  0  0  0
 21 15  1  0  0  0
M  END
> <minimizedAffinity>
-7.04297

> <CNNscore>
0.4159480035

> <CNNaffinity>
6.9199333191

> <CNN_VS>
2.8783323765

> <CNNaffinity_variance>
0.1006548405

$$$$
[H]c1c([H])c(C([H])([H])OC([H])([H])C2([H])C([H])([H])C([H])([H])N(C([H])([H])C([H])([H])C([H])([H])C([H])([H])C([H])([H])[H])C([H])([H])C2([H])[H])c([H])c([H])c1F


 21 22  0  0  0  0  0  0  0  0999 V2000
    7.6008   46.5840  132.3739 N   0  0  0  0  0  0  0  0  0  0  0  0
    8.3859   45.9498  131.3892 C   0  0  0  0  0  0  0  0  0  0  0  0
    9.1316   44.7352  131.7892 C   0  0  0  0  0  0  0  0  0  0  0  0
    9.9533   45.0880  133.0233 C   0  0  0  0  0  0  0  0  0  0  0  0
    8.9297   45.4029  134.0921 C   0  0  0  0  0  0  0  0  0  0  0  0
    7.9593   46.4570  133.7243 C   0  0  0  0  0  0  0  0  0  0  0  0
    7.3320   47.9332  131.9478 C   0  0  0  0  0  0  0  0  0  0  0  0
    8.3065   48.4804  130.9670 C   0  0  0  0  0  0  0  0  0  0  0  0
    8.9219   49.7718  131.4427 C   0  0  0  0  0  0  0  0  0  0  0  0
   10.3045   50.9076  133.1189 C   0  0  0  0  0  0  0  0  0  0  0  0
    9.6175   49.6103  132.7699 C   0  0  0  0  0  0  0  0  0  0  0  0
   10.7721   43.9073  133.4888 C   0  0  0  0  0  0  0  0  0  0  0  0
   11.9422   43.8164  132.7325 O   0  0  0  0  0  0  0  0  0  0  0  0
   12.2086   45.0457  132.1354 C   0  0  0  0  0  0  0  0  0  0  0  0
   12.0373   44.8947  130.6579 C   0  0  0  0  0  0  0  0  0  0  0  0
   13.1132   44.6014  129.8396 C   0  0  0  0  0  0  0  0  0  0  0  0
   12.9817   44.4571  128.4736 C   0  0  0  0  0  0  0  0  0  0  0  0
   11.7502   44.6033  127.8689 C   0  0  0  0  0  0  0  0  0  0  0  0
   11.5931   44.4656  126.5196 F   0  0  0  0  0  0  0  0  0  0  0  0
   10.6734   44.8958  128.6792 C   0  0  0  0  0  0  0  0  0  0  0  0
   10.8045   45.0417  130.0572 C   0  0  0  0  0  0  0  0  0  0  0  0
 10 11  1  0  0  0
 11  9  1  0  0  0
  9  8  1  0  0  0
  8  7  1  0  0  0
  7  1  1  0  0  0
  1  2  1  0  0  0
  2  3  1  0  0  0
  3  4  1  0  0  0
  4 12  1  0  0  0
 12 13  1  0  0  0
 13 14  1  0  0  0
 14 15  1  0  0  0
 15 16  2  0  0  0
 16 17  1  0  0  0
 17 18  2  0  0  0
 18 19  1  0  0  0
 18 20  1  0  0  0
 20 21  2  0  0  0
  4  5  1  0  0  0
  5  6  1  0  0  0
  6  1  1  0  0  0
 21 15  1  0  0  0
M  END
> <minimizedAffinity>
1.57574

> <CNNscore>
0.4135136008

> <CNNaffinity>
6.8316373825

> <CNN_VS>
2.8249750137

> <CNNaffinity_variance>
1.0061061382

$$$$
[H]c1c([H])c(C([H])([H])OC([H])([H])C2([H])C([H])([H])C([H])([H])N(C([H])([H])C([H])([H])C([H])([H])C([H])([H])C([H])([H])[H])C([H])([H])C2([H])[H])c([H])c([H])c1F


 21 22  0  0  0  0  0  0  0  0999 V2000
   10.5336   45.1088  126.4359 N   0  0  0  0  0  0  0  0  0  0  0  0
   11.0091   46.2136  127.1719 C   0  0  0  0  0  0  0  0  0  0  0  0
   11.1948   46.0333  128.6294 C   0  0  0  0  0  0  0  0  0  0  0  0
    9.8836   45.5017  129.1959 C   0  0  0  0  0  0  0  0  0  0  0  0
    9.7100   44.1413  128.5569 C   0  0  0  0  0  0  0  0  0  0  0  0
    9.7395   44.1468  127.0781 C   0  0  0  0  0  0  0  0  0  0  0  0
   10.0059   45.5847  125.1832 C   0  0  0  0  0  0  0  0  0  0  0  0
   10.6754   45.0303  123.9767 C   0  0  0  0  0  0  0  0  0  0  0  0
   11.9945   45.7064  123.7019 C   0  0  0  0  0  0  0  0  0  0  0  0
   13.2947   43.7795  124.4814 C   0  0  0  0  0  0  0  0  0  0  0  0
   13.0670   44.7182  123.3221 C   0  0  0  0  0  0  0  0  0  0  0  0
    9.9732   45.3116  130.6915 C   0  0  0  0  0  0  0  0  0  0  0  0
    9.0934   46.1859  131.3323 O   0  0  0  0  0  0  0  0  0  0  0  0
    8.3670   45.4931  132.2971 C   0  0  0  0  0  0  0  0  0  0  0  0
    9.3288   44.9431  133.3010 C   0  0  0  0  0  0  0  0  0  0  0  0
   10.0495   43.7908  133.0441 C   0  0  0  0  0  0  0  0  0  0  0  0
   10.9429   43.2629  133.9536 C   0  0  0  0  0  0  0  0  0  0  0  0
   11.1499   43.8787  135.1708 C   0  0  0  0  0  0  0  0  0  0  0  0
   12.0281   43.3768  136.0881 F   0  0  0  0  0  0  0  0  0  0  0  0
   10.4344   45.0279  135.4331 C   0  0  0  0  0  0  0  0  0  0  0  0
    9.5328   45.5617  134.5168 C   0  0  0  0  0  0  0  0  0  0  0  0
 10 11  1  0  0  0
 11  9  1  0  0  0
  9  8  1  0  0  0
  8  7  1  0  0  0
  7  1  1  0  0  0
  1  2  1  0  0  0
  2  3  1  0  0  0
  3  4  1  0  0  0
  4 12  1  0  0  0
 12 13  1  0  0  0
 13 14  1  0  0  0
 14 15  1  0  0  0
 15 16  2  0  0  0
 16 17  1  0  0  0
 17 18  2  0  0  0
 18 19  1  0  0  0
 18 20  1  0  0  0
 20 21  2  0  0  0
  4  5  1  0  0  0
  5  6  1  0  0  0
  6  1  1  0  0  0
 21 15  1  0  0  0
M  END
> <minimizedAffinity>
20.49028

> <CNNscore>
0.3710429072

> <CNNaffinity>
6.1956257820

> <CNN_VS>
2.2988429070

> <CNNaffinity_variance>
0.6445680261

$$$$
[H]c1c([H])c(C([H])([H])OC([H])([H])C2([H])C([H])([H])C([H])([H])N(C([H])([H])C([H])([H])C([H])([H])C([H])([H])C([H])([H])[H])C([H])([H])C2([H])[H])c([H])c([H])c1F


 21 22  0  0  0  0  0  0  0  0999 V2000
   12.1139   43.9335  132.6872 N   0  0  0  0  0  0  0  0  0  0  0  0
   10.9799   43.0955  132.6747 C   0  0  0  0  0  0  0  0  0  0  0  0
   10.4854   42.6365  131.3571 C   0  0  0  0  0  0  0  0  0  0  0  0
   10.2819   43.8721  130.4885 C   0  0  0  0  0  0  0  0  0  0  0  0
   11.6680   44.4525  130.3113 C   0  0  0  0  0  0  0  0  0  0  0  0
   12.3791   44.7460  131.5747 C   0  0  0  0  0  0  0  0  0  0  0  0
   12.1673   44.6144  133.9552 C   0  0  0  0  0  0  0  0  0  0  0  0
   10.8553   45.1091  134.4501 C   0  0  0  0  0  0  0  0  0  0  0  0
   10.5888   46.5295  134.0209 C   0  0  0  0  0  0  0  0  0  0  0  0
    8.3730   45.5045  133.7967 C   0  0  0  0  0  0  0  0  0  0  0  0
    9.2248   46.6848  133.3993 C   0  0  0  0  0  0  0  0  0  0  0  0
    9.7500   43.4986  129.1252 C   0  0  0  0  0  0  0  0  0  0  0  0
    8.6670   44.3175  128.8001 O   0  0  0  0  0  0  0  0  0  0  0  0
    8.1342   44.8697  129.9619 C   0  0  0  0  0  0  0  0  0  0  0  0
    7.9788   46.3417  129.7514 C   0  0  0  0  0  0  0  0  0  0  0  0
    6.7422   46.8986  129.4798 C   0  0  0  0  0  0  0  0  0  0  0  0
    6.5722   48.2535  129.2816 C   0  0  0  0  0  0  0  0  0  0  0  0
    7.6500   49.1122  129.3491 C   0  0  0  0  0  0  0  0  0  0  0  0
    7.5088   50.4566  129.1569 F   0  0  0  0  0  0  0  0  0  0  0  0
    8.8857   48.5633  129.6195 C   0  0  0  0  0  0  0  0  0  0  0  0
    9.0589   47.1968  129.8197 C   0  0  0  0  0  0  0  0  0  0  0  0
 10 11  1  0  0  0
 11  9  1  0  0  0
  9  8  1  0  0  0
  8  7  1  0  0  0
  7  1  1  0  0  0
  1  2  1  0  0  0
  2  3  1  0  0  0
  3  4  1  0  0  0
  4 12  1  0  0  0
 12 13  1  0  0  0
 13 14  1  0  0  0
 14 15  1  0  0  0
 15 16  2  0  0  0
 16 17  1  0  0  0
 17 18  2  0  0  0
 18 19  1  0  0  0
 18 20  1  0  0  0
 20 21  2  0  0  0
  4  5  1  0  0  0
  5  6  1  0  0  0
  6  1  1  0  0  0
 21 15  1  0  0  0
M  END
> <minimizedAffinity>
-7.51196

> <CNNscore>
0.3664123416

> <CNNaffinity>
6.7249794006

> <CNN_VS>
2.4641153812

> <CNNaffinity_variance>
0.2216738462

$$$$
[H]c1c([H])c([H])c([C@@]2([H])C([H])([H])[C@]2([H])N([H])C([H])([H])C2([H])C([H])([H])C([H])([H])N([H])C([H])([H])C2([H])[H])c([H])c1[H]


 19 21  0  0  0  0  0  0  0  0999 V2000
    9.6954   41.6495  127.2988 N   0  0  0  0  0  0  0  0  0  0  0  0
    9.0680   42.0380  126.5766 H   0  0  0  0  0  0  0  0  0  0  0  0
    9.6536   42.8867  129.5307 C   0  0  0  0  0  0  0  0  0  0  0  0
    9.2975   43.8336  128.3806 C   0  0  0  0  0  0  0  0  0  0  0  0
   10.2485   42.6466  128.1943 C   0  0  0  0  0  0  0  0  0  0  0  0
   12.4120   44.3527  132.4941 C   0  0  0  0  0  0  0  0  0  0  0  0
   12.5054   44.7278  131.1705 C   0  0  0  0  0  0  0  0  0  0  0  0
   11.5995   44.2395  130.2274 C   0  0  0  0  0  0  0  0  0  0  0  0
   10.5892   43.3760  130.5716 C   0  0  0  0  0  0  0  0  0  0  0  0
   10.5018   43.0051  131.8972 C   0  0  0  0  0  0  0  0  0  0  0  0
   11.4017   43.4880  132.8427 C   0  0  0  0  0  0  0  0  0  0  0  0
   10.8169   40.9170  126.7482 C   0  0  0  0  0  0  0  0  0  0  0  0
   10.5531   39.4488  126.5882 C   0  0  0  0  0  0  0  0  0  0  0  0
   11.8643   38.7173  126.5443 C   0  0  0  0  0  0  0  0  0  0  0  0
   12.6959   39.0051  125.3370 C   0  0  0  0  0  0  0  0  0  0  0  0
   11.9141   39.4953  124.2152 N   0  0  0  0  0  0  0  0  0  0  0  0
   10.6864   38.6851  124.2075 C   0  0  0  0  0  0  0  0  0  0  0  0
    9.7858   39.2786  125.2815 C   0  0  0  0  0  0  0  0  0  0  0  0
   12.4490   39.3823  123.3481 H   0  0  0  0  0  0  0  0  0  0  0  0
  6  7  2  0  0  0
  7  8  1  0  0  0
  8  9  2  0  0  0
  9  3  1  0  0  0
  3  4  1  0  0  0
  4  5  1  0  0  0
  5  1  1  0  0  0
  1 12  1  0  0  0
 12 13  1  0  0  0
 13 14  1  0  0  0
 14 15  1  0  0  0
 15 16  1  0  0  0
 16 17  1  0  0  0
 17 18  1  0  0  0
  9 10  1  0  0  0
 10 11  2  0  0  0
 11  6  1  0  0  0
  5  3  1  0  0  0
 18 13  1  0  0  0
  1  2  1  0  0  0
 16 19  1  0  0  0
M  END
> <minimizedAffinity>
13.34056

> <CNNscore>
0.5720717907

> <CNNaffinity>
6.1281728745

> <CNN_VS>
3.5057549477

> <CNNaffinity_variance>
0.5848590732

$$$$
[H]c1c([H])c([H])c([C@@]2([H])C([H])([H])[C@]2([H])N([H])C([H])([H])C2([H])C([H])([H])C([H])([H])N([H])C([H])([H])C2([H])[H])c([H])c1[H]


 19 21  0  0  0  0  0  0  0  0999 V2000
    8.2698   44.6446  129.1392 N   0  0  0  0  0  0  0  0  0  0  0  0
    7.2612   44.4563  129.0244 H   0  0  0  0  0  0  0  0  0  0  0  0
   10.2898   43.9617  130.5417 C   0  0  0  0  0  0  0  0  0  0  0  0
    9.4394   42.7382  130.1864 C   0  0  0  0  0  0  0  0  0  0  0  0
    8.8264   44.1299  130.3751 C   0  0  0  0  0  0  0  0  0  0  0  0
   11.6886   44.3458  134.5958 C   0  0  0  0  0  0  0  0  0  0  0  0
   10.4823   44.8787  134.1932 C   0  0  0  0  0  0  0  0  0  0  0  0
   10.0493   44.7415  132.8733 C   0  0  0  0  0  0  0  0  0  0  0  0
   10.7956   44.0788  131.9305 C   0  0  0  0  0  0  0  0  0  0  0  0
   12.0011   43.5484  132.3402 C   0  0  0  0  0  0  0  0  0  0  0  0
   12.4389   43.6815  133.6545 C   0  0  0  0  0  0  0  0  0  0  0  0
    8.5975   46.0545  129.0909 C   0  0  0  0  0  0  0  0  0  0  0  0
    7.9479   46.8582  130.1786 C   0  0  0  0  0  0  0  0  0  0  0  0
    6.4683   46.9180  129.9266 C   0  0  0  0  0  0  0  0  0  0  0  0
    6.0764   47.6903  128.7091 C   0  0  0  0  0  0  0  0  0  0  0  0
    7.0872   48.6488  128.2974 N   0  0  0  0  0  0  0  0  0  0  0  0
    7.5867   49.2527  129.5423 C   0  0  0  0  0  0  0  0  0  0  0  0
    8.5695   48.2497  130.1297 C   0  0  0  0  0  0  0  0  0  0  0  0
    6.6652   49.3487  127.6787 H   0  0  0  0  0  0  0  0  0  0  0  0
  6  7  2  0  0  0
  7  8  1  0  0  0
  8  9  2  0  0  0
  9  3  1  0  0  0
  3  4  1  0  0  0
  4  5  1  0  0  0
  5  1  1  0  0  0
  1 12  1  0  0  0
 12 13  1  0  0  0
 13 14  1  0  0  0
 14 15  1  0  0  0
 15 16  1  0  0  0
 16 17  1  0  0  0
 17 18  1  0  0  0
  9 10  1  0  0  0
 10 11  2  0  0  0
 11  6  1  0  0  0
  5  3  1  0  0  0
 18 13  1  0  0  0
  1  2  1  0  0  0
 16 19  1  0  0  0
M  END
> <minimizedAffinity>
-6.75021

> <CNNscore>
0.4996792078

> <CNNaffinity>
6.5364251137

> <CNN_VS>
3.2661156654

> <CNNaffinity_variance>
0.1787700951

$$$$
[H]c1c([H])c([H])c([C@@]2([H])C([H])([H])[C@]2([H])N([H])C([H])([H])C2([H])C([H])([H])C([H])([H])N([H])C([H])([H])C2([H])[H])c([H])c1[H]


 19 21  0  0  0  0  0  0  0  0999 V2000
    9.9003   41.2978  130.2161 N   0  0  0  0  0  0  0  0  0  0  0  0
    9.3240   41.0092  131.0226 H   0  0  0  0  0  0  0  0  0  0  0  0
   10.0467   39.9133  128.0771 C   0  0  0  0  0  0  0  0  0  0  0  0
    9.4299   39.0909  129.2126 C   0  0  0  0  0  0  0  0  0  0  0  0
   10.4661   40.1897  129.4718 C   0  0  0  0  0  0  0  0  0  0  0  0
   12.9680   38.0596  125.5139 C   0  0  0  0  0  0  0  0  0  0  0  0
   12.0181   38.9278  125.0187 C   0  0  0  0  0  0  0  0  0  0  0  0
   11.0809   39.5170  125.8691 C   0  0  0  0  0  0  0  0  0  0  0  0
   11.0640   39.2613  127.2178 C   0  0  0  0  0  0  0  0  0  0  0  0
   12.0170   38.3920  127.7062 C   0  0  0  0  0  0  0  0  0  0  0  0
   12.9542   37.8010  126.8641 C   0  0  0  0  0  0  0  0  0  0  0  0
   11.0049   42.1603  130.5819 C   0  0  0  0  0  0  0  0  0  0  0  0
   10.7362   43.6154  130.3344 C   0  0  0  0  0  0  0  0  0  0  0  0
    9.9774   44.1790  131.5019 C   0  0  0  0  0  0  0  0  0  0  0  0
    8.5923   43.6416  131.6602 C   0  0  0  0  0  0  0  0  0  0  0  0
    8.0502   43.1020  130.4253 N   0  0  0  0  0  0  0  0  0  0  0  0
    8.4646   44.0402  129.3708 C   0  0  0  0  0  0  0  0  0  0  0  0
    9.9138   43.7002  129.0532 C   0  0  0  0  0  0  0  0  0  0  0  0
    7.0297   43.0381  130.4971 H   0  0  0  0  0  0  0  0  0  0  0  0
  6  7  2  0  0  0
  7  8  1  0  0  0
  8  9  2  0  0  0
  9  3  1  0  0  0
  3  4  1  0  0  0
  4  5  1  0  0  0
  5  1  1  0  0  0
  1 12  1  0  0  0
 12 13  1  0  0  0
 13 14  1  0  0  0
 14 15  1  0  0  0
 15 16  1  0  0  0
 16 17  1  0  0  0
 17 18  1  0  0  0
  9 10  1  0  0  0
 10 11  2  0  0  0
 11  6  1  0  0  0
  5  3  1  0  0  0
 18 13  1  0  0  0
  1  2  1  0  0  0
 16 19  1  0  0  0
M  END
> <minimizedAffinity>
22.48448

> <CNNscore>
0.3981355429

> <CNNaffinity>
5.6322679520

> <CNN_VS>
2.2424061298

> <CNNaffinity_variance>
0.5733145475

$$$$
[H]c1c([H])c([H])c([C@@]2([H])C([H])([H])[C@]2([H])N([H])C([H])([H])C2([H])C([H])([H])C([H])([H])N([H])C([H])([H])C2([H])[H])c([H])c1[H]


 19 21  0  0  0  0  0  0  0  0999 V2000
    7.3835   45.6604  129.7452 N   0  0  0  0  0  0  0  0  0  0  0  0
    6.4079   45.3239  129.7758 H   0  0  0  0  0  0  0  0  0  0  0  0
    9.7607   44.8328  130.1672 C   0  0  0  0  0  0  0  0  0  0  0  0
    8.8813   43.7003  129.6282 C   0  0  0  0  0  0  0  0  0  0  0  0
    8.3136   44.8338  130.4892 C   0  0  0  0  0  0  0  0  0  0  0  0
   12.3905   44.0341  133.4816 C   0  0  0  0  0  0  0  0  0  0  0  0
   11.7815   45.2606  133.3206 C   0  0  0  0  0  0  0  0  0  0  0  0
   10.9325   45.4965  132.2380 C   0  0  0  0  0  0  0  0  0  0  0  0
   10.6701   44.5304  131.2984 C   0  0  0  0  0  0  0  0  0  0  0  0
   11.2826   43.3060  131.4658 C   0  0  0  0  0  0  0  0  0  0  0  0
   12.1303   43.0641  132.5427 C   0  0  0  0  0  0  0  0  0  0  0  0
    7.5383   47.0118  130.2427 C   0  0  0  0  0  0  0  0  0  0  0  0
    8.2927   47.9113  129.3086 C   0  0  0  0  0  0  0  0  0  0  0  0
    9.3069   48.6932  130.0937 C   0  0  0  0  0  0  0  0  0  0  0  0
    8.7241   49.6791  131.0531 C   0  0  0  0  0  0  0  0  0  0  0  0
    7.3720   50.0780  130.7029 N   0  0  0  0  0  0  0  0  0  0  0  0
    7.3761   50.2403  129.2409 C   0  0  0  0  0  0  0  0  0  0  0  0
    7.2668   48.8365  128.6630 C   0  0  0  0  0  0  0  0  0  0  0  0
    7.1373   50.9535  131.1815 H   0  0  0  0  0  0  0  0  0  0  0  0
  6  7  2  0  0  0
  7  8  1  0  0  0
  8  9  2  0  0  0
  9  3  1  0  0  0
  3  4  1  0  0  0
  4  5  1  0  0  0
  5  1  1  0  0  0
  1 12  1  0  0  0
 12 13  1  0  0  0
 13 14  1  0  0  0
 14 15  1  0  0  0
 15 16  1  0  0  0
 16 17  1  0  0  0
 17 18  1  0  0  0
  9 10  1  0  0  0
 10 11  2  0  0  0
 11  6  1  0  0  0
  5  3  1  0  0  0
 18 13  1  0  0  0
  1  2  1  0  0  0
 16 19  1  0  0  0
M  END
> <minimizedAffinity>
-7.24259

> <CNNscore>
0.2980733514

> <CNNaffinity>
6.3277540207

> <CNN_VS>
1.8861348629

> <CNNaffinity_variance>
0.0971824303

$$$$
[H]c1c([H])c([H])c([C@@]2([H])C([H])([H])[C@]2([H])N([H])C([H])([H])C2([H])C([H])([H])C([H])([H])N([H])C([H])([H])C2([H])[H])c([H])c1[H]


 19 21  0  0  0  0  0  0  0  0999 V2000
    8.7279   43.9680  131.6727 N   0  0  0  0  0  0  0  0  0  0  0  0
    9.2433   43.2046  131.2061 H   0  0  0  0  0  0  0  0  0  0  0  0
    7.5675   45.8462  130.3922 C   0  0  0  0  0  0  0  0  0  0  0  0
    8.5096   45.0651  129.4709 C   0  0  0  0  0  0  0  0  0  0  0  0
    8.7884   45.2338  130.9683 C   0  0  0  0  0  0  0  0  0  0  0  0
    7.6472   50.1462  130.1847 C   0  0  0  0  0  0  0  0  0  0  0  0
    8.5176   49.4446  130.9919 C   0  0  0  0  0  0  0  0  0  0  0  0
    8.4731   48.0503  131.0428 C   0  0  0  0  0  0  0  0  0  0  0  0
    7.5729   47.3260  130.3013 C   0  0  0  0  0  0  0  0  0  0  0  0
    6.7055   48.0343  129.4962 C   0  0  0  0  0  0  0  0  0  0  0  0
    6.7442   49.4244  129.4406 C   0  0  0  0  0  0  0  0  0  0  0  0
    9.1819   44.2220  133.0243 C   0  0  0  0  0  0  0  0  0  0  0  0
   10.2873   43.3089  133.4664 C   0  0  0  0  0  0  0  0  0  0  0  0
   11.2976   44.1034  134.2439 C   0  0  0  0  0  0  0  0  0  0  0  0
   12.0478   45.1128  133.4374 C   0  0  0  0  0  0  0  0  0  0  0  0
   12.0605   44.8065  132.0176 N   0  0  0  0  0  0  0  0  0  0  0  0
   12.2644   43.3523  131.9309 C   0  0  0  0  0  0  0  0  0  0  0  0
   10.9060   42.7216  132.2026 C   0  0  0  0  0  0  0  0  0  0  0  0
   12.8185   45.3241  131.5613 H   0  0  0  0  0  0  0  0  0  0  0  0
  6  7  2  0  0  0
  7  8  1  0  0  0
  8  9  2  0  0  0
  9  3  1  0  0  0
  3  4  1  0  0  0
  4  5  1  0  0  0
  5  1  1  0  0  0
  1 12  1  0  0  0
 12 13  1  0  0  0
 13 14  1  0  0  0
 14 15  1  0  0  0
 15 16  1  0  0  0
 16 17  1  0  0  0
 17 18  1  0  0  0
  9 10  1  0  0  0
 10 11  2  0  0  0
 11  6  1  0  0  0
  5  3  1  0  0  0
 18 13  1  0  0  0
  1  2  1  0  0  0
 16 19  1  0  0  0
M  END
> <minimizedAffinity>
-7.34766

> <CNNscore>
0.2478697449

> <CNNaffinity>
6.1664514542

> <CNN_VS>
1.5284767151

> <CNNaffinity_variance>
0.0442662686

$$$$
[H]c1c([H])c([H])c([C@@]2([H])C([H])([H])[C@]2([H])N([H])C([H])([H])C2([H])C([H])([H])C([H])([H])N([H])C([H])([H])C2([H])[H])c([H])c1[H]


 19 21  0  0  0  0  0  0  0  0999 V2000
   10.9965   44.5032  129.7103 N   0  0  0  0  0  0  0  0  0  0  0  0
   11.6849   44.3547  128.9553 H   0  0  0  0  0  0  0  0  0  0  0  0
    9.0556   45.9996  130.4227 C   0  0  0  0  0  0  0  0  0  0  0  0
    8.5580   44.8535  129.5366 C   0  0  0  0  0  0  0  0  0  0  0  0
    9.9572   45.4580  129.3780 C   0  0  0  0  0  0  0  0  0  0  0  0
    7.5514   49.9774  129.7487 C   0  0  0  0  0  0  0  0  0  0  0  0
    8.4531   49.7060  130.7560 C   0  0  0  0  0  0  0  0  0  0  0  0
    8.9270   48.4082  130.9556 C   0  0  0  0  0  0  0  0  0  0  0  0
    8.5216   47.3592  130.1682 C   0  0  0  0  0  0  0  0  0  0  0  0
    7.6197   47.6380  129.1627 C   0  0  0  0  0  0  0  0  0  0  0  0
    7.1430   48.9294  128.9582 C   0  0  0  0  0  0  0  0  0  0  0  0
   11.5951   44.9545  130.9495 C   0  0  0  0  0  0  0  0  0  0  0  0
   12.1416   43.8396  131.7916 C   0  0  0  0  0  0  0  0  0  0  0  0
   11.1484   42.7130  131.8177 C   0  0  0  0  0  0  0  0  0  0  0  0
    9.8720   43.0267  132.5281 C   0  0  0  0  0  0  0  0  0  0  0  0
   10.0078   44.1135  133.4822 N   0  0  0  0  0  0  0  0  0  0  0  0
   11.3001   43.8921  134.1492 C   0  0  0  0  0  0  0  0  0  0  0  0
   12.3615   44.4095  133.1888 C   0  0  0  0  0  0  0  0  0  0  0  0
    9.2279   44.0866  134.1468 H   0  0  0  0  0  0  0  0  0  0  0  0
  6  7  2  0  0  0
  7  8  1  0  0  0
  8  9  2  0  0  0
  9  3  1  0  0  0
  3  4  1  0  0  0
  4  5  1  0  0  0
  5  1  1  0  0  0
  1 12  1  0  0  0
 12 13  1  0  0  0
 13 14  1  0  0  0
 14 15  1  0  0  0
 15 16  1  0  0  0
 16 17  1  0  0  0
 17 18  1  0  0  0
  9 10  1  0  0  0
 10 11  2  0  0  0
 11  6  1  0  0  0
  5  3  1  0  0  0
 18 13  1  0  0  0
  1  2  1  0  0  0
 16 19  1  0  0  0
M  END
> <minimizedAffinity>
-7.46208

> <CNNscore>
0.2461746782

> <CNNaffinity>
6.1629581451

> <CNN_VS>
1.5171642303

> <CNNaffinity_variance>
0.0285410229

$$$$
[H]c1c([H])c([H])c([C@@]2([H])C([H])([H])[C@]2([H])N([H])C([H])([H])C2([H])C([H])([H])C([H])([H])N([H])C([H])([H])C2([H])[H])c([H])c1[H]


 19 21  0  0  0  0  0  0  0  0999 V2000
    7.9992   45.6428  129.2503 N   0  0  0  0  0  0  0  0  0  0  0  0
    6.9714   45.5830  129.3276 H   0  0  0  0  0  0  0  0  0  0  0  0
   10.1912   44.8187  130.2650 C   0  0  0  0  0  0  0  0  0  0  0  0
    9.4417   43.6670  129.5880 C   0  0  0  0  0  0  0  0  0  0  0  0
    8.7094   44.8483  130.2333 C   0  0  0  0  0  0  0  0  0  0  0  0
   11.9005   44.0311  134.1377 C   0  0  0  0  0  0  0  0  0  0  0  0
   10.7966   43.3428  133.6806 C   0  0  0  0  0  0  0  0  0  0  0  0
   10.2598   43.6153  132.4212 C   0  0  0  0  0  0  0  0  0  0  0  0
   10.8002   44.5680  131.5933 C   0  0  0  0  0  0  0  0  0  0  0  0
   11.9042   45.2525  132.0570 C   0  0  0  0  0  0  0  0  0  0  0  0
   12.4445   44.9860  133.3115 C   0  0  0  0  0  0  0  0  0  0  0  0
    8.5036   46.9956  129.3658 C   0  0  0  0  0  0  0  0  0  0  0  0
    7.7768   47.8208  130.3864 C   0  0  0  0  0  0  0  0  0  0  0  0
    8.1987   49.2556  130.2469 C   0  0  0  0  0  0  0  0  0  0  0  0
    9.6241   49.5217  130.6069 C   0  0  0  0  0  0  0  0  0  0  0  0
   10.1818   48.5138  131.4917 N   0  0  0  0  0  0  0  0  0  0  0  0
    9.1193   48.2120  132.4633 C   0  0  0  0  0  0  0  0  0  0  0  0
    8.1594   47.2670  131.7546 C   0  0  0  0  0  0  0  0  0  0  0  0
   11.0207   48.8846  131.9494 H   0  0  0  0  0  0  0  0  0  0  0  0
  6  7  2  0  0  0
  7  8  1  0  0  0
  8  9  2  0  0  0
  9  3  1  0  0  0
  3  4  1  0  0  0
  4  5  1  0  0  0
  5  1  1  0  0  0
  1 12  1  0  0  0
 12 13  1  0  0  0
 13 14  1  0  0  0
 14 15  1  0  0  0
 15 16  1  0  0  0
 16 17  1  0  0  0
 17 18  1  0  0  0
  9 10  1  0  0  0
 10 11  2  0  0  0
 11  6  1  0  0  0
  5  3  1  0  0  0
 18 13  1  0  0  0
  1  2  1  0  0  0
 16 19  1  0  0  0
M  END
> <minimizedAffinity>
-6.34979

> <CNNscore>
0.2339222282

> <CNNaffinity>
6.4042944908

> <CNN_VS>
1.4981068373

> <CNNaffinity_variance>
0.2041171044

$$$$
[H]c1c([H])c([H])c([C@@]2([H])C([H])([H])[C@]2([H])N([H])C([H])([H])C2([H])C([H])([H])C([H])([H])N([H])C([H])([H])C2([H])[H])c([H])c1[H]


 19 21  0  0  0  0  0  0  0  0999 V2000
   10.7781   45.6817  133.0099 N   0  0  0  0  0  0  0  0  0  0  0  0
   10.5372   44.7047  133.2412 H   0  0  0  0  0  0  0  0  0  0  0  0
    9.8124   47.9009  132.1998 C   0  0  0  0  0  0  0  0  0  0  0  0
    9.1766   47.4880  133.5309 C   0  0  0  0  0  0  0  0  0  0  0  0
    9.6624   46.4581  132.5054 C   0  0  0  0  0  0  0  0  0  0  0  0
    7.2345   49.3563  129.0732 C   0  0  0  0  0  0  0  0  0  0  0  0
    7.7295   48.0694  129.0623 C   0  0  0  0  0  0  0  0  0  0  0  0
    8.5638   47.6196  130.0871 C   0  0  0  0  0  0  0  0  0  0  0  0
    8.9232   48.4280  131.1369 C   0  0  0  0  0  0  0  0  0  0  0  0
    8.4244   49.7139  131.1414 C   0  0  0  0  0  0  0  0  0  0  0  0
    7.5923   50.1689  130.1229 C   0  0  0  0  0  0  0  0  0  0  0  0
   11.8389   45.7926  132.0301 C   0  0  0  0  0  0  0  0  0  0  0  0
   12.4934   44.4823  131.7050 C   0  0  0  0  0  0  0  0  0  0  0  0
   12.4717   44.2797  130.2168 C   0  0  0  0  0  0  0  0  0  0  0  0
   11.1089   44.0856  129.6362 C   0  0  0  0  0  0  0  0  0  0  0  0
   10.1404   43.6148  130.6110 N   0  0  0  0  0  0  0  0  0  0  0  0
   10.8519   42.6133  131.4202 C   0  0  0  0  0  0  0  0  0  0  0  0
   11.6905   43.3996  132.4178 C   0  0  0  0  0  0  0  0  0  0  0  0
    9.3345   43.2079  130.1257 H   0  0  0  0  0  0  0  0  0  0  0  0
  6  7  2  0  0  0
  7  8  1  0  0  0
  8  9  2  0  0  0
  9  3  1  0  0  0
  3  4  1  0  0  0
  4  5  1  0  0  0
  5  1  1  0  0  0
  1 12  1  0  0  0
 12 13  1  0  0  0
 13 14  1  0  0  0
 14 15  1  0  0  0
 15 16  1  0  0  0
 16 17  1  0  0  0
 17 18  1  0  0  0
  9 10  1  0  0  0
 10 11  2  0  0  0
 11  6  1  0  0  0
  5  3  1  0  0  0
 18 13  1  0  0  0
  1  2  1  0  0  0
 16 19  1  0  0  0
M  END
> <minimizedAffinity>
-7.61548

> <CNNscore>
0.2018270046

> <CNNaffinity>
6.0475168228

> <CNN_VS>
1.2205522060

> <CNNaffinity_variance>
0.0080304593

$$$$
[H]c1c([H])c([H])c([C@@]2([H])C([H])([H])[C@]2([H])N([H])C([H])([H])C2([H])C([H])([H])C([H])([H])N([H])C([H])([H])C2([H])[H])c([H])c1[H]


 19 21  0  0  0  0  0  0  0  0999 V2000
    9.8533   46.0051  128.5187 N   0  0  0  0  0  0  0  0  0  0  0  0
    9.1436   45.6910  127.8378 H   0  0  0  0  0  0  0  0  0  0  0  0
   11.3563   44.8303  130.2142 C   0  0  0  0  0  0  0  0  0  0  0  0
   10.7238   43.8152  129.2572 C   0  0  0  0  0  0  0  0  0  0  0  0
   10.0146   45.1150  129.6518 C   0  0  0  0  0  0  0  0  0  0  0  0
   11.5134   43.9269  134.4212 C   0  0  0  0  0  0  0  0  0  0  0  0
   12.3036   44.9089  133.8622 C   0  0  0  0  0  0  0  0  0  0  0  0
   12.2354   45.1843  132.4954 C   0  0  0  0  0  0  0  0  0  0  0  0
   11.3898   44.4986  131.6589 C   0  0  0  0  0  0  0  0  0  0  0  0
   10.6025   43.5177  132.2248 C   0  0  0  0  0  0  0  0  0  0  0  0
   10.6655   43.2379  133.5867 C   0  0  0  0  0  0  0  0  0  0  0  0
    9.5842   47.3217  129.0590 C   0  0  0  0  0  0  0  0  0  0  0  0
    8.6397   47.3093  130.2246 C   0  0  0  0  0  0  0  0  0  0  0  0
    7.2712   47.7078  129.7506 C   0  0  0  0  0  0  0  0  0  0  0  0
    7.1613   49.1253  129.2914 C   0  0  0  0  0  0  0  0  0  0  0  0
    8.1926   49.9824  129.8497 N   0  0  0  0  0  0  0  0  0  0  0  0
    8.3287   49.5699  131.2551 C   0  0  0  0  0  0  0  0  0  0  0  0
    9.1808   48.3088  131.2411 C   0  0  0  0  0  0  0  0  0  0  0  0
    7.9058   50.9631  129.7679 H   0  0  0  0  0  0  0  0  0  0  0  0
  6  7  2  0  0  0
  7  8  1  0  0  0
  8  9  2  0  0  0
  9  3  1  0  0  0
  3  4  1  0  0  0
  4  5  1  0  0  0
  5  1  1  0  0  0
  1 12  1  0  0  0
 12 13  1  0  0  0
 13 14  1  0  0  0
 14 15  1  0  0  0
 15 16  1  0  0  0
 16 17  1  0  0  0
 17 18  1  0  0  0
  9 10  1  0  0  0
 10 11  2  0  0  0
 11  6  1  0  0  0
  5  3  1  0  0  0
 18 13  1  0  0  0
  1  2  1  0  0  0
 16 19  1  0  0  0
M  END
> <minimizedAffinity>
-6.44706

> <CNNscore>
0.2014909834

> <CNNaffinity>
6.3568482399

> <CNN_VS>
1.2808475494

> <CNNaffinity_variance>
0.1378595531

$$$$
[H]OC([H])([H])C(F)(F)C([H])([H])N1[C@]([H])(c2c(F)c([H])nc(OC([H])([H])C([H])([H])N([H])C([H])([H])C([H])([H])C([H])([H])F)c2F)c2c(c3c([H])c([H])c([H])c([H])c3n2[H])C([H])([H])[C@@]1([H])C([H])([H])[H]


 39 42  0  0  0  0  0  0  0  0999 V2000
   10.3960   42.0101  130.4331 C   0  0  0  0  0  0  0  0  0  0  0  0
   11.1593   42.8442  131.4266 C   0  0  0  0  0  0  0  0  0  0  0  0
   10.7572   42.1906  132.7813 C   0  0  0  0  0  0  0  0  0  0  0  0
    9.3399   42.5515  132.9680 C   0  0  0  0  0  0  0  0  0  0  0  0
    8.8546   43.7307  132.4641 C   0  0  0  0  0  0  0  0  0  0  0  0
    7.5452   43.7611  132.7962 N   0  0  0  0  0  0  0  0  0  0  0  0
    7.1827   42.6696  133.4790 C   0  0  0  0  0  0  0  0  0  0  0  0
    5.9990   42.2214  134.0352 C   0  0  0  0  0  0  0  0  0  0  0  0
    5.9476   41.0155  134.6969 C   0  0  0  0  0  0  0  0  0  0  0  0
    7.0860   40.2126  134.8250 C   0  0  0  0  0  0  0  0  0  0  0  0
    8.2494   40.6848  134.2612 C   0  0  0  0  0  0  0  0  0  0  0  0
    8.3133   41.8870  133.5983 C   0  0  0  0  0  0  0  0  0  0  0  0
    9.6804   44.7211  131.7138 C   0  0  0  0  0  0  0  0  0  0  0  0
   10.9862   44.2178  131.4225 N   0  0  0  0  0  0  0  0  0  0  0  0
    6.8881   44.5322  132.5566 H   0  0  0  0  0  0  0  0  0  0  0  0
    9.5512   46.0739  132.2301 C   0  0  0  0  0  0  0  0  0  0  0  0
    9.5212   46.3603  133.5780 C   0  0  0  0  0  0  0  0  0  0  0  0
    9.6105   45.3585  134.4435 F   0  0  0  0  0  0  0  0  0  0  0  0
    9.4017   47.6522  134.0589 C   0  0  0  0  0  0  0  0  0  0  0  0
    9.3109   48.6704  133.1854 N   0  0  0  0  0  0  0  0  0  0  0  0
    9.3319   48.4805  131.8560 C   0  0  0  0  0  0  0  0  0  0  0  0
    9.4521   47.1807  131.3922 C   0  0  0  0  0  0  0  0  0  0  0  0
    9.4684   47.0296  130.0417 F   0  0  0  0  0  0  0  0  0  0  0  0
    9.2366   49.5541  131.0139 O   0  0  0  0  0  0  0  0  0  0  0  0
    8.4288   49.6887  129.8869 C   0  0  0  0  0  0  0  0  0  0  0  0
    7.2156   50.5335  130.0653 C   0  0  0  0  0  0  0  0  0  0  0  0
    6.1513   50.1845  129.1401 N   0  0  0  0  0  0  0  0  0  0  0  0
    5.5953   50.9847  128.8169 H   0  0  0  0  0  0  0  0  0  0  0  0
    5.3517   49.0821  129.5887 C   0  0  0  0  0  0  0  0  0  0  0  0
    5.6807   47.7950  128.8743 C   0  0  0  0  0  0  0  0  0  0  0  0
    6.2195   46.7277  129.7808 C   0  0  0  0  0  0  0  0  0  0  0  0
    7.2702   46.0224  129.2383 F   0  0  0  0  0  0  0  0  0  0  0  0
   11.9554   45.1500  131.1422 C   0  0  0  0  0  0  0  0  0  0  0  0
   12.8661   45.8074  132.0631 C   0  0  0  0  0  0  0  0  0  0  0  0
   14.1836   45.9011  131.6159 F   0  0  0  0  0  0  0  0  0  0  0  0
   12.5433   47.2378  132.0737 F   0  0  0  0  0  0  0  0  0  0  0  0
   12.8890   45.5000  133.5130 C   0  0  0  0  0  0  0  0  0  0  0  0
   12.8296   44.2144  133.9321 O   0  0  0  0  0  0  0  0  0  0  0  0
   13.7197   43.8051  134.0394 H   0  0  0  0  0  0  0  0  0  0  0  0
  1  2  1  0  0  0
  2  3  1  0  0  0
  3  4  1  0  0  0
  4  5  2  0  0  0
  5  6  1  0  0  0
  6  7  1  0  0  0
  7  8  2  0  0  0
  8  9  1  0  0  0
  9 10  2  0  0  0
 10 11  1  0  0  0
 11 12  2  0  0  0
  5 13  1  0  0  0
 13 16  1  0  0  0
 16 17  2  0  0  0
 17 18  1  0  0  0
 17 19  1  0  0  0
 19 20  2  0  0  0
 20 21  1  0  0  0
 21 24  1  0  0  0
 24 25  1  0  0  0
 25 26  1  0  0  0
 26 27  1  0  0  0
 27 29  1  0  0  0
 29 30  1  0  0  0
 30 31  1  0  0  0
 31 32  1  0  0  0
 21 22  2  0  0  0
 22 23  1  0  0  0
 13 14  1  0  0  0
 14 33  1  0  0  0
 33 34  1  0  0  0
 34 35  1  0  0  0
 34 36  1  0  0  0
 34 37  1  0  0  0
 37 38  1  0  0  0
 14  2  1  0  0  0
 12  4  1  0  0  0
 22 16  1  0  0  0
 12  7  1  0  0  0
  6 15  1  0  0  0
 27 28  1  0  0  0
 38 39  1  0  0  0
M  END
> <minimizedAffinity>
9.82807

> <CNNscore>
0.4039837122

> <CNNaffinity>
7.9087805748

> <CNN_VS>
3.1950185299

> <CNNaffinity_variance>
0.2807584405

$$$$
[H]OC([H])([H])C(F)(F)C([H])([H])N1[C@]([H])(c2c(F)c([H])nc(OC([H])([H])C([H])([H])N([H])C([H])([H])C([H])([H])C([H])([H])F)c2F)c2c(c3c([H])c([H])c([H])c([H])c3n2[H])C([H])([H])[C@@]1([H])C([H])([H])[H]


 39 42  0  0  0  0  0  0  0  0999 V2000
   10.0241   41.9875  129.9287 C   0  0  0  0  0  0  0  0  0  0  0  0
   11.0418   42.7703  130.7142 C   0  0  0  0  0  0  0  0  0  0  0  0
   10.8960   42.1605  132.1394 C   0  0  0  0  0  0  0  0  0  0  0  0
    9.5821   42.6287  132.6172 C   0  0  0  0  0  0  0  0  0  0  0  0
    9.0852   43.8368  132.2003 C   0  0  0  0  0  0  0  0  0  0  0  0
    7.8841   43.9686  132.8050 N   0  0  0  0  0  0  0  0  0  0  0  0
    7.6003   42.9134  133.5764 C   0  0  0  0  0  0  0  0  0  0  0  0
    6.5357   42.5604  134.3847 C   0  0  0  0  0  0  0  0  0  0  0  0
    6.5420   41.3676  135.0715 C   0  0  0  0  0  0  0  0  0  0  0  0
    7.6206   40.4823  134.9719 C   0  0  0  0  0  0  0  0  0  0  0  0
    8.6656   40.8607  134.1599 C   0  0  0  0  0  0  0  0  0  0  0  0
    8.6709   42.0489  133.4694 C   0  0  0  0  0  0  0  0  0  0  0  0
    9.7984   44.7557  131.2660 C   0  0  0  0  0  0  0  0  0  0  0  0
   10.9708   44.1529  130.7136 N   0  0  0  0  0  0  0  0  0  0  0  0
    7.2478   44.7849  132.6932 H   0  0  0  0  0  0  0  0  0  0  0  0
    9.8811   46.1187  131.7645 C   0  0  0  0  0  0  0  0  0  0  0  0
   10.2084   46.4193  133.0692 C   0  0  0  0  0  0  0  0  0  0  0  0
   10.4556   45.4223  133.9091 F   0  0  0  0  0  0  0  0  0  0  0  0
   10.2881   47.7207  133.5325 C   0  0  0  0  0  0  0  0  0  0  0  0
   10.0383   48.7341  132.6848 N   0  0  0  0  0  0  0  0  0  0  0  0
    9.7124   48.5305  131.3979 C   0  0  0  0  0  0  0  0  0  0  0  0
    9.6373   47.2215  130.9512 C   0  0  0  0  0  0  0  0  0  0  0  0
    9.3039   47.0567  129.6440 F   0  0  0  0  0  0  0  0  0  0  0  0
    9.4694   49.5999  130.5804 O   0  0  0  0  0  0  0  0  0  0  0  0
    8.3783   49.8027  129.7384 C   0  0  0  0  0  0  0  0  0  0  0  0
    7.0755   50.0332  130.4219 C   0  0  0  0  0  0  0  0  0  0  0  0
    5.9416   49.8910  129.5249 N   0  0  0  0  0  0  0  0  0  0  0  0
    5.0282   50.0013  129.9804 H   0  0  0  0  0  0  0  0  0  0  0  0
    6.0233   48.7273  128.6912 C   0  0  0  0  0  0  0  0  0  0  0  0
    5.4714   47.4925  129.3589 C   0  0  0  0  0  0  0  0  0  0  0  0
    6.5119   46.4495  129.6431 C   0  0  0  0  0  0  0  0  0  0  0  0
    6.5511   46.0548  130.9616 F   0  0  0  0  0  0  0  0  0  0  0  0
   11.9209   45.0070  130.2088 C   0  0  0  0  0  0  0  0  0  0  0  0
   12.2064   45.3166  128.8187 C   0  0  0  0  0  0  0  0  0  0  0  0
   12.2888   46.6779  128.5276 F   0  0  0  0  0  0  0  0  0  0  0  0
   13.6034   44.9580  128.5537 F   0  0  0  0  0  0  0  0  0  0  0  0
   11.5115   44.6433  127.6958 C   0  0  0  0  0  0  0  0  0  0  0  0
   10.1746   44.4401  127.7531 O   0  0  0  0  0  0  0  0  0  0  0  0
    9.6574   45.1811  127.3601 H   0  0  0  0  0  0  0  0  0  0  0  0
  1  2  1  0  0  0
  2  3  1  0  0  0
  3  4  1  0  0  0
  4  5  2  0  0  0
  5  6  1  0  0  0
  6  7  1  0  0  0
  7  8  2  0  0  0
  8  9  1  0  0  0
  9 10  2  0  0  0
 10 11  1  0  0  0
 11 12  2  0  0  0
  5 13  1  0  0  0
 13 16  1  0  0  0
 16 17  2  0  0  0
 17 18  1  0  0  0
 17 19  1  0  0  0
 19 20  2  0  0  0
 20 21  1  0  0  0
 21 24  1  0  0  0
 24 25  1  0  0  0
 25 26  1  0  0  0
 26 27  1  0  0  0
 27 29  1  0  0  0
 29 30  1  0  0  0
 30 31  1  0  0  0
 31 32  1  0  0  0
 21 22  2  0  0  0
 22 23  1  0  0  0
 13 14  1  0  0  0
 14 33  1  0  0  0
 33 34  1  0  0  0
 34 35  1  0  0  0
 34 36  1  0  0  0
 34 37  1  0  0  0
 37 38  1  0  0  0
 14  2  1  0  0  0
 12  4  1  0  0  0
 22 16  1  0  0  0
 12  7  1  0  0  0
  6 15  1  0  0  0
 27 28  1  0  0  0
 38 39  1  0  0  0
M  END
> <minimizedAffinity>
8.73205

> <CNNscore>
0.3758189082

> <CNNaffinity>
7.8178315163

> <CNN_VS>
2.9380888939

> <CNNaffinity_variance>
0.2055176944

$$$$
[H]OC([H])([H])C(F)(F)C([H])([H])N1[C@]([H])(c2c(F)c([H])nc(OC([H])([H])C([H])([H])N([H])C([H])([H])C([H])([H])C([H])([H])F)c2F)c2c(c3c([H])c([H])c([H])c([H])c3n2[H])C([H])([H])[C@@]1([H])C([H])([H])[H]


 39 42  0  0  0  0  0  0  0  0999 V2000
   11.2065   42.7405  132.9654 C   0  0  0  0  0  0  0  0  0  0  0  0
   11.2640   43.4009  131.6142 C   0  0  0  0  0  0  0  0  0  0  0  0
   12.3261   44.5169  131.8393 C   0  0  0  0  0  0  0  0  0  0  0  0
   11.6666   45.4912  132.7280 C   0  0  0  0  0  0  0  0  0  0  0  0
   10.3080   45.6678  132.6731 C   0  0  0  0  0  0  0  0  0  0  0  0
   10.0221   46.6102  133.5983 N   0  0  0  0  0  0  0  0  0  0  0  0
   11.1230   47.0341  134.2289 C   0  0  0  0  0  0  0  0  0  0  0  0
   11.3751   47.9569  135.2270 C   0  0  0  0  0  0  0  0  0  0  0  0
   12.6588   48.1730  135.6741 C   0  0  0  0  0  0  0  0  0  0  0  0
   13.7401   47.4685  135.1343 C   0  0  0  0  0  0  0  0  0  0  0  0
   13.4583   46.5566  134.1425 C   0  0  0  0  0  0  0  0  0  0  0  0
   12.1810   46.3322  133.6876 C   0  0  0  0  0  0  0  0  0  0  0  0
    9.4060   44.9250  131.7455 C   0  0  0  0  0  0  0  0  0  0  0  0
   10.0936   43.8812  131.0520 N   0  0  0  0  0  0  0  0  0  0  0  0
    9.0678   46.9710  133.8053 H   0  0  0  0  0  0  0  0  0  0  0  0
    8.5213   45.7998  130.9937 C   0  0  0  0  0  0  0  0  0  0  0  0
    7.2097   45.4787  130.7173 C   0  0  0  0  0  0  0  0  0  0  0  0
    6.7331   44.3194  131.1527 F   0  0  0  0  0  0  0  0  0  0  0  0
    6.3749   46.3205  130.0039 C   0  0  0  0  0  0  0  0  0  0  0  0
    6.8536   47.4962  129.5608 N   0  0  0  0  0  0  0  0  0  0  0  0
    8.1187   47.8873  129.7854 C   0  0  0  0  0  0  0  0  0  0  0  0
    8.9404   47.0322  130.5012 C   0  0  0  0  0  0  0  0  0  0  0  0
   10.2130   47.4627  130.7067 F   0  0  0  0  0  0  0  0  0  0  0  0
    8.5516   49.0950  129.3112 O   0  0  0  0  0  0  0  0  0  0  0  0
    8.3400   50.3566  129.8627 C   0  0  0  0  0  0  0  0  0  0  0  0
    7.1304   51.0748  129.3742 C   0  0  0  0  0  0  0  0  0  0  0  0
    7.3359   51.6963  128.0772 N   0  0  0  0  0  0  0  0  0  0  0  0
    8.3176   51.7336  127.7792 H   0  0  0  0  0  0  0  0  0  0  0  0
    6.6521   52.9487  127.9363 C   0  0  0  0  0  0  0  0  0  0  0  0
    7.5256   54.0259  127.3433 C   0  0  0  0  0  0  0  0  0  0  0  0
    8.1003   53.6623  126.0059 C   0  0  0  0  0  0  0  0  0  0  0  0
    9.0251   54.5689  125.5383 F   0  0  0  0  0  0  0  0  0  0  0  0
    9.5150   43.4308  129.8903 C   0  0  0  0  0  0  0  0  0  0  0  0
    9.8044   43.8331  128.5251 C   0  0  0  0  0  0  0  0  0  0  0  0
   10.1026   42.7835  127.6566 F   0  0  0  0  0  0  0  0  0  0  0  0
    8.5484   44.2697  127.9069 F   0  0  0  0  0  0  0  0  0  0  0  0
   10.7007   44.9694  128.2045 C   0  0  0  0  0  0  0  0  0  0  0  0
   11.8962   45.0838  128.8287 O   0  0  0  0  0  0  0  0  0  0  0  0
   12.6268   44.6358  128.3421 H   0  0  0  0  0  0  0  0  0  0  0  0
  1  2  1  0  0  0
  2  3  1  0  0  0
  3  4  1  0  0  0
  4  5  2  0  0  0
  5  6  1  0  0  0
  6  7  1  0  0  0
  7  8  2  0  0  0
  8  9  1  0  0  0
  9 10  2  0  0  0
 10 11  1  0  0  0
 11 12  2  0  0  0
  5 13  1  0  0  0
 13 16  1  0  0  0
 16 17  2  0  0  0
 17 18  1  0  0  0
 17 19  1  0  0  0
 19 20  2  0  0  0
 20 21  1  0  0  0
 21 24  1  0  0  0
 24 25  1  0  0  0
 25 26  1  0  0  0
 26 27  1  0  0  0
 27 29  1  0  0  0
 29 30  1  0  0  0
 30 31  1  0  0  0
 31 32  1  0  0  0
 21 22  2  0  0  0
 22 23  1  0  0  0
 13 14  1  0  0  0
 14 33  1  0  0  0
 33 34  1  0  0  0
 34 35  1  0  0  0
 34 36  1  0  0  0
 34 37  1  0  0  0
 37 38  1  0  0  0
 14  2  1  0  0  0
 12  4  1  0  0  0
 22 16  1  0  0  0
 12  7  1  0  0  0
  6 15  1  0  0  0
 27 28  1  0  0  0
 38 39  1  0  0  0
M  END
> <minimizedAffinity>
4.15537

> <CNNscore>
0.3645449281

> <CNNaffinity>
7.6739602089

> <CNN_VS>
2.7975032330

> <CNNaffinity_variance>
0.2209994495

$$$$
[H]OC([H])([H])C(F)(F)C([H])([H])N1[C@]([H])(c2c(F)c([H])nc(OC([H])([H])C([H])([H])N([H])C([H])([H])C([H])([H])C([H])([H])F)c2F)c2c(c3c([H])c([H])c([H])c([H])c3n2[H])C([H])([H])[C@@]1([H])C([H])([H])[H]


 39 42  0  0  0  0  0  0  0  0999 V2000
   10.4407   41.7149  130.1985 C   0  0  0  0  0  0  0  0  0  0  0  0
   11.0680   42.8734  130.9263 C   0  0  0  0  0  0  0  0  0  0  0  0
   10.8468   42.4828  132.4171 C   0  0  0  0  0  0  0  0  0  0  0  0
    9.3946   42.6205  132.6315 C   0  0  0  0  0  0  0  0  0  0  0  0
    8.6766   43.5505  131.9246 C   0  0  0  0  0  0  0  0  0  0  0  0
    7.3981   43.4235  132.3434 N   0  0  0  0  0  0  0  0  0  0  0  0
    7.2743   42.4684  133.2715 C   0  0  0  0  0  0  0  0  0  0  0  0
    6.2181   41.9559  134.0018 C   0  0  0  0  0  0  0  0  0  0  0  0
    6.4204   40.9413  134.9097 C   0  0  0  0  0  0  0  0  0  0  0  0
    7.6941   40.4021  135.1188 C   0  0  0  0  0  0  0  0  0  0  0  0
    8.7256   40.9323  134.3775 C   0  0  0  0  0  0  0  0  0  0  0  0
    8.5363   41.9453  133.4682 C   0  0  0  0  0  0  0  0  0  0  0  0
    9.2718   44.4753  130.9166 C   0  0  0  0  0  0  0  0  0  0  0  0
   10.6377   44.1577  130.6398 N   0  0  0  0  0  0  0  0  0  0  0  0
    6.5985   43.9920  131.9952 H   0  0  0  0  0  0  0  0  0  0  0  0
    8.9076   45.8651  131.1377 C   0  0  0  0  0  0  0  0  0  0  0  0
    9.2965   46.5715  132.2555 C   0  0  0  0  0  0  0  0  0  0  0  0
   10.0325   45.9567  133.1725 F   0  0  0  0  0  0  0  0  0  0  0  0
    8.9474   47.8956  132.4543 C   0  0  0  0  0  0  0  0  0  0  0  0
    8.2016   48.5225  131.5276 N   0  0  0  0  0  0  0  0  0  0  0  0
    7.7799   47.9092  130.4097 C   0  0  0  0  0  0  0  0  0  0  0  0
    8.1387   46.5838  130.2270 C   0  0  0  0  0  0  0  0  0  0  0  0
    7.6921   45.9982  129.0847 F   0  0  0  0  0  0  0  0  0  0  0  0
    7.0238   48.5967  129.5006 O   0  0  0  0  0  0  0  0  0  0  0  0
    7.4010   49.6933  128.7287 C   0  0  0  0  0  0  0  0  0  0  0  0
    7.5666   50.9733  129.4715 C   0  0  0  0  0  0  0  0  0  0  0  0
    6.7072   52.0288  128.9635 N   0  0  0  0  0  0  0  0  0  0  0  0
    5.7048   51.8111  129.0037 H   0  0  0  0  0  0  0  0  0  0  0  0
    7.1274   52.5353  127.6897 C   0  0  0  0  0  0  0  0  0  0  0  0
    6.8345   54.0053  127.5217 C   0  0  0  0  0  0  0  0  0  0  0  0
    7.6561   54.6614  126.4514 C   0  0  0  0  0  0  0  0  0  0  0  0
    8.7864   53.9523  126.1116 F   0  0  0  0  0  0  0  0  0  0  0  0
   11.4018   45.1585  130.0905 C   0  0  0  0  0  0  0  0  0  0  0  0
   12.1692   45.1323  128.8576 C   0  0  0  0  0  0  0  0  0  0  0  0
   11.6018   44.3776  127.8313 F   0  0  0  0  0  0  0  0  0  0  0  0
   12.0640   46.4543  128.2318 F   0  0  0  0  0  0  0  0  0  0  0  0
   13.6351   44.9133  128.8385 C   0  0  0  0  0  0  0  0  0  0  0  0
   14.2094   44.1043  129.7592 O   0  0  0  0  0  0  0  0  0  0  0  0
   14.2714   43.1674  129.4601 H   0  0  0  0  0  0  0  0  0  0  0  0
  1  2  1  0  0  0
  2  3  1  0  0  0
  3  4  1  0  0  0
  4  5  2  0  0  0
  5  6  1  0  0  0
  6  7  1  0  0  0
  7  8  2  0  0  0
  8  9  1  0  0  0
  9 10  2  0  0  0
 10 11  1  0  0  0
 11 12  2  0  0  0
  5 13  1  0  0  0
 13 16  1  0  0  0
 16 17  2  0  0  0
 17 18  1  0  0  0
 17 19  1  0  0  0
 19 20  2  0  0  0
 20 21  1  0  0  0
 21 24  1  0  0  0
 24 25  1  0  0  0
 25 26  1  0  0  0
 26 27  1  0  0  0
 27 29  1  0  0  0
 29 30  1  0  0  0
 30 31  1  0  0  0
 31 32  1  0  0  0
 21 22  2  0  0  0
 22 23  1  0  0  0
 13 14  1  0  0  0
 14 33  1  0  0  0
 33 34  1  0  0  0
 34 35  1  0  0  0
 34 36  1  0  0  0
 34 37  1  0  0  0
 37 38  1  0  0  0
 14  2  1  0  0  0
 12  4  1  0  0  0
 22 16  1  0  0  0
 12  7  1  0  0  0
  6 15  1  0  0  0
 27 28  1  0  0  0
 38 39  1  0  0  0
M  END
> <minimizedAffinity>
10.78046

> <CNNscore>
0.3594041765

> <CNNaffinity>
7.6313486099

> <CNN_VS>
2.7427384853

> <CNNaffinity_variance>
1.0332795382

$$$$
[H]OC([H])([H])C(F)(F)C([H])([H])N1[C@]([H])(c2c(F)c([H])nc(OC([H])([H])C([H])([H])N([H])C([H])([H])C([H])([H])C([H])([H])F)c2F)c2c(c3c([H])c([H])c([H])c([H])c3n2[H])C([H])([H])[C@@]1([H])C([H])([H])[H]


 39 42  0  0  0  0  0  0  0  0999 V2000
   11.2019   43.5766  134.9287 C   0  0  0  0  0  0  0  0  0  0  0  0
   11.6506   43.7565  133.5034 C   0  0  0  0  0  0  0  0  0  0  0  0
   12.9725   44.5611  133.6746 C   0  0  0  0  0  0  0  0  0  0  0  0
   12.5444   45.8978  134.1262 C   0  0  0  0  0  0  0  0  0  0  0  0
   11.3341   46.4064  133.7305 C   0  0  0  0  0  0  0  0  0  0  0  0
   11.2413   47.6250  134.3071 N   0  0  0  0  0  0  0  0  0  0  0  0
   12.3233   47.9088  135.0405 C   0  0  0  0  0  0  0  0  0  0  0  0
   12.7188   48.9873  135.8096 C   0  0  0  0  0  0  0  0  0  0  0  0
   13.9309   48.9765  136.4618 C   0  0  0  0  0  0  0  0  0  0  0  0
   14.7933   47.8793  136.3658 C   0  0  0  0  0  0  0  0  0  0  0  0
   14.3725   46.8206  135.5933 C   0  0  0  0  0  0  0  0  0  0  0  0
   13.1649   46.8197  134.9373 C   0  0  0  0  0  0  0  0  0  0  0  0
   10.3772   45.6879  132.8396 C   0  0  0  0  0  0  0  0  0  0  0  0
   10.7829   44.3392  132.5955 N   0  0  0  0  0  0  0  0  0  0  0  0
   10.4335   48.2731  134.2022 H   0  0  0  0  0  0  0  0  0  0  0  0
    9.9292   46.4975  131.7185 C   0  0  0  0  0  0  0  0  0  0  0  0
   10.5589   46.4911  130.4925 C   0  0  0  0  0  0  0  0  0  0  0  0
   11.6227   45.7154  130.3276 F   0  0  0  0  0  0  0  0  0  0  0  0
   10.1218   47.2630  129.4306 C   0  0  0  0  0  0  0  0  0  0  0  0
    9.0443   48.0506  129.5932 N   0  0  0  0  0  0  0  0  0  0  0  0
    8.3718   48.1173  130.7539 C   0  0  0  0  0  0  0  0  0  0  0  0
    8.8232   47.3379  131.8062 C   0  0  0  0  0  0  0  0  0  0  0  0
    8.1173   47.4338  132.9637 F   0  0  0  0  0  0  0  0  0  0  0  0
    7.2814   48.9360  130.8621 O   0  0  0  0  0  0  0  0  0  0  0  0
    7.2107   50.3046  130.6118 C   0  0  0  0  0  0  0  0  0  0  0  0
    7.3066   50.6998  129.1793 C   0  0  0  0  0  0  0  0  0  0  0  0
    6.9007   49.6351  128.2780 N   0  0  0  0  0  0  0  0  0  0  0  0
    6.8795   49.9068  127.2883 H   0  0  0  0  0  0  0  0  0  0  0  0
    5.7128   48.9553  128.7056 C   0  0  0  0  0  0  0  0  0  0  0  0
    5.7733   47.4679  128.4626 C   0  0  0  0  0  0  0  0  0  0  0  0
    4.9234   46.6715  129.4084 C   0  0  0  0  0  0  0  0  0  0  0  0
    3.9550   47.4180  130.0414 F   0  0  0  0  0  0  0  0  0  0  0  0
   10.2544   43.7306  131.4831 C   0  0  0  0  0  0  0  0  0  0  0  0
    8.8752   43.3492  131.2347 C   0  0  0  0  0  0  0  0  0  0  0  0
    8.4437   42.2243  131.9371 F   0  0  0  0  0  0  0  0  0  0  0  0
    8.0090   44.3442  131.8750 F   0  0  0  0  0  0  0  0  0  0  0  0
    8.2997   43.2928  129.8699 C   0  0  0  0  0  0  0  0  0  0  0  0
    8.1640   44.4286  129.1464 O   0  0  0  0  0  0  0  0  0  0  0  0
    8.9510   44.6218  128.5856 H   0  0  0  0  0  0  0  0  0  0  0  0
  1  2  1  0  0  0
  2  3  1  0  0  0
  3  4  1  0  0  0
  4  5  2  0  0  0
  5  6  1  0  0  0
  6  7  1  0  0  0
  7  8  2  0  0  0
  8  9  1  0  0  0
  9 10  2  0  0  0
 10 11  1  0  0  0
 11 12  2  0  0  0
  5 13  1  0  0  0
 13 16  1  0  0  0
 16 17  2  0  0  0
 17 18  1  0  0  0
 17 19  1  0  0  0
 19 20  2  0  0  0
 20 21  1  0  0  0
 21 24  1  0  0  0
 24 25  1  0  0  0
 25 26  1  0  0  0
 26 27  1  0  0  0
 27 29  1  0  0  0
 29 30  1  0  0  0
 30 31  1  0  0  0
 31 32  1  0  0  0
 21 22  2  0  0  0
 22 23  1  0  0  0
 13 14  1  0  0  0
 14 33  1  0  0  0
 33 34  1  0  0  0
 34 35  1  0  0  0
 34 36  1  0  0  0
 34 37  1  0  0  0
 37 38  1  0  0  0
 14  2  1  0  0  0
 12  4  1  0  0  0
 22 16  1  0  0  0
 12  7  1  0  0  0
  6 15  1  0  0  0
 27 28  1  0  0  0
 38 39  1  0  0  0
M  END
> <minimizedAffinity>
6.39250

> <CNNscore>
0.2826311886

> <CNNaffinity>
7.8277273178

> <CNN_VS>
2.2123599052

> <CNNaffinity_variance>
0.1818288565

$$$$
[H]OC([H])([H])C(F)(F)C([H])([H])N1[C@]([H])(c2c(F)c([H])nc(OC([H])([H])C([H])([H])N([H])C([H])([H])C([H])([H])C([H])([H])F)c2F)c2c(c3c([H])c([H])c([H])c([H])c3n2[H])C([H])([H])[C@@]1([H])C([H])([H])[H]


 39 42  0  0  0  0  0  0  0  0999 V2000
    9.7792   49.9309  132.2343 C   0  0  0  0  0  0  0  0  0  0  0  0
    8.6082   49.1943  131.6414 C   0  0  0  0  0  0  0  0  0  0  0  0
    8.0185   48.4624  132.8827 C   0  0  0  0  0  0  0  0  0  0  0  0
    9.0114   47.4244  133.2152 C   0  0  0  0  0  0  0  0  0  0  0  0
    9.7735   46.8550  132.2277 C   0  0  0  0  0  0  0  0  0  0  0  0
   10.5719   45.9597  132.8497 N   0  0  0  0  0  0  0  0  0  0  0  0
   10.3537   45.9354  134.1692 C   0  0  0  0  0  0  0  0  0  0  0  0
   10.8851   45.2225  135.2278 C   0  0  0  0  0  0  0  0  0  0  0  0
   10.4344   45.4325  136.5112 C   0  0  0  0  0  0  0  0  0  0  0  0
    9.4304   46.3688  136.7803 C   0  0  0  0  0  0  0  0  0  0  0  0
    8.9207   47.0632  135.7067 C   0  0  0  0  0  0  0  0  0  0  0  0
    9.3624   46.8623  134.4209 C   0  0  0  0  0  0  0  0  0  0  0  0
    9.6721   47.2135  130.7831 C   0  0  0  0  0  0  0  0  0  0  0  0
    8.8233   48.3438  130.5705 N   0  0  0  0  0  0  0  0  0  0  0  0
   11.2745   45.3570  132.3735 H   0  0  0  0  0  0  0  0  0  0  0  0
    9.5213   46.0532  129.9204 C   0  0  0  0  0  0  0  0  0  0  0  0
    8.3553   45.3220  129.8473 C   0  0  0  0  0  0  0  0  0  0  0  0
    7.3255   45.6896  130.5990 F   0  0  0  0  0  0  0  0  0  0  0  0
    8.2212   44.2213  129.0197 C   0  0  0  0  0  0  0  0  0  0  0  0
    9.2621   43.8452  128.2562 N   0  0  0  0  0  0  0  0  0  0  0  0
   10.4342   44.5009  128.2661 C   0  0  0  0  0  0  0  0  0  0  0  0
   10.5508   45.6004  129.1004 C   0  0  0  0  0  0  0  0  0  0  0  0
   11.7518   46.2363  129.0831 F   0  0  0  0  0  0  0  0  0  0  0  0
   11.4593   44.0737  127.4676 O   0  0  0  0  0  0  0  0  0  0  0  0
   12.7437   43.6961  127.8527 C   0  0  0  0  0  0  0  0  0  0  0  0
   13.3685   44.5369  128.9112 C   0  0  0  0  0  0  0  0  0  0  0  0
   13.5530   43.8170  130.1595 N   0  0  0  0  0  0  0  0  0  0  0  0
   13.6908   42.8060  130.0460 H   0  0  0  0  0  0  0  0  0  0  0  0
   12.5732   44.1482  131.1526 C   0  0  0  0  0  0  0  0  0  0  0  0
   12.1113   42.9466  131.9388 C   0  0  0  0  0  0  0  0  0  0  0  0
   10.6267   42.7346  131.8919 C   0  0  0  0  0  0  0  0  0  0  0  0
   10.1843   42.1938  130.7056 F   0  0  0  0  0  0  0  0  0  0  0  0
    8.3094   48.4967  129.3057 C   0  0  0  0  0  0  0  0  0  0  0  0
    6.9322   48.7452  128.9171 C   0  0  0  0  0  0  0  0  0  0  0  0
    6.5643   48.2012  127.6868 F   0  0  0  0  0  0  0  0  0  0  0  0
    6.0664   47.9312  129.7763 F   0  0  0  0  0  0  0  0  0  0  0  0
    6.2998   50.0800  129.0419 C   0  0  0  0  0  0  0  0  0  0  0  0
    7.0569   51.1978  128.9469 O   0  0  0  0  0  0  0  0  0  0  0  0
    7.1203   51.5401  128.0249 H   0  0  0  0  0  0  0  0  0  0  0  0
  1  2  1  0  0  0
  2  3  1  0  0  0
  3  4  1  0  0  0
  4  5  2  0  0  0
  5  6  1  0  0  0
  6  7  1  0  0  0
  7  8  2  0  0  0
  8  9  1  0  0  0
  9 10  2  0  0  0
 10 11  1  0  0  0
 11 12  2  0  0  0
  5 13  1  0  0  0
 13 16  1  0  0  0
 16 17  2  0  0  0
 17 18  1  0  0  0
 17 19  1  0  0  0
 19 20  2  0  0  0
 20 21  1  0  0  0
 21 24  1  0  0  0
 24 25  1  0  0  0
 25 26  1  0  0  0
 26 27  1  0  0  0
 27 29  1  0  0  0
 29 30  1  0  0  0
 30 31  1  0  0  0
 31 32  1  0  0  0
 21 22  2  0  0  0
 22 23  1  0  0  0
 13 14  1  0  0  0
 14 33  1  0  0  0
 33 34  1  0  0  0
 34 35  1  0  0  0
 34 36  1  0  0  0
 34 37  1  0  0  0
 37 38  1  0  0  0
 14  2  1  0  0  0
 12  4  1  0  0  0
 22 16  1  0  0  0
 12  7  1  0  0  0
  6 15  1  0  0  0
 27 28  1  0  0  0
 38 39  1  0  0  0
M  END
> <minimizedAffinity>
1.19606

> <CNNscore>
0.2533874810

> <CNNaffinity>
7.7533125877

> <CNN_VS>
1.9645923376

> <CNNaffinity_variance>
0.2444161922

$$$$
[H]OC([H])([H])C(F)(F)C([H])([H])N1[C@]([H])(c2c(F)c([H])nc(OC([H])([H])C([H])([H])N([H])C([H])([H])C([H])([H])C([H])([H])F)c2F)c2c(c3c([H])c([H])c([H])c([H])c3n2[H])C([H])([H])[C@@]1([H])C([H])([H])[H]


 39 42  0  0  0  0  0  0  0  0999 V2000
   10.7144   42.9152  133.0779 C   0  0  0  0  0  0  0  0  0  0  0  0
    9.6938   43.7354  132.3357 C   0  0  0  0  0  0  0  0  0  0  0  0
   10.1658   43.5888  130.8592 C   0  0  0  0  0  0  0  0  0  0  0  0
   11.4209   44.3590  130.7865 C   0  0  0  0  0  0  0  0  0  0  0  0
   11.6072   45.4547  131.5896 C   0  0  0  0  0  0  0  0  0  0  0  0
   12.8370   45.9266  131.2880 N   0  0  0  0  0  0  0  0  0  0  0  0
   13.4311   45.1902  130.3426 C   0  0  0  0  0  0  0  0  0  0  0  0
   14.6524   45.2419  129.6968 C   0  0  0  0  0  0  0  0  0  0  0  0
   14.9792   44.3090  128.7389 C   0  0  0  0  0  0  0  0  0  0  0  0
   14.0893   43.2866  128.3929 C   0  0  0  0  0  0  0  0  0  0  0  0
   12.8815   43.2607  129.0526 C   0  0  0  0  0  0  0  0  0  0  0  0
   12.5438   44.1865  130.0105 C   0  0  0  0  0  0  0  0  0  0  0  0
   10.5987   45.9533  132.5694 C   0  0  0  0  0  0  0  0  0  0  0  0
    9.4956   45.0546  132.7060 N   0  0  0  0  0  0  0  0  0  0  0  0
   13.2797   46.7591  131.7291 H   0  0  0  0  0  0  0  0  0  0  0  0
   10.3298   47.3753  132.4321 C   0  0  0  0  0  0  0  0  0  0  0  0
   10.4758   48.2678  133.4721 C   0  0  0  0  0  0  0  0  0  0  0  0
   10.8758   47.8105  134.6517 F   0  0  0  0  0  0  0  0  0  0  0  0
   10.2207   49.6203  133.3296 C   0  0  0  0  0  0  0  0  0  0  0  0
    9.8151   50.0881  132.1361 N   0  0  0  0  0  0  0  0  0  0  0  0
    9.6470   49.2882  131.0704 C   0  0  0  0  0  0  0  0  0  0  0  0
    9.9069   47.9371  131.2310 C   0  0  0  0  0  0  0  0  0  0  0  0
    9.7242   47.1608  130.1306 F   0  0  0  0  0  0  0  0  0  0  0  0
    9.2329   49.8193  129.8799 O   0  0  0  0  0  0  0  0  0  0  0  0
    7.9989   49.6576  129.2539 C   0  0  0  0  0  0  0  0  0  0  0  0
    6.8076   49.8556  130.1252 C   0  0  0  0  0  0  0  0  0  0  0  0
    5.5601   49.5640  129.4400 N   0  0  0  0  0  0  0  0  0  0  0  0
    4.7265   49.9433  129.9039 H   0  0  0  0  0  0  0  0  0  0  0  0
    5.4267   48.1846  129.0723 C   0  0  0  0  0  0  0  0  0  0  0  0
    6.7574   47.4905  128.9216 C   0  0  0  0  0  0  0  0  0  0  0  0
    6.8617   46.2178  129.7093 C   0  0  0  0  0  0  0  0  0  0  0  0
    6.6429   46.3848  131.0583 F   0  0  0  0  0  0  0  0  0  0  0  0
    8.3339   45.5812  133.2162 C   0  0  0  0  0  0  0  0  0  0  0  0
    8.0865   46.0885  134.5544 C   0  0  0  0  0  0  0  0  0  0  0  0
    7.6090   47.3978  134.6047 F   0  0  0  0  0  0  0  0  0  0  0  0
    6.8992   45.4092  135.0828 F   0  0  0  0  0  0  0  0  0  0  0  0
    9.0503   45.9033  135.6653 C   0  0  0  0  0  0  0  0  0  0  0  0
    9.9523   44.8953  135.6161 O   0  0  0  0  0  0  0  0  0  0  0  0
   10.8022   45.1622  135.1947 H   0  0  0  0  0  0  0  0  0  0  0  0
  1  2  1  0  0  0
  2  3  1  0  0  0
  3  4  1  0  0  0
  4  5  2  0  0  0
  5  6  1  0  0  0
  6  7  1  0  0  0
  7  8  2  0  0  0
  8  9  1  0  0  0
  9 10  2  0  0  0
 10 11  1  0  0  0
 11 12  2  0  0  0
  5 13  1  0  0  0
 13 16  1  0  0  0
 16 17  2  0  0  0
 17 18  1  0  0  0
 17 19  1  0  0  0
 19 20  2  0  0  0
 20 21  1  0  0  0
 21 24  1  0  0  0
 24 25  1  0  0  0
 25 26  1  0  0  0
 26 27  1  0  0  0
 27 29  1  0  0  0
 29 30  1  0  0  0
 30 31  1  0  0  0
 31 32  1  0  0  0
 21 22  2  0  0  0
 22 23  1  0  0  0
 13 14  1  0  0  0
 14 33  1  0  0  0
 33 34  1  0  0  0
 34 35  1  0  0  0
 34 36  1  0  0  0
 34 37  1  0  0  0
 37 38  1  0  0  0
 14  2  1  0  0  0
 12  4  1  0  0  0
 22 16  1  0  0  0
 12  7  1  0  0  0
  6 15  1  0  0  0
 27 28  1  0  0  0
 38 39  1  0  0  0
M  END
> <minimizedAffinity>
5.51233

> <CNNscore>
0.2481469959

> <CNNaffinity>
7.7533216476

> <CNN_VS>
1.9239634275

> <CNNaffinity_variance>
0.1835284680

$$$$
[H]OC([H])([H])C(F)(F)C([H])([H])N1[C@]([H])(c2c(F)c([H])nc(OC([H])([H])C([H])([H])N([H])C([H])([H])C([H])([H])C([H])([H])F)c2F)c2c(c3c([H])c([H])c([H])c([H])c3n2[H])C([H])([H])[C@@]1([H])C([H])([H])[H]


 39 42  0  0  0  0  0  0  0  0999 V2000
   12.1969   42.3817  132.6969 C   0  0  0  0  0  0  0  0  0  0  0  0
   10.9764   43.0433  133.2783 C   0  0  0  0  0  0  0  0  0  0  0  0
    9.9387   42.8861  132.1282 C   0  0  0  0  0  0  0  0  0  0  0  0
   10.4123   43.7930  131.0666 C   0  0  0  0  0  0  0  0  0  0  0  0
   11.0944   44.9380  131.3888 C   0  0  0  0  0  0  0  0  0  0  0  0
   11.3858   45.5357  130.2124 N   0  0  0  0  0  0  0  0  0  0  0  0
   10.9256   44.8314  129.1726 C   0  0  0  0  0  0  0  0  0  0  0  0
   10.9546   44.9956  127.8002 C   0  0  0  0  0  0  0  0  0  0  0  0
   10.3723   44.0647  126.9701 C   0  0  0  0  0  0  0  0  0  0  0  0
    9.7374   42.9312  127.4887 C   0  0  0  0  0  0  0  0  0  0  0  0
    9.7245   42.7948  128.8583 C   0  0  0  0  0  0  0  0  0  0  0  0
   10.3022   43.7173  129.6973 C   0  0  0  0  0  0  0  0  0  0  0  0
   11.4057   45.3596  132.7856 C   0  0  0  0  0  0  0  0  0  0  0  0
   11.0739   44.3459  133.7371 N   0  0  0  0  0  0  0  0  0  0  0  0
   11.9039   46.4331  130.1130 H   0  0  0  0  0  0  0  0  0  0  0  0
   11.0183   46.7331  133.0628 C   0  0  0  0  0  0  0  0  0  0  0  0
   11.7473   47.5642  133.8859 C   0  0  0  0  0  0  0  0  0  0  0  0
   12.8492   47.0907  134.4536 F   0  0  0  0  0  0  0  0  0  0  0  0
   11.3716   48.8714  134.1401 C   0  0  0  0  0  0  0  0  0  0  0  0
   10.2557   49.3553  133.5670 N   0  0  0  0  0  0  0  0  0  0  0  0
    9.4870   48.6142  132.7523 C   0  0  0  0  0  0  0  0  0  0  0  0
    9.8782   47.3078  132.5089 C   0  0  0  0  0  0  0  0  0  0  0  0
    9.0743   46.5902  131.6808 F   0  0  0  0  0  0  0  0  0  0  0  0
    8.3624   49.1591  132.1962 O   0  0  0  0  0  0  0  0  0  0  0  0
    8.0521   49.2869  130.8442 C   0  0  0  0  0  0  0  0  0  0  0  0
    7.4156   48.0954  130.2175 C   0  0  0  0  0  0  0  0  0  0  0  0
    6.9822   48.3465  128.8538 N   0  0  0  0  0  0  0  0  0  0  0  0
    7.7265   48.2571  128.1524 H   0  0  0  0  0  0  0  0  0  0  0  0
    6.2156   49.5505  128.7174 C   0  0  0  0  0  0  0  0  0  0  0  0
    7.0289   50.7013  128.1795 C   0  0  0  0  0  0  0  0  0  0  0  0
    6.9364   51.9430  129.0166 C   0  0  0  0  0  0  0  0  0  0  0  0
    6.4755   51.7139  130.2937 F   0  0  0  0  0  0  0  0  0  0  0  0
   10.9003   44.7563  135.0365 C   0  0  0  0  0  0  0  0  0  0  0  0
    9.6825   45.2161  135.6808 C   0  0  0  0  0  0  0  0  0  0  0  0
    9.6283   44.9931  137.0563 F   0  0  0  0  0  0  0  0  0  0  0  0
    9.7097   46.6820  135.7044 F   0  0  0  0  0  0  0  0  0  0  0  0
    8.3373   44.9557  135.1152 C   0  0  0  0  0  0  0  0  0  0  0  0
    8.0635   45.3028  133.8360 O   0  0  0  0  0  0  0  0  0  0  0  0
    8.2491   44.5782  133.1944 H   0  0  0  0  0  0  0  0  0  0  0  0
  1  2  1  0  0  0
  2  3  1  0  0  0
  3  4  1  0  0  0
  4  5  2  0  0  0
  5  6  1  0  0  0
  6  7  1  0  0  0
  7  8  2  0  0  0
  8  9  1  0  0  0
  9 10  2  0  0  0
 10 11  1  0  0  0
 11 12  2  0  0  0
  5 13  1  0  0  0
 13 16  1  0  0  0
 16 17  2  0  0  0
 17 18  1  0  0  0
 17 19  1  0  0  0
 19 20  2  0  0  0
 20 21  1  0  0  0
 21 24  1  0  0  0
 24 25  1  0  0  0
 25 26  1  0  0  0
 26 27  1  0  0  0
 27 29  1  0  0  0
 29 30  1  0  0  0
 30 31  1  0  0  0
 31 32  1  0  0  0
 21 22  2  0  0  0
 22 23  1  0  0  0
 13 14  1  0  0  0
 14 33  1  0  0  0
 33 34  1  0  0  0
 34 35  1  0  0  0
 34 36  1  0  0  0
 34 37  1  0  0  0
 37 38  1  0  0  0
 14  2  1  0  0  0
 12  4  1  0  0  0
 22 16  1  0  0  0
 12  7  1  0  0  0
  6 15  1  0  0  0
 27 28  1  0  0  0
 38 39  1  0  0  0
M  END
> <minimizedAffinity>
3.39883

> <CNNscore>
0.2304152846

> <CNNaffinity>
7.6511774063

> <CNN_VS>
1.7629482746

> <CNNaffinity_variance>
0.5001215935

$$$$
[H]OC([H])([H])C(F)(F)C([H])([H])N1[C@]([H])(c2c(F)c([H])nc(OC([H])([H])C([H])([H])N([H])C([H])([H])C([H])([H])C([H])([H])F)c2F)c2c(c3c([H])c([H])c([H])c([H])c3n2[H])C([H])([H])[C@@]1([H])C([H])([H])[H]


 39 42  0  0  0  0  0  0  0  0999 V2000
   10.1235   43.7807  133.2493 C   0  0  0  0  0  0  0  0  0  0  0  0
    8.7987   44.4690  133.0581 C   0  0  0  0  0  0  0  0  0  0  0  0
    8.2943   43.8450  131.7238 C   0  0  0  0  0  0  0  0  0  0  0  0
    9.1826   44.4023  130.6875 C   0  0  0  0  0  0  0  0  0  0  0  0
    9.7249   45.6522  130.8409 C   0  0  0  0  0  0  0  0  0  0  0  0
   10.4796   45.8632  129.7401 N   0  0  0  0  0  0  0  0  0  0  0  0
   10.4410   44.8180  128.9063 C   0  0  0  0  0  0  0  0  0  0  0  0
   11.0158   44.5314  127.6820 C   0  0  0  0  0  0  0  0  0  0  0  0
   10.7736   43.3286  127.0581 C   0  0  0  0  0  0  0  0  0  0  0  0
    9.9430   42.3662  127.6418 C   0  0  0  0  0  0  0  0  0  0  0  0
    9.3852   42.6797  128.8605 C   0  0  0  0  0  0  0  0  0  0  0  0
    9.6193   43.8770  129.4932 C   0  0  0  0  0  0  0  0  0  0  0  0
    9.4752   46.5320  132.0196 C   0  0  0  0  0  0  0  0  0  0  0  0
    8.7565   45.8527  133.0517 N   0  0  0  0  0  0  0  0  0  0  0  0
   11.0285   46.7273  129.5514 H   0  0  0  0  0  0  0  0  0  0  0  0
    9.0622   47.8751  131.6471 C   0  0  0  0  0  0  0  0  0  0  0  0
    9.7484   49.0043  132.0390 C   0  0  0  0  0  0  0  0  0  0  0  0
   10.8315   48.8614  132.7922 F   0  0  0  0  0  0  0  0  0  0  0  0
    9.3487   50.2782  131.6756 C   0  0  0  0  0  0  0  0  0  0  0  0
    8.2518   50.4277  130.9125 N   0  0  0  0  0  0  0  0  0  0  0  0
    7.5247   49.3817  130.4869 C   0  0  0  0  0  0  0  0  0  0  0  0
    7.9393   48.1138  130.8601 C   0  0  0  0  0  0  0  0  0  0  0  0
    7.1773   47.0820  130.4109 F   0  0  0  0  0  0  0  0  0  0  0  0
    6.4178   49.5932  129.7118 O   0  0  0  0  0  0  0  0  0  0  0  0
    6.0435   50.7637  129.0556 C   0  0  0  0  0  0  0  0  0  0  0  0
    7.1640   51.6549  128.6458 C   0  0  0  0  0  0  0  0  0  0  0  0
    6.7057   52.8402  127.9419 N   0  0  0  0  0  0  0  0  0  0  0  0
    5.9575   52.6629  127.2617 H   0  0  0  0  0  0  0  0  0  0  0  0
    7.7772   53.6327  127.4130 C   0  0  0  0  0  0  0  0  0  0  0  0
    7.3164   54.6040  126.3551 C   0  0  0  0  0  0  0  0  0  0  0  0
    7.9130   54.3446  125.0031 C   0  0  0  0  0  0  0  0  0  0  0  0
    9.2883   54.4073  124.9861 F   0  0  0  0  0  0  0  0  0  0  0  0
    8.0996   46.6419  133.9643 C   0  0  0  0  0  0  0  0  0  0  0  0
    8.6673   47.4560  135.0248 C   0  0  0  0  0  0  0  0  0  0  0  0
    8.8850   48.7908  134.6848 F   0  0  0  0  0  0  0  0  0  0  0  0
    7.6299   47.6622  136.0405 F   0  0  0  0  0  0  0  0  0  0  0  0
    9.8058   46.9973  135.8558 C   0  0  0  0  0  0  0  0  0  0  0  0
   10.0196   45.6732  136.0371 O   0  0  0  0  0  0  0  0  0  0  0  0
   10.6227   45.2864  135.3604 H   0  0  0  0  0  0  0  0  0  0  0  0
  1  2  1  0  0  0
  2  3  1  0  0  0
  3  4  1  0  0  0
  4  5  2  0  0  0
  5  6  1  0  0  0
  6  7  1  0  0  0
  7  8  2  0  0  0
  8  9  1  0  0  0
  9 10  2  0  0  0
 10 11  1  0  0  0
 11 12  2  0  0  0
  5 13  1  0  0  0
 13 16  1  0  0  0
 16 17  2  0  0  0
 17 18  1  0  0  0
 17 19  1  0  0  0
 19 20  2  0  0  0
 20 21  1  0  0  0
 21 24  1  0  0  0
 24 25  1  0  0  0
 25 26  1  0  0  0
 26 27  1  0  0  0
 27 29  1  0  0  0
 29 30  1  0  0  0
 30 31  1  0  0  0
 31 32  1  0  0  0
 21 22  2  0  0  0
 22 23  1  0  0  0
 13 14  1  0  0  0
 14 33  1  0  0  0
 33 34  1  0  0  0
 34 35  1  0  0  0
 34 36  1  0  0  0
 34 37  1  0  0  0
 37 38  1  0  0  0
 14  2  1  0  0  0
 12  4  1  0  0  0
 22 16  1  0  0  0
 12  7  1  0  0  0
  6 15  1  0  0  0
 27 28  1  0  0  0
 38 39  1  0  0  0
M  END
> <minimizedAffinity>
-0.58349

> <CNNscore>
0.2147287726

> <CNNaffinity>
7.4514517784

> <CNN_VS>
1.6000411510

> <CNNaffinity_variance>
0.1765874326

$$$$
[H]c1c([H])c(C([H])(C(=O)N([H])C([H])([H])c2c([H])c([H])c(C(F)(F)F)c([H])c2C2([H])C([H])([H])C([H])([H])C([H])([H])C([H])([H])C2([H])[H])C([H])([H])[H])c([H])c(F)c1N([H])S(=O)(=O)C([H])([H])[H]


 36 38  0  0  0  0  0  0  0  0999 V2000
    8.1884   50.0858  130.6143 C   0  0  0  0  0  0  0  0  0  0  0  0
    7.7066   50.9955  130.9866 O   0  0  0  0  0  0  0  0  0  0  0  0
    9.0455   48.9919  130.7847 N   0  0  0  0  0  0  0  0  0  0  0  0
    9.2541   49.3647  132.1213 H   0  0  0  0  0  0  0  0  0  0  0  0
    7.4092   50.9395  128.6072 C   0  0  0  0  0  0  0  0  0  0  0  0
    7.8233   49.5284  129.0871 C   0  0  0  0  0  0  0  0  0  0  0  0
    6.6840   48.6855  129.1562 C   0  0  0  0  0  0  0  0  0  0  0  0
    6.7382   47.3505  129.1534 C   0  0  0  0  0  0  0  0  0  0  0  0
    5.6950   46.5507  129.3469 C   0  0  0  0  0  0  0  0  0  0  0  0
    4.3895   47.1596  129.5484 C   0  0  0  0  0  0  0  0  0  0  0  0
    4.3358   48.4665  129.5338 C   0  0  0  0  0  0  0  0  0  0  0  0
    3.0589   49.0428  129.6053 F   0  0  0  0  0  0  0  0  0  0  0  0
    5.4003   49.3257  129.3635 C   0  0  0  0  0  0  0  0  0  0  0  0
    3.4948   46.1716  130.0027 N   0  0  0  0  0  0  0  0  0  0  0  0
    4.0949   45.3078  130.4370 H   0  0  0  0  0  0  0  0  0  0  0  0
    1.8593   46.0417  130.1428 S   0  0  0  0  0  0  0  0  0  0  0  0
    1.1473   45.2947  128.6735 C   0  0  0  0  0  0  0  0  0  0  0  0
    1.2340   47.3121  130.5648 O   0  0  0  0  0  0  0  0  0  0  0  0
    1.5949   44.9750  131.2557 O   0  0  0  0  0  0  0  0  0  0  0  0
    9.8124   48.0178  130.9439 C   0  0  0  0  0  0  0  0  0  0  0  0
    9.7330   46.8239  131.8241 C   0  0  0  0  0  0  0  0  0  0  0  0
    9.4266   46.7658  133.1586 C   0  0  0  0  0  0  0  0  0  0  0  0
    9.8482   45.6737  133.9806 C   0  0  0  0  0  0  0  0  0  0  0  0
   10.5465   44.7229  133.3919 C   0  0  0  0  0  0  0  0  0  0  0  0
   10.8814   44.7616  132.0449 C   0  0  0  0  0  0  0  0  0  0  0  0
   10.4948   45.7593  131.2768 C   0  0  0  0  0  0  0  0  0  0  0  0
   10.5584   45.8838  129.7836 C   0  0  0  0  0  0  0  0  0  0  0  0
    9.1865   45.5127  129.1785 C   0  0  0  0  0  0  0  0  0  0  0  0
    8.7493   44.1286  129.3302 C   0  0  0  0  0  0  0  0  0  0  0  0
    9.7860   43.1568  128.8190 C   0  0  0  0  0  0  0  0  0  0  0  0
   10.9938   43.8810  128.2803 C   0  0  0  0  0  0  0  0  0  0  0  0
   11.5681   44.9292  129.1760 C   0  0  0  0  0  0  0  0  0  0  0  0
   11.3220   43.6890  134.2421 C   0  0  0  0  0  0  0  0  0  0  0  0
   11.4508   43.9426  135.4973 F   0  0  0  0  0  0  0  0  0  0  0  0
   12.5024   43.4510  133.5743 F   0  0  0  0  0  0  0  0  0  0  0  0
   10.5897   42.4729  134.0706 F   0  0  0  0  0  0  0  0  0  0  0  0
  5  6  1  0  0  0
  6  1  1  0  0  0
  1  2  2  0  0  0
  1  3  1  0  0  0
  3 20  1  0  0  0
 20 21  1  0  0  0
 21 22  2  0  0  0
 22 23  1  0  0  0
 23 24  2  0  0  0
 24 33  1  0  0  0
 33 34  1  0  0  0
 33 35  1  0  0  0
 33 36  1  0  0  0
 24 25  1  0  0  0
 25 26  2  0  0  0
 26 27  1  0  0  0
 27 28  1  0  0  0
 28 29  1  0  0  0
 29 30  1  0  0  0
 30 31  1  0  0  0
 31 32  1  0  0  0
  6  7  1  0  0  0
  7  8  2  0  0  0
  8  9  1  0  0  0
  9 10  2  0  0  0
 10 14  1  0  0  0
 14 16  1  0  0  0
 16 17  1  0  0  0
 16 18  2  0  0  0
 16 19  2  0  0  0
 10 11  1  0  0  0
 11 12  1  0  0  0
 11 13  2  0  0  0
 26 21  1  0  0  0
 32 27  1  0  0  0
 13  7  1  0  0  0
  3  4  1  0  0  0
 14 15  1  0  0  0
M  END
> <minimizedAffinity>
3.80154

> <CNNscore>
0.4022294283

> <CNNaffinity>
7.8497772217

> <CNN_VS>
3.1574113369

> <CNNaffinity_variance>
0.4772424102

$$$$
[H]c1c([H])c(C([H])(C(=O)N([H])C([H])([H])c2c([H])c([H])c(C(F)(F)F)c([H])c2C2([H])C([H])([H])C([H])([H])C([H])([H])C([H])([H])C2([H])[H])C([H])([H])[H])c([H])c(F)c1N([H])S(=O)(=O)C([H])([H])[H]


 36 38  0  0  0  0  0  0  0  0999 V2000
   10.9071   47.0928  134.6483 C   0  0  0  0  0  0  0  0  0  0  0  0
   11.5278   47.7288  135.2874 O   0  0  0  0  0  0  0  0  0  0  0  0
   10.7487   46.0074  133.7782 N   0  0  0  0  0  0  0  0  0  0  0  0
   12.0955   45.6612  133.9664 H   0  0  0  0  0  0  0  0  0  0  0  0
    8.9291   45.9093  134.8746 C   0  0  0  0  0  0  0  0  0  0  0  0
    9.2693   47.3816  134.5437 C   0  0  0  0  0  0  0  0  0  0  0  0
    8.9293   47.6672  133.1961 C   0  0  0  0  0  0  0  0  0  0  0  0
    8.0408   46.9688  132.4833 C   0  0  0  0  0  0  0  0  0  0  0  0
    7.6177   47.3002  131.2682 C   0  0  0  0  0  0  0  0  0  0  0  0
    8.1759   48.4907  130.6464 C   0  0  0  0  0  0  0  0  0  0  0  0
    9.0585   49.1635  131.3389 C   0  0  0  0  0  0  0  0  0  0  0  0
    9.6820   50.2374  130.6864 F   0  0  0  0  0  0  0  0  0  0  0  0
    9.4991   48.8643  132.6105 C   0  0  0  0  0  0  0  0  0  0  0  0
    7.4077   48.8103  129.5102 N   0  0  0  0  0  0  0  0  0  0  0  0
    8.0991   49.2258  128.7075 H   0  0  0  0  0  0  0  0  0  0  0  0
    5.8339   48.6221  129.0645 S   0  0  0  0  0  0  0  0  0  0  0  0
    5.7037   48.2504  127.3126 C   0  0  0  0  0  0  0  0  0  0  0  0
    4.9855   49.7378  129.5323 O   0  0  0  0  0  0  0  0  0  0  0  0
    5.3344   47.3088  129.7513 O   0  0  0  0  0  0  0  0  0  0  0  0
   10.6150   45.0369  133.0019 C   0  0  0  0  0  0  0  0  0  0  0  0
   11.5698   44.3526  132.0927 C   0  0  0  0  0  0  0  0  0  0  0  0
   12.7956   43.8159  132.3887 C   0  0  0  0  0  0  0  0  0  0  0  0
   13.7999   43.6353  131.3864 C   0  0  0  0  0  0  0  0  0  0  0  0
   13.4893   44.0096  130.1609 C   0  0  0  0  0  0  0  0  0  0  0  0
   12.2601   44.5669  129.8348 C   0  0  0  0  0  0  0  0  0  0  0  0
   11.3256   44.7337  130.7479 C   0  0  0  0  0  0  0  0  0  0  0  0
    9.8833   45.1037  130.5694 C   0  0  0  0  0  0  0  0  0  0  0  0
    9.0064   43.8417  130.7257 C   0  0  0  0  0  0  0  0  0  0  0  0
    9.1601   42.8002  129.7150 C   0  0  0  0  0  0  0  0  0  0  0  0
    8.9821   43.3471  128.3187 C   0  0  0  0  0  0  0  0  0  0  0  0
    8.6844   44.8249  128.3456 C   0  0  0  0  0  0  0  0  0  0  0  0
    9.6043   45.6515  129.1831 C   0  0  0  0  0  0  0  0  0  0  0  0
   14.5972   44.1672  129.0928 C   0  0  0  0  0  0  0  0  0  0  0  0
   15.3485   45.2086  129.1784 F   0  0  0  0  0  0  0  0  0  0  0  0
   13.9817   43.9946  127.8731 F   0  0  0  0  0  0  0  0  0  0  0  0
   15.3931   42.9879  129.2354 F   0  0  0  0  0  0  0  0  0  0  0  0
  5  6  1  0  0  0
  6  1  1  0  0  0
  1  2  2  0  0  0
  1  3  1  0  0  0
  3 20  1  0  0  0
 20 21  1  0  0  0
 21 22  2  0  0  0
 22 23  1  0  0  0
 23 24  2  0  0  0
 24 33  1  0  0  0
 33 34  1  0  0  0
 33 35  1  0  0  0
 33 36  1  0  0  0
 24 25  1  0  0  0
 25 26  2  0  0  0
 26 27  1  0  0  0
 27 28  1  0  0  0
 28 29  1  0  0  0
 29 30  1  0  0  0
 30 31  1  0  0  0
 31 32  1  0  0  0
  6  7  1  0  0  0
  7  8  2  0  0  0
  8  9  1  0  0  0
  9 10  2  0  0  0
 10 14  1  0  0  0
 14 16  1  0  0  0
 16 17  1  0  0  0
 16 18  2  0  0  0
 16 19  2  0  0  0
 10 11  1  0  0  0
 11 12  1  0  0  0
 11 13  2  0  0  0
 26 21  1  0  0  0
 32 27  1  0  0  0
 13  7  1  0  0  0
  3  4  1  0  0  0
 14 15  1  0  0  0
M  END
> <minimizedAffinity>
2.66079

> <CNNscore>
0.3982390165

> <CNNaffinity>
7.9480690956

> <CNN_VS>
3.1652312279

> <CNNaffinity_variance>
0.7472754717

$$$$
[H]c1c([H])c(C([H])(C(=O)N([H])C([H])([H])c2c([H])c([H])c(C(F)(F)F)c([H])c2C2([H])C([H])([H])C([H])([H])C([H])([H])C([H])([H])C2([H])[H])C([H])([H])[H])c([H])c(F)c1N([H])S(=O)(=O)C([H])([H])[H]


 36 38  0  0  0  0  0  0  0  0999 V2000
   10.9396   46.0275  127.7960 C   0  0  0  0  0  0  0  0  0  0  0  0
   10.7337   45.5051  126.8563 O   0  0  0  0  0  0  0  0  0  0  0  0
   10.7891   47.1282  128.6481 N   0  0  0  0  0  0  0  0  0  0  0  0
    9.8878   47.7060  127.7410 H   0  0  0  0  0  0  0  0  0  0  0  0
   12.6146   44.4319  127.9085 C   0  0  0  0  0  0  0  0  0  0  0  0
   11.8701   45.2854  128.9622 C   0  0  0  0  0  0  0  0  0  0  0  0
   11.0434   44.4554  129.7627 C   0  0  0  0  0  0  0  0  0  0  0  0
   10.8120   44.6588  131.0629 C   0  0  0  0  0  0  0  0  0  0  0  0
    9.9422   43.9695  131.7933 C   0  0  0  0  0  0  0  0  0  0  0  0
    9.2035   42.8942  131.1500 C   0  0  0  0  0  0  0  0  0  0  0  0
    9.4441   42.6855  129.8812 C   0  0  0  0  0  0  0  0  0  0  0  0
    8.8215   41.5711  129.2996 F   0  0  0  0  0  0  0  0  0  0  0  0
   10.3178   43.3979  129.0877 C   0  0  0  0  0  0  0  0  0  0  0  0
    8.1603   42.4879  132.0041 N   0  0  0  0  0  0  0  0  0  0  0  0
    7.2917   42.1180  131.3687 H   0  0  0  0  0  0  0  0  0  0  0  0
    7.9678   42.3295  133.6317 S   0  0  0  0  0  0  0  0  0  0  0  0
    9.5073   41.8386  134.4146 C   0  0  0  0  0  0  0  0  0  0  0  0
    6.7972   41.4960  133.9754 O   0  0  0  0  0  0  0  0  0  0  0  0
    7.7212   43.7697  134.1893 O   0  0  0  0  0  0  0  0  0  0  0  0
   10.6502   48.1144  129.4034 C   0  0  0  0  0  0  0  0  0  0  0  0
   10.3819   48.2203  130.8605 C   0  0  0  0  0  0  0  0  0  0  0  0
   11.0745   47.6557  131.8996 C   0  0  0  0  0  0  0  0  0  0  0  0
   10.4647   47.4235  133.1724 C   0  0  0  0  0  0  0  0  0  0  0  0
    9.2018   47.7802  133.2993 C   0  0  0  0  0  0  0  0  0  0  0  0
    8.4726   48.3432  132.2605 C   0  0  0  0  0  0  0  0  0  0  0  0
    9.0244   48.5664  131.0855 C   0  0  0  0  0  0  0  0  0  0  0  0
    8.4913   49.3497  129.9230 C   0  0  0  0  0  0  0  0  0  0  0  0
    7.2873   50.1996  130.3855 C   0  0  0  0  0  0  0  0  0  0  0  0
    6.0934   49.4776  130.8134 C   0  0  0  0  0  0  0  0  0  0  0  0
    5.6247   48.5012  129.7612 C   0  0  0  0  0  0  0  0  0  0  0  0
    6.5146   48.5415  128.5447 C   0  0  0  0  0  0  0  0  0  0  0  0
    7.9803   48.4477  128.8162 C   0  0  0  0  0  0  0  0  0  0  0  0
    8.3690   47.2749  134.5011 C   0  0  0  0  0  0  0  0  0  0  0  0
    7.4725   46.3840  134.2583 F   0  0  0  0  0  0  0  0  0  0  0  0
    7.9088   48.3994  135.1491 F   0  0  0  0  0  0  0  0  0  0  0  0
    9.3420   46.7434  135.4041 F   0  0  0  0  0  0  0  0  0  0  0  0
  5  6  1  0  0  0
  6  1  1  0  0  0
  1  2  2  0  0  0
  1  3  1  0  0  0
  3 20  1  0  0  0
 20 21  1  0  0  0
 21 22  2  0  0  0
 22 23  1  0  0  0
 23 24  2  0  0  0
 24 33  1  0  0  0
 33 34  1  0  0  0
 33 35  1  0  0  0
 33 36  1  0  0  0
 24 25  1  0  0  0
 25 26  2  0  0  0
 26 27  1  0  0  0
 27 28  1  0  0  0
 28 29  1  0  0  0
 29 30  1  0  0  0
 30 31  1  0  0  0
 31 32  1  0  0  0
  6  7  1  0  0  0
  7  8  2  0  0  0
  8  9  1  0  0  0
  9 10  2  0  0  0
 10 14  1  0  0  0
 14 16  1  0  0  0
 16 17  1  0  0  0
 16 18  2  0  0  0
 16 19  2  0  0  0
 10 11  1  0  0  0
 11 12  1  0  0  0
 11 13  2  0  0  0
 26 21  1  0  0  0
 32 27  1  0  0  0
 13  7  1  0  0  0
  3  4  1  0  0  0
 14 15  1  0  0  0
M  END
> <minimizedAffinity>
5.93447

> <CNNscore>
0.3955312073

> <CNNaffinity>
7.8080163002

> <CNN_VS>
3.0883140564

> <CNNaffinity_variance>
1.6421142817

$$$$
[H]c1c([H])c(C([H])(C(=O)N([H])C([H])([H])c2c([H])c([H])c(C(F)(F)F)c([H])c2C2([H])C([H])([H])C([H])([H])C([H])([H])C([H])([H])C2([H])[H])C([H])([H])[H])c([H])c(F)c1N([H])S(=O)(=O)C([H])([H])[H]


 36 38  0  0  0  0  0  0  0  0999 V2000
    6.7831   49.8494  130.3747 C   0  0  0  0  0  0  0  0  0  0  0  0
    5.8224   50.3635  130.4798 O   0  0  0  0  0  0  0  0  0  0  0  0
    8.0737   49.5525  130.8291 N   0  0  0  0  0  0  0  0  0  0  0  0
    7.8373   50.3053  131.9895 H   0  0  0  0  0  0  0  0  0  0  0  0
    5.5564   48.9533  128.6264 C   0  0  0  0  0  0  0  0  0  0  0  0
    7.0251   48.8139  129.0918 C   0  0  0  0  0  0  0  0  0  0  0  0
    7.2555   47.5035  129.5848 C   0  0  0  0  0  0  0  0  0  0  0  0
    7.8777   46.5424  128.8960 C   0  0  0  0  0  0  0  0  0  0  0  0
    8.2146   45.3555  129.3891 C   0  0  0  0  0  0  0  0  0  0  0  0
    7.8603   45.0579  130.7680 C   0  0  0  0  0  0  0  0  0  0  0  0
    7.2359   45.9938  131.4355 C   0  0  0  0  0  0  0  0  0  0  0  0
    6.7892   45.6557  132.7215 F   0  0  0  0  0  0  0  0  0  0  0  0
    6.8959   47.2441  130.9646 C   0  0  0  0  0  0  0  0  0  0  0  0
    8.5381   43.8899  131.1674 N   0  0  0  0  0  0  0  0  0  0  0  0
    8.8004   43.9797  132.2711 H   0  0  0  0  0  0  0  0  0  0  0  0
    8.9166   42.4511  130.4620 S   0  0  0  0  0  0  0  0  0  0  0  0
   10.1983   41.6004  131.3881 C   0  0  0  0  0  0  0  0  0  0  0  0
    9.1794   42.5926  129.0148 O   0  0  0  0  0  0  0  0  0  0  0  0
    7.6667   41.5285  130.6424 O   0  0  0  0  0  0  0  0  0  0  0  0
    9.2248   49.2922  131.2409 C   0  0  0  0  0  0  0  0  0  0  0  0
   10.2861   48.3919  130.7217 C   0  0  0  0  0  0  0  0  0  0  0  0
   10.6058   48.1111  129.4190 C   0  0  0  0  0  0  0  0  0  0  0  0
   11.2826   46.9052  129.0534 C   0  0  0  0  0  0  0  0  0  0  0  0
   11.5860   46.0749  130.0316 C   0  0  0  0  0  0  0  0  0  0  0  0
   11.2639   46.3281  131.3584 C   0  0  0  0  0  0  0  0  0  0  0  0
   10.6453   47.4371  131.7080 C   0  0  0  0  0  0  0  0  0  0  0  0
   10.4068   47.9958  133.0791 C   0  0  0  0  0  0  0  0  0  0  0  0
   11.2854   47.2411  134.1010 C   0  0  0  0  0  0  0  0  0  0  0  0
   10.9871   45.8284  134.3137 C   0  0  0  0  0  0  0  0  0  0  0  0
    9.5348   45.6116  134.6661 C   0  0  0  0  0  0  0  0  0  0  0  0
    8.7837   46.9181  134.7114 C   0  0  0  0  0  0  0  0  0  0  0  0
    8.9701   47.8090  133.5272 C   0  0  0  0  0  0  0  0  0  0  0  0
   12.0069   44.6207  129.7137 C   0  0  0  0  0  0  0  0  0  0  0  0
   13.2440   44.4205  129.4208 F   0  0  0  0  0  0  0  0  0  0  0  0
   11.1073   44.1562  128.7803 F   0  0  0  0  0  0  0  0  0  0  0  0
   11.6691   43.8907  130.8958 F   0  0  0  0  0  0  0  0  0  0  0  0
  5  6  1  0  0  0
  6  1  1  0  0  0
  1  2  2  0  0  0
  1  3  1  0  0  0
  3 20  1  0  0  0
 20 21  1  0  0  0
 21 22  2  0  0  0
 22 23  1  0  0  0
 23 24  2  0  0  0
 24 33  1  0  0  0
 33 34  1  0  0  0
 33 35  1  0  0  0
 33 36  1  0  0  0
 24 25  1  0  0  0
 25 26  2  0  0  0
 26 27  1  0  0  0
 27 28  1  0  0  0
 28 29  1  0  0  0
 29 30  1  0  0  0
 30 31  1  0  0  0
 31 32  1  0  0  0
  6  7  1  0  0  0
  7  8  2  0  0  0
  8  9  1  0  0  0
  9 10  2  0  0  0
 10 14  1  0  0  0
 14 16  1  0  0  0
 16 17  1  0  0  0
 16 18  2  0  0  0
 16 19  2  0  0  0
 10 11  1  0  0  0
 11 12  1  0  0  0
 11 13  2  0  0  0
 26 21  1  0  0  0
 32 27  1  0  0  0
 13  7  1  0  0  0
  3  4  1  0  0  0
 14 15  1  0  0  0
M  END
> <minimizedAffinity>
-3.20569

> <CNNscore>
0.3200704157

> <CNNaffinity>
7.6209135056

> <CNN_VS>
2.4392290115

> <CNNaffinity_variance>
0.4340463579

$$$$
[H]c1c([H])c(C([H])(C(=O)N([H])C([H])([H])c2c([H])c([H])c(C(F)(F)F)c([H])c2C2([H])C([H])([H])C([H])([H])C([H])([H])C([H])([H])C2([H])[H])C([H])([H])[H])c([H])c(F)c1N([H])S(=O)(=O)C([H])([H])[H]


 36 38  0  0  0  0  0  0  0  0999 V2000
    7.0678   49.7473  130.5862 C   0  0  0  0  0  0  0  0  0  0  0  0
    6.3767   50.5832  130.7342 O   0  0  0  0  0  0  0  0  0  0  0  0
    7.3318   48.4211  130.2233 N   0  0  0  0  0  0  0  0  0  0  0  0
    5.9860   48.2526  129.8635 H   0  0  0  0  0  0  0  0  0  0  0  0
    9.0269   49.7365  129.3507 C   0  0  0  0  0  0  0  0  0  0  0  0
    8.6985   49.9737  130.8436 C   0  0  0  0  0  0  0  0  0  0  0  0
    9.2019   48.9033  131.6272 C   0  0  0  0  0  0  0  0  0  0  0  0
   10.2596   48.1600  131.2893 C   0  0  0  0  0  0  0  0  0  0  0  0
   10.8196   47.2423  132.0700 C   0  0  0  0  0  0  0  0  0  0  0  0
   10.2307   46.9994  133.3775 C   0  0  0  0  0  0  0  0  0  0  0  0
    9.1848   47.7161  133.6996 C   0  0  0  0  0  0  0  0  0  0  0  0
    8.5494   47.3914  134.9074 F   0  0  0  0  0  0  0  0  0  0  0  0
    8.5955   48.6939  132.9268 C   0  0  0  0  0  0  0  0  0  0  0  0
   11.1193   46.2120  134.1348 N   0  0  0  0  0  0  0  0  0  0  0  0
   10.8524   46.3174  135.2360 H   0  0  0  0  0  0  0  0  0  0  0  0
   12.3225   45.1406  133.7948 S   0  0  0  0  0  0  0  0  0  0  0  0
   12.4465   44.8556  132.0264 C   0  0  0  0  0  0  0  0  0  0  0  0
   12.2298   43.9189  134.6207 O   0  0  0  0  0  0  0  0  0  0  0  0
   13.6666   45.8617  134.1405 O   0  0  0  0  0  0  0  0  0  0  0  0
    7.5599   47.2359  129.8981 C   0  0  0  0  0  0  0  0  0  0  0  0
    7.5460   45.9713  130.6772 C   0  0  0  0  0  0  0  0  0  0  0  0
    7.0264   45.7425  131.9245 C   0  0  0  0  0  0  0  0  0  0  0  0
    7.4890   44.6673  132.7467 C   0  0  0  0  0  0  0  0  0  0  0  0
    8.4406   43.9044  132.2461 C   0  0  0  0  0  0  0  0  0  0  0  0
    8.9935   44.1201  130.9908 C   0  0  0  0  0  0  0  0  0  0  0  0
    8.5725   45.1037  130.2225 C   0  0  0  0  0  0  0  0  0  0  0  0
    8.8730   45.3711  128.7777 C   0  0  0  0  0  0  0  0  0  0  0  0
    8.9860   44.0299  128.0201 C   0  0  0  0  0  0  0  0  0  0  0  0
   10.0966   43.1559  128.3845 C   0  0  0  0  0  0  0  0  0  0  0  0
   11.4222   43.8747  128.3029 C   0  0  0  0  0  0  0  0  0  0  0  0
   11.2413   45.3037  127.8575 C   0  0  0  0  0  0  0  0  0  0  0  0
   10.2007   46.0808  128.5950 C   0  0  0  0  0  0  0  0  0  0  0  0
    9.2301   42.9434  133.1660 C   0  0  0  0  0  0  0  0  0  0  0  0
   10.3109   42.4327  132.6889 F   0  0  0  0  0  0  0  0  0  0  0  0
    8.3164   42.0287  133.6400 F   0  0  0  0  0  0  0  0  0  0  0  0
    9.5397   43.7337  134.3167 F   0  0  0  0  0  0  0  0  0  0  0  0
  5  6  1  0  0  0
  6  1  1  0  0  0
  1  2  2  0  0  0
  1  3  1  0  0  0
  3 20  1  0  0  0
 20 21  1  0  0  0
 21 22  2  0  0  0
 22 23  1  0  0  0
 23 24  2  0  0  0
 24 33  1  0  0  0
 33 34  1  0  0  0
 33 35  1  0  0  0
 33 36  1  0  0  0
 24 25  1  0  0  0
 25 26  2  0  0  0
 26 27  1  0  0  0
 27 28  1  0  0  0
 28 29  1  0  0  0
 29 30  1  0  0  0
 30 31  1  0  0  0
 31 32  1  0  0  0
  6  7  1  0  0  0
  7  8  2  0  0  0
  8  9  1  0  0  0
  9 10  2  0  0  0
 10 14  1  0  0  0
 14 16  1  0  0  0
 16 17  1  0  0  0
 16 18  2  0  0  0
 16 19  2  0  0  0
 10 11  1  0  0  0
 11 12  1  0  0  0
 11 13  2  0  0  0
 26 21  1  0  0  0
 32 27  1  0  0  0
 13  7  1  0  0  0
  3  4  1  0  0  0
 14 15  1  0  0  0
M  END
> <minimizedAffinity>
-4.80478

> <CNNscore>
0.3177085817

> <CNNaffinity>
7.9774832726

> <CNN_VS>
2.5345149040

> <CNNaffinity_variance>
0.3271208405

$$$$
[H]c1c([H])c(C([H])(C(=O)N([H])C([H])([H])c2c([H])c([H])c(C(F)(F)F)c([H])c2C2([H])C([H])([H])C([H])([H])C([H])([H])C([H])([H])C2([H])[H])C([H])([H])[H])c([H])c(F)c1N([H])S(=O)(=O)C([H])([H])[H]


 36 38  0  0  0  0  0  0  0  0999 V2000
    6.9780   47.0971  128.5953 C   0  0  0  0  0  0  0  0  0  0  0  0
    6.1980   47.4276  127.9020 O   0  0  0  0  0  0  0  0  0  0  0  0
    8.2115   47.2767  129.2328 N   0  0  0  0  0  0  0  0  0  0  0  0
    8.3435   48.5328  128.6216 H   0  0  0  0  0  0  0  0  0  0  0  0
    6.6036   46.4656  130.7920 C   0  0  0  0  0  0  0  0  0  0  0  0
    6.7642   45.6906  129.4629 C   0  0  0  0  0  0  0  0  0  0  0  0
    7.9788   44.9572  129.4725 C   0  0  0  0  0  0  0  0  0  0  0  0
    8.9581   45.1175  128.5777 C   0  0  0  0  0  0  0  0  0  0  0  0
   10.1496   44.5337  128.6477 C   0  0  0  0  0  0  0  0  0  0  0  0
   10.4087   43.6301  129.7576 C   0  0  0  0  0  0  0  0  0  0  0  0
    9.4425   43.4612  130.6232 C   0  0  0  0  0  0  0  0  0  0  0  0
    9.6543   42.4969  131.6197 F   0  0  0  0  0  0  0  0  0  0  0  0
    8.2063   44.0708  130.5964 C   0  0  0  0  0  0  0  0  0  0  0  0
   11.7873   43.3455  129.7970 N   0  0  0  0  0  0  0  0  0  0  0  0
   11.9478   42.2712  129.4576 H   0  0  0  0  0  0  0  0  0  0  0  0
   13.1573   44.2074  130.0990 S   0  0  0  0  0  0  0  0  0  0  0  0
   12.9516   45.2529  131.5442 C   0  0  0  0  0  0  0  0  0  0  0  0
   13.6577   44.8984  128.8926 O   0  0  0  0  0  0  0  0  0  0  0  0
   14.2391   43.1726  130.5518 O   0  0  0  0  0  0  0  0  0  0  0  0
    9.3138   47.4436  129.7980 C   0  0  0  0  0  0  0  0  0  0  0  0
    9.7515   47.2396  131.2027 C   0  0  0  0  0  0  0  0  0  0  0  0
    9.8706   46.0645  131.8978 C   0  0  0  0  0  0  0  0  0  0  0  0
    9.8221   46.0275  133.3269 C   0  0  0  0  0  0  0  0  0  0  0  0
    9.6581   47.1803  133.9453 C   0  0  0  0  0  0  0  0  0  0  0  0
    9.5229   48.3839  133.2663 C   0  0  0  0  0  0  0  0  0  0  0  0
    9.5707   48.4315  131.9509 C   0  0  0  0  0  0  0  0  0  0  0  0
    9.6656   49.6266  131.0500 C   0  0  0  0  0  0  0  0  0  0  0  0
    8.7665   50.7562  131.5991 C   0  0  0  0  0  0  0  0  0  0  0  0
    7.3273   50.5145  131.6002 C   0  0  0  0  0  0  0  0  0  0  0  0
    6.8274   50.1156  130.2323 C   0  0  0  0  0  0  0  0  0  0  0  0
    7.9522   50.0825  129.2288 C   0  0  0  0  0  0  0  0  0  0  0  0
    9.1680   49.3240  129.6497 C   0  0  0  0  0  0  0  0  0  0  0  0
    9.2624   47.2102  135.4405 C   0  0  0  0  0  0  0  0  0  0  0  0
    8.1483   47.7809  135.7396 F   0  0  0  0  0  0  0  0  0  0  0  0
   10.3605   47.6904  136.1185 F   0  0  0  0  0  0  0  0  0  0  0  0
    9.2125   45.8321  135.8184 F   0  0  0  0  0  0  0  0  0  0  0  0
  5  6  1  0  0  0
  6  1  1  0  0  0
  1  2  2  0  0  0
  1  3  1  0  0  0
  3 20  1  0  0  0
 20 21  1  0  0  0
 21 22  2  0  0  0
 22 23  1  0  0  0
 23 24  2  0  0  0
 24 33  1  0  0  0
 33 34  1  0  0  0
 33 35  1  0  0  0
 33 36  1  0  0  0
 24 25  1  0  0  0
 25 26  2  0  0  0
 26 27  1  0  0  0
 27 28  1  0  0  0
 28 29  1  0  0  0
 29 30  1  0  0  0
 30 31  1  0  0  0
 31 32  1  0  0  0
  6  7  1  0  0  0
  7  8  2  0  0  0
  8  9  1  0  0  0
  9 10  2  0  0  0
 10 14  1  0  0  0
 14 16  1  0  0  0
 16 17  1  0  0  0
 16 18  2  0  0  0
 16 19  2  0  0  0
 10 11  1  0  0  0
 11 12  1  0  0  0
 11 13  2  0  0  0
 26 21  1  0  0  0
 32 27  1  0  0  0
 13  7  1  0  0  0
  3  4  1  0  0  0
 14 15  1  0  0  0
M  END
> <minimizedAffinity>
0.94136

> <CNNscore>
0.3162709773

> <CNNaffinity>
7.5230269432

> <CNN_VS>
2.3793151379

> <CNNaffinity_variance>
0.3208364546

$$$$
[H]c1c([H])c(C([H])(C(=O)N([H])C([H])([H])c2c([H])c([H])c(C(F)(F)F)c([H])c2C2([H])C([H])([H])C([H])([H])C([H])([H])C([H])([H])C2([H])[H])C([H])([H])[H])c([H])c(F)c1N([H])S(=O)(=O)C([H])([H])[H]


 36 38  0  0  0  0  0  0  0  0999 V2000
    6.9551   49.5297  130.3394 C   0  0  0  0  0  0  0  0  0  0  0  0
    6.2858   50.3650  130.5687 O   0  0  0  0  0  0  0  0  0  0  0  0
    7.1768   48.1825  130.0293 N   0  0  0  0  0  0  0  0  0  0  0  0
    5.7911   47.9669  129.9799 H   0  0  0  0  0  0  0  0  0  0  0  0
    8.7009   48.9615  128.9274 C   0  0  0  0  0  0  0  0  0  0  0  0
    8.5955   49.7989  130.2237 C   0  0  0  0  0  0  0  0  0  0  0  0
    9.2557   49.1313  131.2876 C   0  0  0  0  0  0  0  0  0  0  0  0
    8.9803   49.3266  132.5804 C   0  0  0  0  0  0  0  0  0  0  0  0
    9.4967   48.6185  133.5791 C   0  0  0  0  0  0  0  0  0  0  0  0
   10.4541   47.5719  133.2571 C   0  0  0  0  0  0  0  0  0  0  0  0
   10.7353   47.3938  131.9920 C   0  0  0  0  0  0  0  0  0  0  0  0
   11.7485   46.4691  131.6986 F   0  0  0  0  0  0  0  0  0  0  0  0
   10.1986   48.0903  130.9302 C   0  0  0  0  0  0  0  0  0  0  0  0
   10.6595   46.7787  134.4024 N   0  0  0  0  0  0  0  0  0  0  0  0
   11.7771   46.6074  134.5318 H   0  0  0  0  0  0  0  0  0  0  0  0
    9.7044   46.1702  135.5976 S   0  0  0  0  0  0  0  0  0  0  0  0
   10.4259   44.6839  136.3008 C   0  0  0  0  0  0  0  0  0  0  0  0
    8.2951   46.0413  135.1727 O   0  0  0  0  0  0  0  0  0  0  0  0
    9.7660   47.1955  136.7770 O   0  0  0  0  0  0  0  0  0  0  0  0
    7.3669   46.9784  129.7529 C   0  0  0  0  0  0  0  0  0  0  0  0
    7.6125   45.7892  130.6084 C   0  0  0  0  0  0  0  0  0  0  0  0
    7.2555   45.5898  131.9164 C   0  0  0  0  0  0  0  0  0  0  0  0
    7.9470   44.6566  132.7513 C   0  0  0  0  0  0  0  0  0  0  0  0
    8.9459   43.9950  132.2012 C   0  0  0  0  0  0  0  0  0  0  0  0
    9.3368   44.1854  130.8825 C   0  0  0  0  0  0  0  0  0  0  0  0
    8.7049   45.0381  130.1025 C   0  0  0  0  0  0  0  0  0  0  0  0
    8.8213   45.2298  128.6197 C   0  0  0  0  0  0  0  0  0  0  0  0
    8.8607   43.8507  127.9252 C   0  0  0  0  0  0  0  0  0  0  0  0
   10.0209   43.0073  128.1949 C   0  0  0  0  0  0  0  0  0  0  0  0
   11.3152   43.7320  127.9125 C   0  0  0  0  0  0  0  0  0  0  0  0
   11.0592   45.1334  127.4186 C   0  0  0  0  0  0  0  0  0  0  0  0
   10.1055   45.9401  128.2373 C   0  0  0  0  0  0  0  0  0  0  0  0
    9.9522   43.2272  133.0906 C   0  0  0  0  0  0  0  0  0  0  0  0
    9.4821   42.6458  134.1381 F   0  0  0  0  0  0  0  0  0  0  0  0
   10.9949   44.0949  133.3274 F   0  0  0  0  0  0  0  0  0  0  0  0
   10.5219   42.2512  132.2145 F   0  0  0  0  0  0  0  0  0  0  0  0
  5  6  1  0  0  0
  6  1  1  0  0  0
  1  2  2  0  0  0
  1  3  1  0  0  0
  3 20  1  0  0  0
 20 21  1  0  0  0
 21 22  2  0  0  0
 22 23  1  0  0  0
 23 24  2  0  0  0
 24 33  1  0  0  0
 33 34  1  0  0  0
 33 35  1  0  0  0
 33 36  1  0  0  0
 24 25  1  0  0  0
 25 26  2  0  0  0
 26 27  1  0  0  0
 27 28  1  0  0  0
 28 29  1  0  0  0
 29 30  1  0  0  0
 30 31  1  0  0  0
 31 32  1  0  0  0
  6  7  1  0  0  0
  7  8  2  0  0  0
  8  9  1  0  0  0
  9 10  2  0  0  0
 10 14  1  0  0  0
 14 16  1  0  0  0
 16 17  1  0  0  0
 16 18  2  0  0  0
 16 19  2  0  0  0
 10 11  1  0  0  0
 11 12  1  0  0  0
 11 13  2  0  0  0
 26 21  1  0  0  0
 32 27  1  0  0  0
 13  7  1  0  0  0
  3  4  1  0  0  0
 14 15  1  0  0  0
M  END
> <minimizedAffinity>
-2.28172

> <CNNscore>
0.3102015257

> <CNNaffinity>
7.6796197891

> <CNN_VS>
2.3822298050

> <CNNaffinity_variance>
0.4081256986

$$$$
[H]c1c([H])c(C([H])(C(=O)N([H])C([H])([H])c2c([H])c([H])c(C(F)(F)F)c([H])c2C2([H])C([H])([H])C([H])([H])C([H])([H])C([H])([H])C2([H])[H])C([H])([H])[H])c([H])c(F)c1N([H])S(=O)(=O)C([H])([H])[H]


 36 38  0  0  0  0  0  0  0  0999 V2000
   10.6624   43.7147  128.6087 C   0  0  0  0  0  0  0  0  0  0  0  0
   10.4619   42.7971  128.0466 O   0  0  0  0  0  0  0  0  0  0  0  0
   11.0678   44.3783  129.7729 N   0  0  0  0  0  0  0  0  0  0  0  0
   11.3654   43.1445  130.3715 H   0  0  0  0  0  0  0  0  0  0  0  0
   11.9852   45.5175  128.0049 C   0  0  0  0  0  0  0  0  0  0  0  0
   10.4796   45.1928  127.8615 C   0  0  0  0  0  0  0  0  0  0  0  0
    9.7168   46.0489  128.6973 C   0  0  0  0  0  0  0  0  0  0  0  0
   10.0515   47.3106  128.9826 C   0  0  0  0  0  0  0  0  0  0  0  0
    9.2856   48.1626  129.6555 C   0  0  0  0  0  0  0  0  0  0  0  0
    8.0005   47.6914  130.1475 C   0  0  0  0  0  0  0  0  0  0  0  0
    7.6821   46.4507  129.8819 C   0  0  0  0  0  0  0  0  0  0  0  0
    6.5003   45.9679  130.4632 F   0  0  0  0  0  0  0  0  0  0  0  0
    8.4390   45.5492  129.1643 C   0  0  0  0  0  0  0  0  0  0  0  0
    7.2462   48.8004  130.5768 N   0  0  0  0  0  0  0  0  0  0  0  0
    7.4634   48.9848  131.6786 H   0  0  0  0  0  0  0  0  0  0  0  0
    6.2592   49.9019  129.8532 S   0  0  0  0  0  0  0  0  0  0  0  0
    7.1710   50.9024  128.6734 C   0  0  0  0  0  0  0  0  0  0  0  0
    5.4612   50.6644  130.8356 O   0  0  0  0  0  0  0  0  0  0  0  0
    5.2741   49.0874  128.9521 O   0  0  0  0  0  0  0  0  0  0  0  0
   11.4307   44.9639  130.8160 C   0  0  0  0  0  0  0  0  0  0  0  0
   10.6656   45.6557  131.8848 C   0  0  0  0  0  0  0  0  0  0  0  0
   10.6311   46.9933  132.1811 C   0  0  0  0  0  0  0  0  0  0  0  0
   10.2703   47.4668  133.4817 C   0  0  0  0  0  0  0  0  0  0  0  0
    9.9708   46.5533  134.3839 C   0  0  0  0  0  0  0  0  0  0  0  0
   10.0088   45.1916  134.1150 C   0  0  0  0  0  0  0  0  0  0  0  0
   10.3347   44.7435  132.9201 C   0  0  0  0  0  0  0  0  0  0  0  0
   10.2258   43.3532  132.3685 C   0  0  0  0  0  0  0  0  0  0  0  0
    8.8978   43.2113  131.5925 C   0  0  0  0  0  0  0  0  0  0  0  0
    7.6651   43.3071  132.3680 C   0  0  0  0  0  0  0  0  0  0  0  0
    7.6581   42.3386  133.5265 C   0  0  0  0  0  0  0  0  0  0  0  0
    8.9271   41.5252  133.5652 C   0  0  0  0  0  0  0  0  0  0  0  0
   10.1958   42.3070  133.4660 C   0  0  0  0  0  0  0  0  0  0  0  0
    9.8970   46.9353  135.8812 C   0  0  0  0  0  0  0  0  0  0  0  0
    9.9982   45.9777  136.7350 F   0  0  0  0  0  0  0  0  0  0  0  0
    8.7754   47.7218  136.0217 F   0  0  0  0  0  0  0  0  0  0  0  0
   10.9758   47.8562  136.0624 F   0  0  0  0  0  0  0  0  0  0  0  0
  5  6  1  0  0  0
  6  1  1  0  0  0
  1  2  2  0  0  0
  1  3  1  0  0  0
  3 20  1  0  0  0
 20 21  1  0  0  0
 21 22  2  0  0  0
 22 23  1  0  0  0
 23 24  2  0  0  0
 24 33  1  0  0  0
 33 34  1  0  0  0
 33 35  1  0  0  0
 33 36  1  0  0  0
 24 25  1  0  0  0
 25 26  2  0  0  0
 26 27  1  0  0  0
 27 28  1  0  0  0
 28 29  1  0  0  0
 29 30  1  0  0  0
 30 31  1  0  0  0
 31 32  1  0  0  0
  6  7  1  0  0  0
  7  8  2  0  0  0
  8  9  1  0  0  0
  9 10  2  0  0  0
 10 14  1  0  0  0
 14 16  1  0  0  0
 16 17  1  0  0  0
 16 18  2  0  0  0
 16 19  2  0  0  0
 10 11  1  0  0  0
 11 12  1  0  0  0
 11 13  2  0  0  0
 26 21  1  0  0  0
 32 27  1  0  0  0
 13  7  1  0  0  0
  3  4  1  0  0  0
 14 15  1  0  0  0
M  END
> <minimizedAffinity>
1.10377

> <CNNscore>
0.2755228281

> <CNNaffinity>
7.6624908447

> <CNN_VS>
2.1111910343

> <CNNaffinity_variance>
0.4217775464

$$$$
[H]c1c([H])c(C([H])(C(=O)N([H])C([H])([H])c2c([H])c([H])c(C(F)(F)F)c([H])c2C2([H])C([H])([H])C([H])([H])C([H])([H])C([H])([H])C2([H])[H])C([H])([H])[H])c([H])c(F)c1N([H])S(=O)(=O)C([H])([H])[H]


 36 38  0  0  0  0  0  0  0  0999 V2000
    7.4326   49.6649  130.0414 C   0  0  0  0  0  0  0  0  0  0  0  0
    6.7427   50.5027  130.1838 O   0  0  0  0  0  0  0  0  0  0  0  0
    8.5993   48.9646  130.3710 N   0  0  0  0  0  0  0  0  0  0  0  0
    8.8437   49.8664  131.4179 H   0  0  0  0  0  0  0  0  0  0  0  0
    5.5960   48.9344  128.8340 C   0  0  0  0  0  0  0  0  0  0  0  0
    7.0744   48.4869  128.9185 C   0  0  0  0  0  0  0  0  0  0  0  0
    7.1609   47.2115  129.5341 C   0  0  0  0  0  0  0  0  0  0  0  0
    7.5288   46.0956  128.8977 C   0  0  0  0  0  0  0  0  0  0  0  0
    7.7387   44.9233  129.4866 C   0  0  0  0  0  0  0  0  0  0  0  0
    7.5280   44.8273  130.9225 C   0  0  0  0  0  0  0  0  0  0  0  0
    7.1512   45.9166  131.5411 C   0  0  0  0  0  0  0  0  0  0  0  0
    6.8315   45.7875  132.9008 F   0  0  0  0  0  0  0  0  0  0  0  0
    6.9511   47.1540  130.9670 C   0  0  0  0  0  0  0  0  0  0  0  0
    8.0622   43.6064  131.3776 N   0  0  0  0  0  0  0  0  0  0  0  0
    8.2235   42.9225  130.4825 H   0  0  0  0  0  0  0  0  0  0  0  0
    8.5846   43.0183  132.8241 S   0  0  0  0  0  0  0  0  0  0  0  0
   10.2778   42.4328  132.7045 C   0  0  0  0  0  0  0  0  0  0  0  0
    7.6296   42.0559  133.4115 O   0  0  0  0  0  0  0  0  0  0  0  0
    8.6932   44.2461  133.7867 O   0  0  0  0  0  0  0  0  0  0  0  0
    9.6427   48.3449  130.6706 C   0  0  0  0  0  0  0  0  0  0  0  0
    9.9570   47.4041  131.7762 C   0  0  0  0  0  0  0  0  0  0  0  0
   10.0072   47.6549  133.1226 C   0  0  0  0  0  0  0  0  0  0  0  0
   10.7722   46.8370  134.0124 C   0  0  0  0  0  0  0  0  0  0  0  0
   11.4276   45.8273  133.4748 C   0  0  0  0  0  0  0  0  0  0  0  0
   11.4044   45.5569  132.1131 C   0  0  0  0  0  0  0  0  0  0  0  0
   10.6998   46.2997  131.2845 C   0  0  0  0  0  0  0  0  0  0  0  0
   10.3680   46.0546  129.8426 C   0  0  0  0  0  0  0  0  0  0  0  0
   10.3421   44.5340  129.5730 C   0  0  0  0  0  0  0  0  0  0  0  0
   11.6077   43.8183  129.6991 C   0  0  0  0  0  0  0  0  0  0  0  0
   12.6898   44.4447  128.8524 C   0  0  0  0  0  0  0  0  0  0  0  0
   12.1672   45.6397  128.0959 C   0  0  0  0  0  0  0  0  0  0  0  0
   11.4132   46.6382  128.9115 C   0  0  0  0  0  0  0  0  0  0  0  0
   12.5303   45.1002  134.2801 C   0  0  0  0  0  0  0  0  0  0  0  0
   12.1433   44.2771  135.1907 F   0  0  0  0  0  0  0  0  0  0  0  0
   13.3976   46.0783  134.7130 F   0  0  0  0  0  0  0  0  0  0  0  0
   13.2851   44.3991  133.2885 F   0  0  0  0  0  0  0  0  0  0  0  0
  5  6  1  0  0  0
  6  1  1  0  0  0
  1  2  2  0  0  0
  1  3  1  0  0  0
  3 20  1  0  0  0
 20 21  1  0  0  0
 21 22  2  0  0  0
 22 23  1  0  0  0
 23 24  2  0  0  0
 24 33  1  0  0  0
 33 34  1  0  0  0
 33 35  1  0  0  0
 33 36  1  0  0  0
 24 25  1  0  0  0
 25 26  2  0  0  0
 26 27  1  0  0  0
 27 28  1  0  0  0
 28 29  1  0  0  0
 29 30  1  0  0  0
 30 31  1  0  0  0
 31 32  1  0  0  0
  6  7  1  0  0  0
  7  8  2  0  0  0
  8  9  1  0  0  0
  9 10  2  0  0  0
 10 14  1  0  0  0
 14 16  1  0  0  0
 16 17  1  0  0  0
 16 18  2  0  0  0
 16 19  2  0  0  0
 10 11  1  0  0  0
 11 12  1  0  0  0
 11 13  2  0  0  0
 26 21  1  0  0  0
 32 27  1  0  0  0
 13  7  1  0  0  0
  3  4  1  0  0  0
 14 15  1  0  0  0
M  END
> <minimizedAffinity>
-1.88641

> <CNNscore>
0.2710846961

> <CNNaffinity>
7.5997176170

> <CNN_VS>
2.0601670742

> <CNNaffinity_variance>
0.3743431568

$$$$
[H]OC(=O)C([H])([H])N(C([H])([H])c1c([H])c([H])c([H])c(OC([H])([H])C([H])([H])c2nc(-c3c([H])c([H])c([H])c([H])c3[H])oc2C([H])([H])[H])c1[H])C([H])([H])c1c([H])c([H])c2c([H])c([H])c([H])c([H])c2c1[H]


 39 43  0  0  0  0  0  0  0  0999 V2000
    8.6021   44.2792  129.1120 C   0  0  0  0  0  0  0  0  0  0  0  0
    8.3921   43.5876  130.2715 C   0  0  0  0  0  0  0  0  0  0  0  0
    7.7903   44.2116  131.3382 C   0  0  0  0  0  0  0  0  0  0  0  0
    7.3788   45.5246  131.2973 C   0  0  0  0  0  0  0  0  0  0  0  0
    7.5750   46.2491  130.1449 C   0  0  0  0  0  0  0  0  0  0  0  0
    8.1761   45.6167  129.0887 C   0  0  0  0  0  0  0  0  0  0  0  0
    9.1899   43.7423  128.0145 O   0  0  0  0  0  0  0  0  0  0  0  0
   10.4702   43.6856  127.5543 C   0  0  0  0  0  0  0  0  0  0  0  0
   11.4267   44.7451  127.9912 C   0  0  0  0  0  0  0  0  0  0  0  0
   14.4466   44.5154  128.8136 C   0  0  0  0  0  0  0  0  0  0  0  0
   13.3059   44.3578  129.7340 C   0  0  0  0  0  0  0  0  0  0  0  0
   13.3537   44.1016  131.0220 O   0  0  0  0  0  0  0  0  0  0  0  0
   12.1424   44.0307  131.5148 C   0  0  0  0  0  0  0  0  0  0  0  0
   11.2960   44.2520  130.4922 N   0  0  0  0  0  0  0  0  0  0  0  0
   11.9726   44.4610  129.3615 C   0  0  0  0  0  0  0  0  0  0  0  0
   11.7629   43.7660  132.8958 C   0  0  0  0  0  0  0  0  0  0  0  0
   10.5069   43.2852  133.2021 C   0  0  0  0  0  0  0  0  0  0  0  0
   10.1202   43.0260  134.5143 C   0  0  0  0  0  0  0  0  0  0  0  0
   11.0060   43.2518  135.5426 C   0  0  0  0  0  0  0  0  0  0  0  0
   12.2552   43.7275  135.2649 C   0  0  0  0  0  0  0  0  0  0  0  0
   12.6293   43.9829  133.9423 C   0  0  0  0  0  0  0  0  0  0  0  0
    7.1439   47.6507  130.0950 C   0  0  0  0  0  0  0  0  0  0  0  0
    7.8911   48.5091  129.2401 N   0  0  0  0  0  0  0  0  0  0  0  0
    7.0715   49.3615  128.4553 C   0  0  0  0  0  0  0  0  0  0  0  0
    6.7388   50.6592  129.0576 C   0  0  0  0  0  0  0  0  0  0  0  0
    6.2367   50.8500  130.1781 O   0  0  0  0  0  0  0  0  0  0  0  0
    7.0097   51.8161  128.3008 O   0  0  0  0  0  0  0  0  0  0  0  0
    6.2418   52.3455  127.9130 H   0  0  0  0  0  0  0  0  0  0  0  0
    9.0136   49.1269  129.8807 C   0  0  0  0  0  0  0  0  0  0  0  0
    9.5134   48.4595  131.0789 C   0  0  0  0  0  0  0  0  0  0  0  0
   10.7268   47.8226  131.2000 C   0  0  0  0  0  0  0  0  0  0  0  0
   11.1077   47.2109  132.3845 C   0  0  0  0  0  0  0  0  0  0  0  0
   10.2950   47.2093  133.4966 C   0  0  0  0  0  0  0  0  0  0  0  0
   10.7071   46.5900  134.6575 C   0  0  0  0  0  0  0  0  0  0  0  0
    9.8989   46.5822  135.7767 C   0  0  0  0  0  0  0  0  0  0  0  0
    8.6765   47.2115  135.6877 C   0  0  0  0  0  0  0  0  0  0  0  0
    8.2615   47.8380  134.5113 C   0  0  0  0  0  0  0  0  0  0  0  0
    9.0739   47.8440  133.3924 C   0  0  0  0  0  0  0  0  0  0  0  0
    8.6994   48.4513  132.2113 C   0  0  0  0  0  0  0  0  0  0  0  0
 10 11  1  0  0  0
 11 12  1  0  0  0
 12 13  1  0  0  0
 13 16  1  0  0  0
 16 17  2  0  0  0
 17 18  1  0  0  0
 18 19  2  0  0  0
 19 20  1  0  0  0
 20 21  2  0  0  0
 13 14  2  0  0  0
 14 15  1  0  0  0
 15  9  1  0  0  0
  9  8  1  0  0  0
  8  7  1  0  0  0
  7  1  1  0  0  0
  1  2  2  0  0  0
  2  3  1  0  0  0
  3  4  2  0  0  0
  4  5  1  0  0  0
  5 22  1  0  0  0
 22 23  1  0  0  0
 23 24  1  0  0  0
 24 25  1  0  0  0
 25 26  2  0  0  0
 25 27  1  0  0  0
 23 29  1  0  0  0
 29 30  1  0  0  0
 30 31  2  0  0  0
 31 32  1  0  0  0
 32 33  2  0  0  0
 33 34  1  0  0  0
 34 35  2  0  0  0
 35 36  1  0  0  0
 36 37  2  0  0  0
 37 38  1  0  0  0
 38 39  2  0  0  0
  5  6  2  0  0  0
 15 11  2  0  0  0
  6  1  1  0  0  0
 21 16  1  0  0  0
 39 30  1  0  0  0
 38 33  1  0  0  0
 27 28  1  0  0  0
M  END
> <minimizedAffinity>
-2.70990

> <CNNscore>
0.5069899559

> <CNNaffinity>
8.0788974762

> <CNN_VS>
4.0959200859

> <CNNaffinity_variance>
0.1814921349

$$$$
[H]OC(=O)C([H])([H])N(C([H])([H])c1c([H])c([H])c([H])c(OC([H])([H])C([H])([H])c2nc(-c3c([H])c([H])c([H])c([H])c3[H])oc2C([H])([H])[H])c1[H])C([H])([H])c1c([H])c([H])c2c([H])c([H])c([H])c([H])c2c1[H]


 39 43  0  0  0  0  0  0  0  0999 V2000
   10.9158   47.7839  132.5452 C   0  0  0  0  0  0  0  0  0  0  0  0
   10.6986   48.4837  133.6983 C   0  0  0  0  0  0  0  0  0  0  0  0
    9.8948   49.5986  133.6783 C   0  0  0  0  0  0  0  0  0  0  0  0
    9.2839   50.0555  132.5325 C   0  0  0  0  0  0  0  0  0  0  0  0
    9.4816   49.3738  131.3544 C   0  0  0  0  0  0  0  0  0  0  0  0
   10.2848   48.2646  131.3867 C   0  0  0  0  0  0  0  0  0  0  0  0
   11.6949   46.6765  132.4754 O   0  0  0  0  0  0  0  0  0  0  0  0
   12.3043   46.0063  131.4587 C   0  0  0  0  0  0  0  0  0  0  0  0
   12.6818   44.5788  131.6783 C   0  0  0  0  0  0  0  0  0  0  0  0
   13.1033   44.0840  134.7485 C   0  0  0  0  0  0  0  0  0  0  0  0
   11.9114   43.6764  133.9828 C   0  0  0  0  0  0  0  0  0  0  0  0
   10.8484   43.0533  134.4395 O   0  0  0  0  0  0  0  0  0  0  0  0
    9.9892   42.8546  133.4713 C   0  0  0  0  0  0  0  0  0  0  0  0
   10.5356   43.3756  132.3573 N   0  0  0  0  0  0  0  0  0  0  0  0
   11.7333   43.8993  132.6243 C   0  0  0  0  0  0  0  0  0  0  0  0
    8.6907   42.2009  133.5607 C   0  0  0  0  0  0  0  0  0  0  0  0
    8.3619   41.4333  134.6584 C   0  0  0  0  0  0  0  0  0  0  0  0
    7.1281   40.7972  134.7663 C   0  0  0  0  0  0  0  0  0  0  0  0
    6.2028   40.9303  133.7566 C   0  0  0  0  0  0  0  0  0  0  0  0
    6.5047   41.6850  132.6599 C   0  0  0  0  0  0  0  0  0  0  0  0
    7.7478   42.3178  132.5657 C   0  0  0  0  0  0  0  0  0  0  0  0
    8.8381   49.8573  130.1277 C   0  0  0  0  0  0  0  0  0  0  0  0
    7.6654   49.1633  129.7163 N   0  0  0  0  0  0  0  0  0  0  0  0
    6.4877   49.9469  129.8305 C   0  0  0  0  0  0  0  0  0  0  0  0
    5.2318   49.2655  129.4898 C   0  0  0  0  0  0  0  0  0  0  0  0
    4.1158   49.7936  129.3496 O   0  0  0  0  0  0  0  0  0  0  0  0
    5.2796   47.8705  129.2995 O   0  0  0  0  0  0  0  0  0  0  0  0
    4.8586   47.2620  129.9872 H   0  0  0  0  0  0  0  0  0  0  0  0
    7.8243   48.4371  128.4917 C   0  0  0  0  0  0  0  0  0  0  0  0
    8.6661   47.2463  128.5589 C   0  0  0  0  0  0  0  0  0  0  0  0
    9.9697   47.1555  128.1286 C   0  0  0  0  0  0  0  0  0  0  0  0
   10.6845   45.9720  128.2312 C   0  0  0  0  0  0  0  0  0  0  0  0
   10.1296   44.8310  128.7670 C   0  0  0  0  0  0  0  0  0  0  0  0
   10.8709   43.6715  128.8524 C   0  0  0  0  0  0  0  0  0  0  0  0
   10.3227   42.5228  129.3868 C   0  0  0  0  0  0  0  0  0  0  0  0
    9.0183   42.5808  129.8268 C   0  0  0  0  0  0  0  0  0  0  0  0
    8.2697   43.7558  129.7395 C   0  0  0  0  0  0  0  0  0  0  0  0
    8.8224   44.9046  129.2038 C   0  0  0  0  0  0  0  0  0  0  0  0
    8.1151   46.0848  129.0995 C   0  0  0  0  0  0  0  0  0  0  0  0
 10 11  1  0  0  0
 11 12  1  0  0  0
 12 13  1  0  0  0
 13 16  1  0  0  0
 16 17  2  0  0  0
 17 18  1  0  0  0
 18 19  2  0  0  0
 19 20  1  0  0  0
 20 21  2  0  0  0
 13 14  2  0  0  0
 14 15  1  0  0  0
 15  9  1  0  0  0
  9  8  1  0  0  0
  8  7  1  0  0  0
  7  1  1  0  0  0
  1  2  2  0  0  0
  2  3  1  0  0  0
  3  4  2  0  0  0
  4  5  1  0  0  0
  5 22  1  0  0  0
 22 23  1  0  0  0
 23 24  1  0  0  0
 24 25  1  0  0  0
 25 26  2  0  0  0
 25 27  1  0  0  0
 23 29  1  0  0  0
 29 30  1  0  0  0
 30 31  2  0  0  0
 31 32  1  0  0  0
 32 33  2  0  0  0
 33 34  1  0  0  0
 34 35  2  0  0  0
 35 36  1  0  0  0
 36 37  2  0  0  0
 37 38  1  0  0  0
 38 39  2  0  0  0
  5  6  2  0  0  0
 15 11  2  0  0  0
  6  1  1  0  0  0
 21 16  1  0  0  0
 39 30  1  0  0  0
 38 33  1  0  0  0
 27 28  1  0  0  0
M  END
> <minimizedAffinity>
5.88660

> <CNNscore>
0.4983354509

> <CNNaffinity>
7.6566810608

> <CNN_VS>
3.8155956268

> <CNNaffinity_variance>
0.3506096005

$$$$
[H]OC(=O)C([H])([H])N(C([H])([H])c1c([H])c([H])c([H])c(OC([H])([H])C([H])([H])c2nc(-c3c([H])c([H])c([H])c([H])c3[H])oc2C([H])([H])[H])c1[H])C([H])([H])c1c([H])c([H])c2c([H])c([H])c([H])c([H])c2c1[H]


 39 43  0  0  0  0  0  0  0  0999 V2000
    9.5519   45.3791  128.7791 C   0  0  0  0  0  0  0  0  0  0  0  0
    8.9325   44.5065  129.6286 C   0  0  0  0  0  0  0  0  0  0  0  0
    7.7345   44.8523  130.2071 C   0  0  0  0  0  0  0  0  0  0  0  0
    7.1132   46.0574  129.9690 C   0  0  0  0  0  0  0  0  0  0  0  0
    7.7100   46.9585  129.1184 C   0  0  0  0  0  0  0  0  0  0  0  0
    8.9037   46.6029  128.5482 C   0  0  0  0  0  0  0  0  0  0  0  0
   10.7341   45.1195  128.1683 O   0  0  0  0  0  0  0  0  0  0  0  0
   12.0344   45.4050  128.4550 C   0  0  0  0  0  0  0  0  0  0  0  0
   12.7967   44.4487  129.3110 C   0  0  0  0  0  0  0  0  0  0  0  0
   13.5073   45.7668  132.0690 C   0  0  0  0  0  0  0  0  0  0  0  0
   12.4163   44.7997  131.8509 C   0  0  0  0  0  0  0  0  0  0  0  0
   11.5754   44.3349  132.7474 O   0  0  0  0  0  0  0  0  0  0  0  0
   10.7406   43.4928  132.1914 C   0  0  0  0  0  0  0  0  0  0  0  0
   11.0708   43.4251  130.8886 N   0  0  0  0  0  0  0  0  0  0  0  0
   12.1090   44.2212  130.6269 C   0  0  0  0  0  0  0  0  0  0  0  0
    9.6589   42.7622  132.8376 C   0  0  0  0  0  0  0  0  0  0  0  0
    9.8887   42.0305  133.9840 C   0  0  0  0  0  0  0  0  0  0  0  0
    8.8717   41.3226  134.6190 C   0  0  0  0  0  0  0  0  0  0  0  0
    7.5983   41.3455  134.0983 C   0  0  0  0  0  0  0  0  0  0  0  0
    7.3458   42.0626  132.9644 C   0  0  0  0  0  0  0  0  0  0  0  0
    8.3771   42.7686  132.3379 C   0  0  0  0  0  0  0  0  0  0  0  0
    7.0567   48.2473  128.8634 C   0  0  0  0  0  0  0  0  0  0  0  0
    7.7566   49.4059  129.3035 N   0  0  0  0  0  0  0  0  0  0  0  0
    7.6442   50.4977  128.4038 C   0  0  0  0  0  0  0  0  0  0  0  0
    6.8928   51.6585  128.8992 C   0  0  0  0  0  0  0  0  0  0  0  0
    6.2650   51.7342  129.9688 O   0  0  0  0  0  0  0  0  0  0  0  0
    6.8709   52.8122  128.0911 O   0  0  0  0  0  0  0  0  0  0  0  0
    6.0157   53.0706  127.6196 H   0  0  0  0  0  0  0  0  0  0  0  0
    7.5593   49.7074  130.6900 C   0  0  0  0  0  0  0  0  0  0  0  0
    8.4751   49.0573  131.6226 C   0  0  0  0  0  0  0  0  0  0  0  0
    9.7808   49.4224  131.8565 C   0  0  0  0  0  0  0  0  0  0  0  0
   10.5734   48.7337  132.7619 C   0  0  0  0  0  0  0  0  0  0  0  0
   10.0971   47.6534  133.4712 C   0  0  0  0  0  0  0  0  0  0  0  0
   10.9149   46.9922  134.3629 C   0  0  0  0  0  0  0  0  0  0  0  0
   10.4466   45.9077  135.0773 C   0  0  0  0  0  0  0  0  0  0  0  0
    9.1426   45.5165  134.8654 C   0  0  0  0  0  0  0  0  0  0  0  0
    8.3164   46.1875  133.9622 C   0  0  0  0  0  0  0  0  0  0  0  0
    8.7889   47.2736  133.2486 C   0  0  0  0  0  0  0  0  0  0  0  0
    8.0041   47.9623  132.3465 C   0  0  0  0  0  0  0  0  0  0  0  0
 10 11  1  0  0  0
 11 12  1  0  0  0
 12 13  1  0  0  0
 13 16  1  0  0  0
 16 17  2  0  0  0
 17 18  1  0  0  0
 18 19  2  0  0  0
 19 20  1  0  0  0
 20 21  2  0  0  0
 13 14  2  0  0  0
 14 15  1  0  0  0
 15  9  1  0  0  0
  9  8  1  0  0  0
  8  7  1  0  0  0
  7  1  1  0  0  0
  1  2  2  0  0  0
  2  3  1  0  0  0
  3  4  2  0  0  0
  4  5  1  0  0  0
  5 22  1  0  0  0
 22 23  1  0  0  0
 23 24  1  0  0  0
 24 25  1  0  0  0
 25 26  2  0  0  0
 25 27  1  0  0  0
 23 29  1  0  0  0
 29 30  1  0  0  0
 30 31  2  0  0  0
 31 32  1  0  0  0
 32 33  2  0  0  0
 33 34  1  0  0  0
 34 35  2  0  0  0
 35 36  1  0  0  0
 36 37  2  0  0  0
 37 38  1  0  0  0
 38 39  2  0  0  0
  5  6  2  0  0  0
 15 11  2  0  0  0
  6  1  1  0  0  0
 21 16  1  0  0  0
 39 30  1  0  0  0
 38 33  1  0  0  0
 27 28  1  0  0  0
M  END
> <minimizedAffinity>
1.68125

> <CNNscore>
0.4702694416

> <CNNaffinity>
7.9424247742

> <CNN_VS>
3.7350797653

> <CNNaffinity_variance>
0.2220343053

$$$$
[H]OC(=O)C([H])([H])N(C([H])([H])c1c([H])c([H])c([H])c(OC([H])([H])C([H])([H])c2nc(-c3c([H])c([H])c([H])c([H])c3[H])oc2C([H])([H])[H])c1[H])C([H])([H])c1c([H])c([H])c2c([H])c([H])c([H])c([H])c2c1[H]


 39 43  0  0  0  0  0  0  0  0999 V2000
    9.0093   48.2998  133.4639 C   0  0  0  0  0  0  0  0  0  0  0  0
    9.9026   49.3276  133.5741 C   0  0  0  0  0  0  0  0  0  0  0  0
   10.3948   49.9281  132.4398 C   0  0  0  0  0  0  0  0  0  0  0  0
   10.0256   49.5395  131.1719 C   0  0  0  0  0  0  0  0  0  0  0  0
    9.1277   48.5080  131.0256 C   0  0  0  0  0  0  0  0  0  0  0  0
    8.6445   47.9172  132.1632 C   0  0  0  0  0  0  0  0  0  0  0  0
    8.4768   47.6514  134.5289 O   0  0  0  0  0  0  0  0  0  0  0  0
    8.6449   46.4122  135.0679 C   0  0  0  0  0  0  0  0  0  0  0  0
    9.9971   46.0406  135.5796 C   0  0  0  0  0  0  0  0  0  0  0  0
   11.6937   43.4254  135.9413 C   0  0  0  0  0  0  0  0  0  0  0  0
   11.5594   44.1778  134.6807 C   0  0  0  0  0  0  0  0  0  0  0  0
   12.1103   43.8923  133.5223 O   0  0  0  0  0  0  0  0  0  0  0  0
   11.7681   44.7839  132.6262 C   0  0  0  0  0  0  0  0  0  0  0  0
   10.9669   45.6685  133.2480 N   0  0  0  0  0  0  0  0  0  0  0  0
   10.8066   45.3343  134.5297 C   0  0  0  0  0  0  0  0  0  0  0  0
   12.1647   44.8281  131.2254 C   0  0  0  0  0  0  0  0  0  0  0  0
   11.4455   45.5704  130.3122 C   0  0  0  0  0  0  0  0  0  0  0  0
   11.8037   45.6272  128.9679 C   0  0  0  0  0  0  0  0  0  0  0  0
   12.9030   44.9277  128.5259 C   0  0  0  0  0  0  0  0  0  0  0  0
   13.6311   44.1857  129.4107 C   0  0  0  0  0  0  0  0  0  0  0  0
   13.2594   44.1384  130.7576 C   0  0  0  0  0  0  0  0  0  0  0  0
    8.7331   48.0845  129.6774 C   0  0  0  0  0  0  0  0  0  0  0  0
    7.3444   48.1612  129.3747 N   0  0  0  0  0  0  0  0  0  0  0  0
    7.0239   49.2371  128.5066 C   0  0  0  0  0  0  0  0  0  0  0  0
    6.7769   50.5307  129.1571 C   0  0  0  0  0  0  0  0  0  0  0  0
    6.4012   50.7126  130.3275 O   0  0  0  0  0  0  0  0  0  0  0  0
    6.9818   51.6942  128.3899 O   0  0  0  0  0  0  0  0  0  0  0  0
    6.1844   52.2391  128.0937 H   0  0  0  0  0  0  0  0  0  0  0  0
    6.7523   46.8959  129.0574 C   0  0  0  0  0  0  0  0  0  0  0  0
    7.5260   45.7159  129.4311 C   0  0  0  0  0  0  0  0  0  0  0  0
    8.2656   44.9327  128.5753 C   0  0  0  0  0  0  0  0  0  0  0  0
    8.9634   43.8242  129.0298 C   0  0  0  0  0  0  0  0  0  0  0  0
    8.9529   43.4513  130.3557 C   0  0  0  0  0  0  0  0  0  0  0  0
    9.6586   42.3420  130.7712 C   0  0  0  0  0  0  0  0  0  0  0  0
    9.6529   41.9599  132.0978 C   0  0  0  0  0  0  0  0  0  0  0  0
    8.9211   42.7236  132.9807 C   0  0  0  0  0  0  0  0  0  0  0  0
    8.2075   43.8464  132.5577 C   0  0  0  0  0  0  0  0  0  0  0  0
    8.2158   44.2262  131.2281 C   0  0  0  0  0  0  0  0  0  0  0  0
    7.5230   45.3284  130.7708 C   0  0  0  0  0  0  0  0  0  0  0  0
 10 11  1  0  0  0
 11 12  1  0  0  0
 12 13  1  0  0  0
 13 16  1  0  0  0
 16 17  2  0  0  0
 17 18  1  0  0  0
 18 19  2  0  0  0
 19 20  1  0  0  0
 20 21  2  0  0  0
 13 14  2  0  0  0
 14 15  1  0  0  0
 15  9  1  0  0  0
  9  8  1  0  0  0
  8  7  1  0  0  0
  7  1  1  0  0  0
  1  2  2  0  0  0
  2  3  1  0  0  0
  3  4  2  0  0  0
  4  5  1  0  0  0
  5 22  1  0  0  0
 22 23  1  0  0  0
 23 24  1  0  0  0
 24 25  1  0  0  0
 25 26  2  0  0  0
 25 27  1  0  0  0
 23 29  1  0  0  0
 29 30  1  0  0  0
 30 31  2  0  0  0
 31 32  1  0  0  0
 32 33  2  0  0  0
 33 34  1  0  0  0
 34 35  2  0  0  0
 35 36  1  0  0  0
 36 37  2  0  0  0
 37 38  1  0  0  0
 38 39  2  0  0  0
  5  6  2  0  0  0
 15 11  2  0  0  0
  6  1  1  0  0  0
 21 16  1  0  0  0
 39 30  1  0  0  0
 38 33  1  0  0  0
 27 28  1  0  0  0
M  END
> <minimizedAffinity>
-3.50919

> <CNNscore>
0.4138440788

> <CNNaffinity>
7.9764404297

> <CNN_VS>
3.3010027409

> <CNNaffinity_variance>
0.1312660277

$$$$
[H]OC(=O)C([H])([H])N(C([H])([H])c1c([H])c([H])c([H])c(OC([H])([H])C([H])([H])c2nc(-c3c([H])c([H])c([H])c([H])c3[H])oc2C([H])([H])[H])c1[H])C([H])([H])c1c([H])c([H])c2c([H])c([H])c([H])c([H])c2c1[H]


 39 43  0  0  0  0  0  0  0  0999 V2000
    7.7577   50.8986  129.9405 C   0  0  0  0  0  0  0  0  0  0  0  0
    8.1309   50.8331  131.2532 C   0  0  0  0  0  0  0  0  0  0  0  0
    8.8043   49.7279  131.7164 C   0  0  0  0  0  0  0  0  0  0  0  0
    9.1295   48.6617  130.9087 C   0  0  0  0  0  0  0  0  0  0  0  0
    8.7687   48.6959  129.5820 C   0  0  0  0  0  0  0  0  0  0  0  0
    8.0978   49.8022  129.1321 C   0  0  0  0  0  0  0  0  0  0  0  0
    7.0899   51.9485  129.4022 O   0  0  0  0  0  0  0  0  0  0  0  0
    6.9990   52.4753  128.1497 C   0  0  0  0  0  0  0  0  0  0  0  0
    7.4957   53.8657  127.9292 C   0  0  0  0  0  0  0  0  0  0  0  0
    8.7351   56.3354  126.4417 C   0  0  0  0  0  0  0  0  0  0  0  0
    7.6939   55.4509  125.8880 C   0  0  0  0  0  0  0  0  0  0  0  0
    7.1204   55.5397  124.7090 O   0  0  0  0  0  0  0  0  0  0  0  0
    6.2404   54.5812  124.5602 C   0  0  0  0  0  0  0  0  0  0  0  0
    6.2616   53.8581  125.6950 N   0  0  0  0  0  0  0  0  0  0  0  0
    7.1510   54.3602  126.5534 C   0  0  0  0  0  0  0  0  0  0  0  0
    5.3945   54.3285  123.4018 C   0  0  0  0  0  0  0  0  0  0  0  0
    5.9500   54.0561  122.1691 C   0  0  0  0  0  0  0  0  0  0  0  0
    5.1627   53.8129  121.0469 C   0  0  0  0  0  0  0  0  0  0  0  0
    3.7915   53.8425  121.1575 C   0  0  0  0  0  0  0  0  0  0  0  0
    3.2178   54.1097  122.3671 C   0  0  0  0  0  0  0  0  0  0  0  0
    4.0214   54.3518  123.4852 C   0  0  0  0  0  0  0  0  0  0  0  0
    9.1073   47.5611  128.7158 C   0  0  0  0  0  0  0  0  0  0  0  0
    8.9935   46.2678  129.2992 N   0  0  0  0  0  0  0  0  0  0  0  0
    7.7045   45.6968  129.1366 C   0  0  0  0  0  0  0  0  0  0  0  0
    6.6972   46.1018  130.1260 C   0  0  0  0  0  0  0  0  0  0  0  0
    6.7666   45.9551  131.3579 O   0  0  0  0  0  0  0  0  0  0  0  0
    5.5264   46.7211  129.6461 O   0  0  0  0  0  0  0  0  0  0  0  0
    4.6512   46.2178  129.6777 H   0  0  0  0  0  0  0  0  0  0  0  0
   10.1048   45.4084  129.0187 C   0  0  0  0  0  0  0  0  0  0  0  0
   10.8164   44.8832  130.1800 C   0  0  0  0  0  0  0  0  0  0  0  0
   11.9652   44.1270  130.1473 C   0  0  0  0  0  0  0  0  0  0  0  0
   12.5632   43.6690  131.3113 C   0  0  0  0  0  0  0  0  0  0  0  0
   12.0409   43.9462  132.5552 C   0  0  0  0  0  0  0  0  0  0  0  0
   12.6629   43.4732  133.6913 C   0  0  0  0  0  0  0  0  0  0  0  0
   12.1460   43.7449  134.9422 C   0  0  0  0  0  0  0  0  0  0  0  0
   10.9954   44.4999  135.0091 C   0  0  0  0  0  0  0  0  0  0  0  0
   10.3676   44.9780  133.8576 C   0  0  0  0  0  0  0  0  0  0  0  0
   10.8884   44.7039  132.6063 C   0  0  0  0  0  0  0  0  0  0  0  0
   10.2970   45.1574  131.4450 C   0  0  0  0  0  0  0  0  0  0  0  0
 10 11  1  0  0  0
 11 12  1  0  0  0
 12 13  1  0  0  0
 13 16  1  0  0  0
 16 17  2  0  0  0
 17 18  1  0  0  0
 18 19  2  0  0  0
 19 20  1  0  0  0
 20 21  2  0  0  0
 13 14  2  0  0  0
 14 15  1  0  0  0
 15  9  1  0  0  0
  9  8  1  0  0  0
  8  7  1  0  0  0
  7  1  1  0  0  0
  1  2  2  0  0  0
  2  3  1  0  0  0
  3  4  2  0  0  0
  4  5  1  0  0  0
  5 22  1  0  0  0
 22 23  1  0  0  0
 23 24  1  0  0  0
 24 25  1  0  0  0
 25 26  2  0  0  0
 25 27  1  0  0  0
 23 29  1  0  0  0
 29 30  1  0  0  0
 30 31  2  0  0  0
 31 32  1  0  0  0
 32 33  2  0  0  0
 33 34  1  0  0  0
 34 35  2  0  0  0
 35 36  1  0  0  0
 36 37  2  0  0  0
 37 38  1  0  0  0
 38 39  2  0  0  0
  5  6  2  0  0  0
 15 11  2  0  0  0
  6  1  1  0  0  0
 21 16  1  0  0  0
 39 30  1  0  0  0
 38 33  1  0  0  0
 27 28  1  0  0  0
M  END
> <minimizedAffinity>
-0.61614

> <CNNscore>
0.3490223885

> <CNNaffinity>
6.8180131912

> <CNN_VS>
2.3796391487

> <CNNaffinity_variance>
0.6475777030

$$$$
[H]OC(=O)C([H])([H])N(C([H])([H])c1c([H])c([H])c([H])c(OC([H])([H])C([H])([H])c2nc(-c3c([H])c([H])c([H])c([H])c3[H])oc2C([H])([H])[H])c1[H])C([H])([H])c1c([H])c([H])c2c([H])c([H])c([H])c([H])c2c1[H]


 39 43  0  0  0  0  0  0  0  0999 V2000
    7.5098   50.7766  129.8690 C   0  0  0  0  0  0  0  0  0  0  0  0
    8.3560   51.5996  130.5569 C   0  0  0  0  0  0  0  0  0  0  0  0
    9.0464   51.1149  131.6422 C   0  0  0  0  0  0  0  0  0  0  0  0
    8.9272   49.8153  132.0803 C   0  0  0  0  0  0  0  0  0  0  0  0
    8.0839   48.9605  131.4099 C   0  0  0  0  0  0  0  0  0  0  0  0
    7.4010   49.4551  130.3302 C   0  0  0  0  0  0  0  0  0  0  0  0
    6.7901   51.1730  128.7906 O   0  0  0  0  0  0  0  0  0  0  0  0
    6.9876   52.0865  127.8001 C   0  0  0  0  0  0  0  0  0  0  0  0
    7.1079   53.5255  128.1784 C   0  0  0  0  0  0  0  0  0  0  0  0
    5.3880   56.1327  127.8737 C   0  0  0  0  0  0  0  0  0  0  0  0
    6.2664   55.5733  126.8304 C   0  0  0  0  0  0  0  0  0  0  0  0
    6.4765   56.0554  125.6261 O   0  0  0  0  0  0  0  0  0  0  0  0
    7.3194   55.2939  124.9743 C   0  0  0  0  0  0  0  0  0  0  0  0
    7.6541   54.2893  125.8050 N   0  0  0  0  0  0  0  0  0  0  0  0
    7.0239   54.4189  126.9738 C   0  0  0  0  0  0  0  0  0  0  0  0
    7.8122   55.4797  123.6164 C   0  0  0  0  0  0  0  0  0  0  0  0
    8.8676   56.3296  123.3595 C   0  0  0  0  0  0  0  0  0  0  0  0
    9.3555   56.5251  122.0702 C   0  0  0  0  0  0  0  0  0  0  0  0
    8.7772   55.8580  121.0148 C   0  0  0  0  0  0  0  0  0  0  0  0
    7.7312   55.0111  121.2436 C   0  0  0  0  0  0  0  0  0  0  0  0
    7.2522   54.8249  122.5437 C   0  0  0  0  0  0  0  0  0  0  0  0
    7.9474   47.5752  131.8738 C   0  0  0  0  0  0  0  0  0  0  0  0
    8.9187   47.1272  132.8129 N   0  0  0  0  0  0  0  0  0  0  0  0
    8.4474   46.0746  133.6398 C   0  0  0  0  0  0  0  0  0  0  0  0
    9.4137   45.5432  134.6100 C   0  0  0  0  0  0  0  0  0  0  0  0
   10.1000   44.5147  134.4861 O   0  0  0  0  0  0  0  0  0  0  0  0
    9.5927   46.2603  135.8092 O   0  0  0  0  0  0  0  0  0  0  0  0
    9.2445   45.8731  136.6748 H   0  0  0  0  0  0  0  0  0  0  0  0
   10.2257   46.9531  132.2526 C   0  0  0  0  0  0  0  0  0  0  0  0
   10.2894   46.2142  130.9952 C   0  0  0  0  0  0  0  0  0  0  0  0
   10.6417   46.7347  129.7714 C   0  0  0  0  0  0  0  0  0  0  0  0
   10.6656   45.9476  128.6303 C   0  0  0  0  0  0  0  0  0  0  0  0
   10.3397   44.6098  128.6624 C   0  0  0  0  0  0  0  0  0  0  0  0
   10.3741   43.8582  127.5069 C   0  0  0  0  0  0  0  0  0  0  0  0
   10.0480   42.5170  127.5291 C   0  0  0  0  0  0  0  0  0  0  0  0
    9.6901   41.9653  128.7398 C   0  0  0  0  0  0  0  0  0  0  0  0
    9.6562   42.7281  129.9085 C   0  0  0  0  0  0  0  0  0  0  0  0
    9.9838   44.0713  129.8824 C   0  0  0  0  0  0  0  0  0  0  0  0
    9.9616   44.8588  131.0152 C   0  0  0  0  0  0  0  0  0  0  0  0
 10 11  1  0  0  0
 11 12  1  0  0  0
 12 13  1  0  0  0
 13 16  1  0  0  0
 16 17  2  0  0  0
 17 18  1  0  0  0
 18 19  2  0  0  0
 19 20  1  0  0  0
 20 21  2  0  0  0
 13 14  2  0  0  0
 14 15  1  0  0  0
 15  9  1  0  0  0
  9  8  1  0  0  0
  8  7  1  0  0  0
  7  1  1  0  0  0
  1  2  2  0  0  0
  2  3  1  0  0  0
  3  4  2  0  0  0
  4  5  1  0  0  0
  5 22  1  0  0  0
 22 23  1  0  0  0
 23 24  1  0  0  0
 24 25  1  0  0  0
 25 26  2  0  0  0
 25 27  1  0  0  0
 23 29  1  0  0  0
 29 30  1  0  0  0
 30 31  2  0  0  0
 31 32  1  0  0  0
 32 33  2  0  0  0
 33 34  1  0  0  0
 34 35  2  0  0  0
 35 36  1  0  0  0
 36 37  2  0  0  0
 37 38  1  0  0  0
 38 39  2  0  0  0
  5  6  2  0  0  0
 15 11  2  0  0  0
  6  1  1  0  0  0
 21 16  1  0  0  0
 39 30  1  0  0  0
 38 33  1  0  0  0
 27 28  1  0  0  0
M  END
> <minimizedAffinity>
3.15303

> <CNNscore>
0.3387459517

> <CNNaffinity>
6.7581357956

> <CNN_VS>
2.2892911434

> <CNNaffinity_variance>
0.5566567183

$$$$
[H]OC(=O)C([H])([H])N(C([H])([H])c1c([H])c([H])c([H])c(OC([H])([H])C([H])([H])c2nc(-c3c([H])c([H])c([H])c([H])c3[H])oc2C([H])([H])[H])c1[H])C([H])([H])c1c([H])c([H])c2c([H])c([H])c([H])c([H])c2c1[H]


 39 43  0  0  0  0  0  0  0  0999 V2000
    7.2131   50.6829  129.4743 C   0  0  0  0  0  0  0  0  0  0  0  0
    8.3226   50.9149  130.2370 C   0  0  0  0  0  0  0  0  0  0  0  0
    8.8909   49.8833  130.9458 C   0  0  0  0  0  0  0  0  0  0  0  0
    8.3896   48.6014  130.9254 C   0  0  0  0  0  0  0  0  0  0  0  0
    7.2738   48.3338  130.1673 C   0  0  0  0  0  0  0  0  0  0  0  0
    6.7161   49.3699  129.4658 C   0  0  0  0  0  0  0  0  0  0  0  0
    6.5891   51.6420  128.7470 O   0  0  0  0  0  0  0  0  0  0  0  0
    6.9716   52.4625  127.7297 C   0  0  0  0  0  0  0  0  0  0  0  0
    7.1564   53.9144  128.0231 C   0  0  0  0  0  0  0  0  0  0  0  0
    5.3026   56.4053  127.5677 C   0  0  0  0  0  0  0  0  0  0  0  0
    6.2296   55.8477  126.5663 C   0  0  0  0  0  0  0  0  0  0  0  0
    6.4356   56.2844  125.3441 O   0  0  0  0  0  0  0  0  0  0  0  0
    7.3309   55.5414  124.7427 C   0  0  0  0  0  0  0  0  0  0  0  0
    7.7043   54.5965  125.6252 N   0  0  0  0  0  0  0  0  0  0  0  0
    7.0463   54.7449  126.7763 C   0  0  0  0  0  0  0  0  0  0  0  0
    7.8381   55.6911  123.3856 C   0  0  0  0  0  0  0  0  0  0  0  0
    8.9355   56.4855  123.1267 C   0  0  0  0  0  0  0  0  0  0  0  0
    9.4379   56.6456  121.8381 C   0  0  0  0  0  0  0  0  0  0  0  0
    8.8318   55.9992  120.7856 C   0  0  0  0  0  0  0  0  0  0  0  0
    7.7440   55.2071  121.0164 C   0  0  0  0  0  0  0  0  0  0  0  0
    7.2509   55.0558  122.3158 C   0  0  0  0  0  0  0  0  0  0  0  0
    6.7304   46.9711  130.1444 C   0  0  0  0  0  0  0  0  0  0  0  0
    7.5237   45.9665  130.7669 N   0  0  0  0  0  0  0  0  0  0  0  0
    7.0871   45.6481  132.0791 C   0  0  0  0  0  0  0  0  0  0  0  0
    8.1138   45.7148  133.1275 C   0  0  0  0  0  0  0  0  0  0  0  0
    8.2575   44.9253  134.0762 O   0  0  0  0  0  0  0  0  0  0  0  0
    9.0378   46.7763  133.0663 O   0  0  0  0  0  0  0  0  0  0  0  0
    8.9840   47.5198  133.7480 H   0  0  0  0  0  0  0  0  0  0  0  0
    7.8213   44.8551  129.9133 C   0  0  0  0  0  0  0  0  0  0  0  0
    9.2132   44.7262  129.4929 C   0  0  0  0  0  0  0  0  0  0  0  0
    9.6556   44.6066  128.1957 C   0  0  0  0  0  0  0  0  0  0  0  0
   11.0045   44.4829  127.8999 C   0  0  0  0  0  0  0  0  0  0  0  0
   11.9674   44.4737  128.8847 C   0  0  0  0  0  0  0  0  0  0  0  0
   13.2998   44.3482  128.5528 C   0  0  0  0  0  0  0  0  0  0  0  0
   14.2717   44.3368  129.5331 C   0  0  0  0  0  0  0  0  0  0  0  0
   13.8611   44.4543  130.8430 C   0  0  0  0  0  0  0  0  0  0  0  0
   12.5115   44.5814  131.1766 C   0  0  0  0  0  0  0  0  0  0  0  0
   11.5408   44.5928  130.1919 C   0  0  0  0  0  0  0  0  0  0  0  0
   10.1972   44.7156  130.4812 C   0  0  0  0  0  0  0  0  0  0  0  0
 10 11  1  0  0  0
 11 12  1  0  0  0
 12 13  1  0  0  0
 13 16  1  0  0  0
 16 17  2  0  0  0
 17 18  1  0  0  0
 18 19  2  0  0  0
 19 20  1  0  0  0
 20 21  2  0  0  0
 13 14  2  0  0  0
 14 15  1  0  0  0
 15  9  1  0  0  0
  9  8  1  0  0  0
  8  7  1  0  0  0
  7  1  1  0  0  0
  1  2  2  0  0  0
  2  3  1  0  0  0
  3  4  2  0  0  0
  4  5  1  0  0  0
  5 22  1  0  0  0
 22 23  1  0  0  0
 23 24  1  0  0  0
 24 25  1  0  0  0
 25 26  2  0  0  0
 25 27  1  0  0  0
 23 29  1  0  0  0
 29 30  1  0  0  0
 30 31  2  0  0  0
 31 32  1  0  0  0
 32 33  2  0  0  0
 33 34  1  0  0  0
 34 35  2  0  0  0
 35 36  1  0  0  0
 36 37  2  0  0  0
 37 38  1  0  0  0
 38 39  2  0  0  0
  5  6  2  0  0  0
 15 11  2  0  0  0
  6  1  1  0  0  0
 21 16  1  0  0  0
 39 30  1  0  0  0
 38 33  1  0  0  0
 27 28  1  0  0  0
M  END
> <minimizedAffinity>
-0.66094

> <CNNscore>
0.2862507701

> <CNNaffinity>
6.6518425941

> <CNN_VS>
1.9040950537

> <CNNaffinity_variance>
0.3286743760

$$$$
[H]OC(=O)C([H])([H])N(C([H])([H])c1c([H])c([H])c([H])c(OC([H])([H])C([H])([H])c2nc(-c3c([H])c([H])c([H])c([H])c3[H])oc2C([H])([H])[H])c1[H])C([H])([H])c1c([H])c([H])c2c([H])c([H])c([H])c([H])c2c1[H]


 39 43  0  0  0  0  0  0  0  0999 V2000
    7.2496   50.5819  129.3453 C   0  0  0  0  0  0  0  0  0  0  0  0
    7.6184   50.6345  130.6598 C   0  0  0  0  0  0  0  0  0  0  0  0
    8.1934   49.5350  131.2513 C   0  0  0  0  0  0  0  0  0  0  0  0
    8.4224   48.3592  130.5729 C   0  0  0  0  0  0  0  0  0  0  0  0
    8.0631   48.2730  129.2482 C   0  0  0  0  0  0  0  0  0  0  0  0
    7.4907   49.3750  128.6698 C   0  0  0  0  0  0  0  0  0  0  0  0
    6.6751   51.6177  128.6855 O   0  0  0  0  0  0  0  0  0  0  0  0
    7.1034   52.4927  127.7340 C   0  0  0  0  0  0  0  0  0  0  0  0
    7.1106   53.9486  128.0634 C   0  0  0  0  0  0  0  0  0  0  0  0
    5.4093   56.5520  127.6431 C   0  0  0  0  0  0  0  0  0  0  0  0
    6.2896   55.9450  126.6284 C   0  0  0  0  0  0  0  0  0  0  0  0
    6.5094   56.3763  125.4067 O   0  0  0  0  0  0  0  0  0  0  0  0
    7.3508   55.5836  124.7912 C   0  0  0  0  0  0  0  0  0  0  0  0
    7.6744   54.6116  125.6639 N   0  0  0  0  0  0  0  0  0  0  0  0
    7.0388   54.7926  126.8229 C   0  0  0  0  0  0  0  0  0  0  0  0
    7.8521   55.7108  123.4296 C   0  0  0  0  0  0  0  0  0  0  0  0
    7.2324   55.0555  122.3861 C   0  0  0  0  0  0  0  0  0  0  0  0
    7.6935   55.1600  121.0765 C   0  0  0  0  0  0  0  0  0  0  0  0
    8.7970   55.9351  120.8029 C   0  0  0  0  0  0  0  0  0  0  0  0
    9.4277   56.5936  121.8189 C   0  0  0  0  0  0  0  0  0  0  0  0
    8.9530   56.4792  123.1289 C   0  0  0  0  0  0  0  0  0  0  0  0
    8.2992   47.0216  128.5196 C   0  0  0  0  0  0  0  0  0  0  0  0
    8.8316   45.9418  129.2790 N   0  0  0  0  0  0  0  0  0  0  0  0
    8.1044   44.7344  129.1128 C   0  0  0  0  0  0  0  0  0  0  0  0
    8.9109   43.5326  128.8625 C   0  0  0  0  0  0  0  0  0  0  0  0
    9.5495   43.2697  127.8295 O   0  0  0  0  0  0  0  0  0  0  0  0
    8.9777   42.5689  129.8879 O   0  0  0  0  0  0  0  0  0  0  0  0
    8.5030   41.6852  129.7690 H   0  0  0  0  0  0  0  0  0  0  0  0
   10.2583   45.8345  129.2077 C   0  0  0  0  0  0  0  0  0  0  0  0
   10.9171   45.2737  130.3836 C   0  0  0  0  0  0  0  0  0  0  0  0
   12.1126   44.5928  130.3897 C   0  0  0  0  0  0  0  0  0  0  0  0
   12.6537   44.0919  131.5639 C   0  0  0  0  0  0  0  0  0  0  0  0
   12.0257   44.2495  132.7796 C   0  0  0  0  0  0  0  0  0  0  0  0
   12.5937   43.7370  133.9267 C   0  0  0  0  0  0  0  0  0  0  0  0
   11.9711   43.8890  135.1494 C   0  0  0  0  0  0  0  0  0  0  0  0
   10.7715   44.5662  135.1770 C   0  0  0  0  0  0  0  0  0  0  0  0
   10.1985   45.0844  134.0143 C   0  0  0  0  0  0  0  0  0  0  0  0
   10.8253   44.9304  132.7914 C   0  0  0  0  0  0  0  0  0  0  0  0
   10.2908   45.4270  131.6202 C   0  0  0  0  0  0  0  0  0  0  0  0
 10 11  1  0  0  0
 11 12  1  0  0  0
 12 13  1  0  0  0
 13 16  1  0  0  0
 16 17  2  0  0  0
 17 18  1  0  0  0
 18 19  2  0  0  0
 19 20  1  0  0  0
 20 21  2  0  0  0
 13 14  2  0  0  0
 14 15  1  0  0  0
 15  9  1  0  0  0
  9  8  1  0  0  0
  8  7  1  0  0  0
  7  1  1  0  0  0
  1  2  2  0  0  0
  2  3  1  0  0  0
  3  4  2  0  0  0
  4  5  1  0  0  0
  5 22  1  0  0  0
 22 23  1  0  0  0
 23 24  1  0  0  0
 24 25  1  0  0  0
 25 26  2  0  0  0
 25 27  1  0  0  0
 23 29  1  0  0  0
 29 30  1  0  0  0
 30 31  2  0  0  0
 31 32  1  0  0  0
 32 33  2  0  0  0
 33 34  1  0  0  0
 34 35  2  0  0  0
 35 36  1  0  0  0
 36 37  2  0  0  0
 37 38  1  0  0  0
 38 39  2  0  0  0
  5  6  2  0  0  0
 15 11  2  0  0  0
  6  1  1  0  0  0
 21 16  1  0  0  0
 39 30  1  0  0  0
 38 33  1  0  0  0
 27 28  1  0  0  0
M  END
> <minimizedAffinity>
-3.65341

> <CNNscore>
0.2855741680

> <CNNaffinity>
6.9280104637

> <CNN_VS>
1.9784607887

> <CNNaffinity_variance>
0.3239369392

$$$$
[H]OC(=O)C([H])([H])N(C([H])([H])c1c([H])c([H])c([H])c(OC([H])([H])C([H])([H])c2nc(-c3c([H])c([H])c([H])c([H])c3[H])oc2C([H])([H])[H])c1[H])C([H])([H])c1c([H])c([H])c2c([H])c([H])c([H])c([H])c2c1[H]


 39 43  0  0  0  0  0  0  0  0999 V2000
   10.7986   47.2511  132.9912 C   0  0  0  0  0  0  0  0  0  0  0  0
   10.0945   46.9653  134.1267 C   0  0  0  0  0  0  0  0  0  0  0  0
    8.8973   47.5976  134.3641 C   0  0  0  0  0  0  0  0  0  0  0  0
    8.3595   48.5227  133.4982 C   0  0  0  0  0  0  0  0  0  0  0  0
    9.0427   48.8330  132.3456 C   0  0  0  0  0  0  0  0  0  0  0  0
   10.2348   48.1968  132.1201 C   0  0  0  0  0  0  0  0  0  0  0  0
   11.9865   46.6762  132.6807 O   0  0  0  0  0  0  0  0  0  0  0  0
   13.1436   46.4574  133.3647 C   0  0  0  0  0  0  0  0  0  0  0  0
   13.1871   45.3265  134.3380 C   0  0  0  0  0  0  0  0  0  0  0  0
   11.7599   43.5398  136.4873 C   0  0  0  0  0  0  0  0  0  0  0  0
   11.4231   43.5668  135.0524 C   0  0  0  0  0  0  0  0  0  0  0  0
   10.4930   42.8680  134.4412 O   0  0  0  0  0  0  0  0  0  0  0  0
   10.4801   43.1519  133.1628 C   0  0  0  0  0  0  0  0  0  0  0  0
   11.4439   44.0693  132.9612 N   0  0  0  0  0  0  0  0  0  0  0  0
   12.0600   44.3605  134.1082 C   0  0  0  0  0  0  0  0  0  0  0  0
    9.6027   42.5961  132.1416 C   0  0  0  0  0  0  0  0  0  0  0  0
   10.1004   41.7618  131.1625 C   0  0  0  0  0  0  0  0  0  0  0  0
    9.2823   41.2195  130.1750 C   0  0  0  0  0  0  0  0  0  0  0  0
    7.9389   41.5166  130.1645 C   0  0  0  0  0  0  0  0  0  0  0  0
    7.4225   42.3400  131.1233 C   0  0  0  0  0  0  0  0  0  0  0  0
    8.2563   42.8769  132.1086 C   0  0  0  0  0  0  0  0  0  0  0  0
    8.4786   49.8218  131.4200 C   0  0  0  0  0  0  0  0  0  0  0  0
    7.5363   49.3315  130.4725 N   0  0  0  0  0  0  0  0  0  0  0  0
    6.3520   50.1112  130.4128 C   0  0  0  0  0  0  0  0  0  0  0  0
    5.2348   49.5193  129.6650 C   0  0  0  0  0  0  0  0  0  0  0  0
    5.1098   48.3268  129.3388 O   0  0  0  0  0  0  0  0  0  0  0  0
    4.1900   50.3772  129.2691 O   0  0  0  0  0  0  0  0  0  0  0  0
    4.0850   50.6119  128.2922 H   0  0  0  0  0  0  0  0  0  0  0  0
    8.1180   48.9694  129.2144 C   0  0  0  0  0  0  0  0  0  0  0  0
    8.5822   47.5903  129.0977 C   0  0  0  0  0  0  0  0  0  0  0  0
    7.7820   46.4725  129.0422 C   0  0  0  0  0  0  0  0  0  0  0  0
    8.3229   45.2002  128.9371 C   0  0  0  0  0  0  0  0  0  0  0  0
    9.6831   44.9901  128.8827 C   0  0  0  0  0  0  0  0  0  0  0  0
   10.1849   43.7101  128.7788 C   0  0  0  0  0  0  0  0  0  0  0  0
   11.5467   43.4897  128.7249 C   0  0  0  0  0  0  0  0  0  0  0  0
   12.3755   44.5890  128.7787 C   0  0  0  0  0  0  0  0  0  0  0  0
   11.8651   45.8841  128.8837 C   0  0  0  0  0  0  0  0  0  0  0  0
   10.5005   46.1009  128.9372 C   0  0  0  0  0  0  0  0  0  0  0  0
    9.9574   47.3650  129.0418 C   0  0  0  0  0  0  0  0  0  0  0  0
 10 11  1  0  0  0
 11 12  1  0  0  0
 12 13  1  0  0  0
 13 16  1  0  0  0
 16 17  2  0  0  0
 17 18  1  0  0  0
 18 19  2  0  0  0
 19 20  1  0  0  0
 20 21  2  0  0  0
 13 14  2  0  0  0
 14 15  1  0  0  0
 15  9  1  0  0  0
  9  8  1  0  0  0
  8  7  1  0  0  0
  7  1  1  0  0  0
  1  2  2  0  0  0
  2  3  1  0  0  0
  3  4  2  0  0  0
  4  5  1  0  0  0
  5 22  1  0  0  0
 22 23  1  0  0  0
 23 24  1  0  0  0
 24 25  1  0  0  0
 25 26  2  0  0  0
 25 27  1  0  0  0
 23 29  1  0  0  0
 29 30  1  0  0  0
 30 31  2  0  0  0
 31 32  1  0  0  0
 32 33  2  0  0  0
 33 34  1  0  0  0
 34 35  2  0  0  0
 35 36  1  0  0  0
 36 37  2  0  0  0
 37 38  1  0  0  0
 38 39  2  0  0  0
  5  6  2  0  0  0
 15 11  2  0  0  0
  6  1  1  0  0  0
 21 16  1  0  0  0
 39 30  1  0  0  0
 38 33  1  0  0  0
 27 28  1  0  0  0
M  END
> <minimizedAffinity>
3.94404

> <CNNscore>
0.2811342776

> <CNNaffinity>
7.5257897377

> <CNN_VS>
2.1157574654

> <CNNaffinity_variance>
0.1618948579

$$$$
[H]c1nc([H])c(N([H])C2([H])C([H])([H])N(C(=O)c3c(C([H])([H])[H])noc3C([H])([H])[H])C2([H])[H])c([H])c1N1C(=O)c2c([H])c([H])c(Cl)c([H])c2C([H])([H])C1([H])[H]


 33 37  0  0  0  0  0  0  0  0999 V2000
    8.4903   49.6351  130.8972 C   0  0  0  0  0  0  0  0  0  0  0  0
    7.2604   49.9981  130.3285 C   0  0  0  0  0  0  0  0  0  0  0  0
    6.5449   49.0950  129.6413 N   0  0  0  0  0  0  0  0  0  0  0  0
    6.9787   47.8213  129.4757 C   0  0  0  0  0  0  0  0  0  0  0  0
    8.1790   47.3914  130.0069 C   0  0  0  0  0  0  0  0  0  0  0  0
    8.9168   48.3386  130.7203 C   0  0  0  0  0  0  0  0  0  0  0  0
    8.6349   46.0579  129.8496 N   0  0  0  0  0  0  0  0  0  0  0  0
    7.8998   45.0125  130.5269 C   0  0  0  0  0  0  0  0  0  0  0  0
    7.8528   43.7338  129.7615 C   0  0  0  0  0  0  0  0  0  0  0  0
    9.0264   43.5145  128.8934 C   0  0  0  0  0  0  0  0  0  0  0  0
    9.1894   42.2200  128.4047 C   0  0  0  0  0  0  0  0  0  0  0  0
   10.2723   41.9011  127.5786 C   0  0  0  0  0  0  0  0  0  0  0  0
   10.4892   40.2762  126.9536 Cl  0  0  0  0  0  0  0  0  0  0  0  0
   11.2123   42.8570  127.2225 C   0  0  0  0  0  0  0  0  0  0  0  0
   11.0165   44.1362  127.7288 C   0  0  0  0  0  0  0  0  0  0  0  0
    9.9483   44.4442  128.5409 C   0  0  0  0  0  0  0  0  0  0  0  0
    9.7770   45.8131  129.0308 C   0  0  0  0  0  0  0  0  0  0  0  0
   10.6060   46.7003  128.7294 O   0  0  0  0  0  0  0  0  0  0  0  0
    9.2105   50.6108  131.6201 N   0  0  0  0  0  0  0  0  0  0  0  0
    9.6490   51.4007  131.0878 H   0  0  0  0  0  0  0  0  0  0  0  0
   10.6929   47.3366  133.2242 C   0  0  0  0  0  0  0  0  0  0  0  0
   12.0088   47.5499  133.1252 O   0  0  0  0  0  0  0  0  0  0  0  0
   10.0148   48.5450  133.4249 N   0  0  0  0  0  0  0  0  0  0  0  0
   10.6108   49.9219  133.5499 C   0  0  0  0  0  0  0  0  0  0  0  0
    9.3238   50.4992  133.0624 C   0  0  0  0  0  0  0  0  0  0  0  0
    8.7645   49.1758  133.5928 C   0  0  0  0  0  0  0  0  0  0  0  0
   12.2218   45.2353  131.5412 C   0  0  0  0  0  0  0  0  0  0  0  0
   10.9842   45.0280  132.3457 C   0  0  0  0  0  0  0  0  0  0  0  0
   10.3443   43.8558  132.4616 N   0  0  0  0  0  0  0  0  0  0  0  0
    9.3344   44.0027  133.2112 O   0  0  0  0  0  0  0  0  0  0  0  0
    9.2487   45.2764  133.6333 C   0  0  0  0  0  0  0  0  0  0  0  0
    8.1733   45.7288  134.5181 C   0  0  0  0  0  0  0  0  0  0  0  0
   10.2797   45.9809  133.1100 C   0  0  0  0  0  0  0  0  0  0  0  0
 27 28  1  0  0  0
 28 29  2  0  0  0
 29 30  1  0  0  0
 30 31  1  0  0  0
 31 32  1  0  0  0
 31 33  2  0  0  0
 33 21  1  0  0  0
 21 22  2  0  0  0
 21 23  1  0  0  0
 23 24  1  0  0  0
 24 25  1  0  0  0
 25 19  1  0  0  0
 19  1  1  0  0  0
  1  2  2  0  0  0
  2  3  1  0  0  0
  3  4  2  0  0  0
  4  5  1  0  0  0
  5  7  1  0  0  0
  7  8  1  0  0  0
  8  9  1  0  0  0
  9 10  1  0  0  0
 10 11  2  0  0  0
 11 12  1  0  0  0
 12 13  1  0  0  0
 12 14  2  0  0  0
 14 15  1  0  0  0
 15 16  2  0  0  0
 16 17  1  0  0  0
 17 18  2  0  0  0
  5  6  2  0  0  0
 25 26  1  0  0  0
 33 28  1  0  0  0
 26 23  1  0  0  0
  6  1  1  0  0  0
 17  7  1  0  0  0
 16 10  1  0  0  0
 19 20  1  0  0  0
M  END
> <minimizedAffinity>
7.16771

> <CNNscore>
0.3978810608

> <CNNaffinity>
7.6366167068

> <CNN_VS>
3.0384652615

> <CNNaffinity_variance>
0.2150864601

$$$$
[H]c1nc([H])c(N([H])C2([H])C([H])([H])N(C(=O)c3c(C([H])([H])[H])noc3C([H])([H])[H])C2([H])[H])c([H])c1N1C(=O)c2c([H])c([H])c(Cl)c([H])c2C([H])([H])C1([H])[H]


 33 37  0  0  0  0  0  0  0  0999 V2000
    8.6470   49.3286  130.2288 C   0  0  0  0  0  0  0  0  0  0  0  0
    8.8938   50.5238  130.9204 C   0  0  0  0  0  0  0  0  0  0  0  0
    9.4928   50.4947  132.1204 N   0  0  0  0  0  0  0  0  0  0  0  0
    9.8740   49.3282  132.6966 C   0  0  0  0  0  0  0  0  0  0  0  0
    9.6641   48.1125  132.0755 C   0  0  0  0  0  0  0  0  0  0  0  0
    9.0398   48.1530  130.8269 C   0  0  0  0  0  0  0  0  0  0  0  0
   10.0707   46.8884  132.6646 N   0  0  0  0  0  0  0  0  0  0  0  0
   11.0580   46.0996  131.9610 C   0  0  0  0  0  0  0  0  0  0  0  0
   11.9896   45.3730  132.8705 C   0  0  0  0  0  0  0  0  0  0  0  0
   11.3936   45.0141  134.1723 C   0  0  0  0  0  0  0  0  0  0  0  0
   12.0964   44.0767  134.9265 C   0  0  0  0  0  0  0  0  0  0  0  0
   11.6166   43.6602  136.1728 C   0  0  0  0  0  0  0  0  0  0  0  0
   12.4918   42.4827  137.1348 Cl  0  0  0  0  0  0  0  0  0  0  0  0
   10.4337   44.1635  136.6938 C   0  0  0  0  0  0  0  0  0  0  0  0
    9.7610   45.0960  135.9134 C   0  0  0  0  0  0  0  0  0  0  0  0
   10.2385   45.5026  134.6877 C   0  0  0  0  0  0  0  0  0  0  0  0
    9.5013   46.5036  133.9147 C   0  0  0  0  0  0  0  0  0  0  0  0
    8.4307   46.9786  134.3543 O   0  0  0  0  0  0  0  0  0  0  0  0
    8.0220   49.4003  128.9648 N   0  0  0  0  0  0  0  0  0  0  0  0
    8.4490   50.0189  128.2337 H   0  0  0  0  0  0  0  0  0  0  0  0
    7.8652   45.6165  130.0370 C   0  0  0  0  0  0  0  0  0  0  0  0
    7.5475   45.7077  131.3322 O   0  0  0  0  0  0  0  0  0  0  0  0
    7.2785   46.6622  129.3142 N   0  0  0  0  0  0  0  0  0  0  0  0
    6.3849   47.7534  129.8408 C   0  0  0  0  0  0  0  0  0  0  0  0
    6.8214   48.6257  128.7113 C   0  0  0  0  0  0  0  0  0  0  0  0
    7.1236   47.2760  128.0537 C   0  0  0  0  0  0  0  0  0  0  0  0
   10.3407   45.8905  128.1980 C   0  0  0  0  0  0  0  0  0  0  0  0
    9.8269   44.6526  128.8501 C   0  0  0  0  0  0  0  0  0  0  0  0
   10.3938   43.4436  128.7315 N   0  0  0  0  0  0  0  0  0  0  0  0
    9.7277   42.6015  129.4029 O   0  0  0  0  0  0  0  0  0  0  0  0
    8.6857   43.2033  130.0027 C   0  0  0  0  0  0  0  0  0  0  0  0
    7.7453   42.4642  130.8475 C   0  0  0  0  0  0  0  0  0  0  0  0
    8.6978   44.5192  129.6842 C   0  0  0  0  0  0  0  0  0  0  0  0
 27 28  1  0  0  0
 28 29  2  0  0  0
 29 30  1  0  0  0
 30 31  1  0  0  0
 31 32  1  0  0  0
 31 33  2  0  0  0
 33 21  1  0  0  0
 21 22  2  0  0  0
 21 23  1  0  0  0
 23 24  1  0  0  0
 24 25  1  0  0  0
 25 19  1  0  0  0
 19  1  1  0  0  0
  1  2  2  0  0  0
  2  3  1  0  0  0
  3  4  2  0  0  0
  4  5  1  0  0  0
  5  7  1  0  0  0
  7  8  1  0  0  0
  8  9  1  0  0  0
  9 10  1  0  0  0
 10 11  2  0  0  0
 11 12  1  0  0  0
 12 13  1  0  0  0
 12 14  2  0  0  0
 14 15  1  0  0  0
 15 16  2  0  0  0
 16 17  1  0  0  0
 17 18  2  0  0  0
  5  6  2  0  0  0
 25 26  1  0  0  0
 33 28  1  0  0  0
 26 23  1  0  0  0
  6  1  1  0  0  0
 17  7  1  0  0  0
 16 10  1  0  0  0
 19 20  1  0  0  0
M  END
> <minimizedAffinity>
1.24711

> <CNNscore>
0.2580658197

> <CNNaffinity>
7.6002702713

> <CNN_VS>
1.9613699913

> <CNNaffinity_variance>
0.0638048276

$$$$
[H]c1nc([H])c(N([H])C2([H])C([H])([H])N(C(=O)c3c(C([H])([H])[H])noc3C([H])([H])[H])C2([H])[H])c([H])c1N1C(=O)c2c([H])c([H])c(Cl)c([H])c2C([H])([H])C1([H])[H]


 33 37  0  0  0  0  0  0  0  0999 V2000
   10.1777   42.5455  130.9927 C   0  0  0  0  0  0  0  0  0  0  0  0
   10.2672   41.7333  132.1329 C   0  0  0  0  0  0  0  0  0  0  0  0
   10.0106   42.2464  133.3456 N   0  0  0  0  0  0  0  0  0  0  0  0
    9.6616   43.5463  133.5082 C   0  0  0  0  0  0  0  0  0  0  0  0
    9.5531   44.4058  132.4325 C   0  0  0  0  0  0  0  0  0  0  0  0
    9.8222   43.8627  131.1743 C   0  0  0  0  0  0  0  0  0  0  0  0
    9.1764   45.7636  132.5914 N   0  0  0  0  0  0  0  0  0  0  0  0
    7.8449   46.0380  133.0852 C   0  0  0  0  0  0  0  0  0  0  0  0
    7.7763   47.2455  133.9570 C   0  0  0  0  0  0  0  0  0  0  0  0
    8.7853   48.2732  133.6333 C   0  0  0  0  0  0  0  0  0  0  0  0
    8.5740   49.5319  134.1924 C   0  0  0  0  0  0  0  0  0  0  0  0
    9.4657   50.5807  133.9443 C   0  0  0  0  0  0  0  0  0  0  0  0
    9.2142   52.1701  134.6431 Cl  0  0  0  0  0  0  0  0  0  0  0  0
   10.5809   50.4025  133.1389 C   0  0  0  0  0  0  0  0  0  0  0  0
   10.7584   49.1341  132.5994 C   0  0  0  0  0  0  0  0  0  0  0  0
    9.8777   48.1055  132.8477 C   0  0  0  0  0  0  0  0  0  0  0  0
   10.1224   46.7823  132.2713 C   0  0  0  0  0  0  0  0  0  0  0  0
   11.1183   46.5861  131.5401 O   0  0  0  0  0  0  0  0  0  0  0  0
   10.4470   41.9676  129.7330 N   0  0  0  0  0  0  0  0  0  0  0  0
   11.3423   41.4353  129.6116 H   0  0  0  0  0  0  0  0  0  0  0  0
    9.6179   45.5546  128.3412 C   0  0  0  0  0  0  0  0  0  0  0  0
   10.6292   45.7639  127.4926 O   0  0  0  0  0  0  0  0  0  0  0  0
    9.2804   44.1962  128.3751 N   0  0  0  0  0  0  0  0  0  0  0  0
    9.8997   43.0768  127.5814 C   0  0  0  0  0  0  0  0  0  0  0  0
    9.4910   42.1210  128.6522 C   0  0  0  0  0  0  0  0  0  0  0  0
    8.4500   43.2065  128.9412 C   0  0  0  0  0  0  0  0  0  0  0  0
   11.2714   48.1483  128.6929 C   0  0  0  0  0  0  0  0  0  0  0  0
    9.8772   47.8911  129.1532 C   0  0  0  0  0  0  0  0  0  0  0  0
    9.1166   48.7857  129.7999 N   0  0  0  0  0  0  0  0  0  0  0  0
    7.9875   48.2707  130.0517 O   0  0  0  0  0  0  0  0  0  0  0  0
    7.9364   47.0100  129.5871 C   0  0  0  0  0  0  0  0  0  0  0  0
    6.7427   46.1758  129.7396 C   0  0  0  0  0  0  0  0  0  0  0  0
    9.1200   46.7113  129.0014 C   0  0  0  0  0  0  0  0  0  0  0  0
 27 28  1  0  0  0
 28 29  2  0  0  0
 29 30  1  0  0  0
 30 31  1  0  0  0
 31 32  1  0  0  0
 31 33  2  0  0  0
 33 21  1  0  0  0
 21 22  2  0  0  0
 21 23  1  0  0  0
 23 24  1  0  0  0
 24 25  1  0  0  0
 25 19  1  0  0  0
 19  1  1  0  0  0
  1  2  2  0  0  0
  2  3  1  0  0  0
  3  4  2  0  0  0
  4  5  1  0  0  0
  5  7  1  0  0  0
  7  8  1  0  0  0
  8  9  1  0  0  0
  9 10  1  0  0  0
 10 11  2  0  0  0
 11 12  1  0  0  0
 12 13  1  0  0  0
 12 14  2  0  0  0
 14 15  1  0  0  0
 15 16  2  0  0  0
 16 17  1  0  0  0
 17 18  2  0  0  0
  5  6  2  0  0  0
 25 26  1  0  0  0
 33 28  1  0  0  0
 26 23  1  0  0  0
  6  1  1  0  0  0
 17  7  1  0  0  0
 16 10  1  0  0  0
 19 20  1  0  0  0
M  END
> <minimizedAffinity>
14.07163

> <CNNscore>
0.2341429144

> <CNNaffinity>
6.9931235313

> <CNN_VS>
1.6373903751

> <CNNaffinity_variance>
0.1253321618

$$$$
[H]c1nc([H])c(N([H])C2([H])C([H])([H])N(C(=O)c3c(C([H])([H])[H])noc3C([H])([H])[H])C2([H])[H])c([H])c1N1C(=O)c2c([H])c([H])c(Cl)c([H])c2C([H])([H])C1([H])[H]


 33 37  0  0  0  0  0  0  0  0999 V2000
    8.1239   48.2582  129.1983 C   0  0  0  0  0  0  0  0  0  0  0  0
    8.9699   48.2047  128.0807 C   0  0  0  0  0  0  0  0  0  0  0  0
   10.2273   47.7552  128.2103 N   0  0  0  0  0  0  0  0  0  0  0  0
   10.7155   47.3438  129.4064 C   0  0  0  0  0  0  0  0  0  0  0  0
    9.9414   47.3674  130.5500 C   0  0  0  0  0  0  0  0  0  0  0  0
    8.6342   47.8371  130.4052 C   0  0  0  0  0  0  0  0  0  0  0  0
   10.4393   46.9274  131.8028 N   0  0  0  0  0  0  0  0  0  0  0  0
   10.0670   47.6851  132.9772 C   0  0  0  0  0  0  0  0  0  0  0  0
    9.8867   46.8395  134.1919 C   0  0  0  0  0  0  0  0  0  0  0  0
   10.7231   45.6233  134.2017 C   0  0  0  0  0  0  0  0  0  0  0  0
   10.8328   44.9691  135.4271 C   0  0  0  0  0  0  0  0  0  0  0  0
   11.6069   43.8105  135.5497 C   0  0  0  0  0  0  0  0  0  0  0  0
   11.7524   42.9747  137.0853 Cl  0  0  0  0  0  0  0  0  0  0  0  0
   12.2858   43.2797  134.4627 C   0  0  0  0  0  0  0  0  0  0  0  0
   12.1524   43.9591  133.2579 C   0  0  0  0  0  0  0  0  0  0  0  0
   11.3885   45.0987  133.1431 C   0  0  0  0  0  0  0  0  0  0  0  0
   11.2647   45.7647  131.8454 C   0  0  0  0  0  0  0  0  0  0  0  0
   11.8634   45.3133  130.8440 O   0  0  0  0  0  0  0  0  0  0  0  0
    6.8049   48.7294  129.0209 N   0  0  0  0  0  0  0  0  0  0  0  0
    6.6652   49.7457  128.8040 H   0  0  0  0  0  0  0  0  0  0  0  0
    7.3063   45.2640  130.8184 C   0  0  0  0  0  0  0  0  0  0  0  0
    7.1829   45.5989  132.1066 O   0  0  0  0  0  0  0  0  0  0  0  0
    6.4848   46.0710  130.0220 N   0  0  0  0  0  0  0  0  0  0  0  0
    5.5495   47.1596  130.4765 C   0  0  0  0  0  0  0  0  0  0  0  0
    5.6900   47.8082  129.1398 C   0  0  0  0  0  0  0  0  0  0  0  0
    6.0594   46.3842  128.7141 C   0  0  0  0  0  0  0  0  0  0  0  0
    8.2244   43.2244  132.9591 C   0  0  0  0  0  0  0  0  0  0  0  0
    8.6191   43.2724  131.5225 C   0  0  0  0  0  0  0  0  0  0  0  0
    9.4511   42.3996  130.9368 N   0  0  0  0  0  0  0  0  0  0  0  0
    9.5844   42.7040  129.7149 O   0  0  0  0  0  0  0  0  0  0  0  0
    8.8500   43.7918  129.4230 C   0  0  0  0  0  0  0  0  0  0  0  0
    8.8153   44.3646  128.0758 C   0  0  0  0  0  0  0  0  0  0  0  0
    8.2094   44.2008  130.5435 C   0  0  0  0  0  0  0  0  0  0  0  0
 27 28  1  0  0  0
 28 29  2  0  0  0
 29 30  1  0  0  0
 30 31  1  0  0  0
 31 32  1  0  0  0
 31 33  2  0  0  0
 33 21  1  0  0  0
 21 22  2  0  0  0
 21 23  1  0  0  0
 23 24  1  0  0  0
 24 25  1  0  0  0
 25 19  1  0  0  0
 19  1  1  0  0  0
  1  2  2  0  0  0
  2  3  1  0  0  0
  3  4  2  0  0  0
  4  5  1  0  0  0
  5  7  1  0  0  0
  7  8  1  0  0  0
  8  9  1  0  0  0
  9 10  1  0  0  0
 10 11  2  0  0  0
 11 12  1  0  0  0
 12 13  1  0  0  0
 12 14  2  0  0  0
 14 15  1  0  0  0
 15 16  2  0  0  0
 16 17  1  0  0  0
 17 18  2  0  0  0
  5  6  2  0  0  0
 25 26  1  0  0  0
 33 28  1  0  0  0
 26 23  1  0  0  0
  6  1  1  0  0  0
 17  7  1  0  0  0
 16 10  1  0  0  0
 19 20  1  0  0  0
M  END
> <minimizedAffinity>
4.51217

> <CNNscore>
0.2315211296

> <CNNaffinity>
7.2821540833

> <CNN_VS>
1.6859725714

> <CNNaffinity_variance>
0.1377196610

$$$$
[H]c1nc([H])c(N([H])C2([H])C([H])([H])N(C(=O)c3c(C([H])([H])[H])noc3C([H])([H])[H])C2([H])[H])c([H])c1N1C(=O)c2c([H])c([H])c(Cl)c([H])c2C([H])([H])C1([H])[H]


 33 37  0  0  0  0  0  0  0  0999 V2000
    8.7947   48.9689  133.1804 C   0  0  0  0  0  0  0  0  0  0  0  0
    9.7396   50.0003  133.0761 C   0  0  0  0  0  0  0  0  0  0  0  0
   10.9618   49.7452  132.5852 N   0  0  0  0  0  0  0  0  0  0  0  0
   11.3198   48.5021  132.1796 C   0  0  0  0  0  0  0  0  0  0  0  0
   10.4429   47.4374  132.2521 C   0  0  0  0  0  0  0  0  0  0  0  0
    9.1733   47.7127  132.7646 C   0  0  0  0  0  0  0  0  0  0  0  0
   10.8041   46.1365  131.8185 N   0  0  0  0  0  0  0  0  0  0  0  0
   12.2139   45.8290  131.7186 C   0  0  0  0  0  0  0  0  0  0  0  0
   12.5353   44.4155  132.0671 C   0  0  0  0  0  0  0  0  0  0  0  0
   11.4417   43.4666  131.7798 C   0  0  0  0  0  0  0  0  0  0  0  0
   11.7882   42.1170  131.7874 C   0  0  0  0  0  0  0  0  0  0  0  0
   10.8298   41.1336  131.5207 C   0  0  0  0  0  0  0  0  0  0  0  0
   11.2506   39.4305  131.5293 Cl  0  0  0  0  0  0  0  0  0  0  0  0
    9.5130   41.4684  131.2415 C   0  0  0  0  0  0  0  0  0  0  0  0
    9.2053   42.8236  131.2429 C   0  0  0  0  0  0  0  0  0  0  0  0
   10.1527   43.7870  131.5069 C   0  0  0  0  0  0  0  0  0  0  0  0
    9.7711   45.2002  131.5163 C   0  0  0  0  0  0  0  0  0  0  0  0
    8.5923   45.5380  131.2686 O   0  0  0  0  0  0  0  0  0  0  0  0
    7.5165   49.2778  133.6943 N   0  0  0  0  0  0  0  0  0  0  0  0
    6.8295   49.7567  133.0631 H   0  0  0  0  0  0  0  0  0  0  0  0
    6.6753   52.1112  136.2934 C   0  0  0  0  0  0  0  0  0  0  0  0
    5.3866   52.3529  136.0335 O   0  0  0  0  0  0  0  0  0  0  0  0
    6.9733   50.7603  136.0772 N   0  0  0  0  0  0  0  0  0  0  0  0
    6.0299   49.6707  135.6423 C   0  0  0  0  0  0  0  0  0  0  0  0
    7.1884   48.9288  135.0640 C   0  0  0  0  0  0  0  0  0  0  0  0
    7.9700   49.7623  136.0837 C   0  0  0  0  0  0  0  0  0  0  0  0
    9.2854   53.0139  134.8943 C   0  0  0  0  0  0  0  0  0  0  0  0
    8.6230   53.6421  136.0726 C   0  0  0  0  0  0  0  0  0  0  0  0
    9.0803   54.7312  136.7065 N   0  0  0  0  0  0  0  0  0  0  0  0
    8.2989   55.0191  137.6604 O   0  0  0  0  0  0  0  0  0  0  0  0
    7.2828   54.1402  137.7118 C   0  0  0  0  0  0  0  0  0  0  0  0
    6.2256   54.2360  138.7205 C   0  0  0  0  0  0  0  0  0  0  0  0
    7.4377   53.2337  136.7181 C   0  0  0  0  0  0  0  0  0  0  0  0
 27 28  1  0  0  0
 28 29  2  0  0  0
 29 30  1  0  0  0
 30 31  1  0  0  0
 31 32  1  0  0  0
 31 33  2  0  0  0
 33 21  1  0  0  0
 21 22  2  0  0  0
 21 23  1  0  0  0
 23 24  1  0  0  0
 24 25  1  0  0  0
 25 19  1  0  0  0
 19  1  1  0  0  0
  1  2  2  0  0  0
  2  3  1  0  0  0
  3  4  2  0  0  0
  4  5  1  0  0  0
  5  7  1  0  0  0
  7  8  1  0  0  0
  8  9  1  0  0  0
  9 10  1  0  0  0
 10 11  2  0  0  0
 11 12  1  0  0  0
 12 13  1  0  0  0
 12 14  2  0  0  0
 14 15  1  0  0  0
 15 16  2  0  0  0
 16 17  1  0  0  0
 17 18  2  0  0  0
  5  6  2  0  0  0
 25 26  1  0  0  0
 33 28  1  0  0  0
 26 23  1  0  0  0
  6  1  1  0  0  0
 17  7  1  0  0  0
 16 10  1  0  0  0
 19 20  1  0  0  0
M  END
> <minimizedAffinity>
51.06683

> <CNNscore>
0.2264751345

> <CNNaffinity>
6.7318315506

> <CNN_VS>
1.5245923996

> <CNNaffinity_variance>
0.7443197966

$$$$
[H]c1nc([H])c(N([H])C2([H])C([H])([H])N(C(=O)c3c(C([H])([H])[H])noc3C([H])([H])[H])C2([H])[H])c([H])c1N1C(=O)c2c([H])c([H])c(Cl)c([H])c2C([H])([H])C1([H])[H]


 33 37  0  0  0  0  0  0  0  0999 V2000
    7.5082   49.3022  130.7428 C   0  0  0  0  0  0  0  0  0  0  0  0
    6.5144   49.4816  129.7692 C   0  0  0  0  0  0  0  0  0  0  0  0
    6.1294   48.4495  129.0036 N   0  0  0  0  0  0  0  0  0  0  0  0
    6.6785   47.2177  129.1422 C   0  0  0  0  0  0  0  0  0  0  0  0
    7.6615   46.9656  130.0791 C   0  0  0  0  0  0  0  0  0  0  0  0
    8.0558   48.0461  130.8713 C   0  0  0  0  0  0  0  0  0  0  0  0
    8.2328   45.6777  130.2400 N   0  0  0  0  0  0  0  0  0  0  0  0
    7.9483   44.9651  131.4661 C   0  0  0  0  0  0  0  0  0  0  0  0
    7.8345   43.4904  131.2783 C   0  0  0  0  0  0  0  0  0  0  0  0
    8.6519   42.9657  130.1668 C   0  0  0  0  0  0  0  0  0  0  0  0
    8.8310   41.5841  130.1415 C   0  0  0  0  0  0  0  0  0  0  0  0
    9.5944   40.9826  129.1354 C   0  0  0  0  0  0  0  0  0  0  0  0
    9.8265   39.2443  129.0892 Cl  0  0  0  0  0  0  0  0  0  0  0  0
   10.1937   41.7374  128.1378 C   0  0  0  0  0  0  0  0  0  0  0  0
    9.9928   43.1112  128.1960 C   0  0  0  0  0  0  0  0  0  0  0  0
    9.2398   43.6974  129.1883 C   0  0  0  0  0  0  0  0  0  0  0  0
    9.0421   45.1479  129.1915 C   0  0  0  0  0  0  0  0  0  0  0  0
    9.5682   45.8592  128.3071 O   0  0  0  0  0  0  0  0  0  0  0  0
    7.8809   50.4100  131.5347 N   0  0  0  0  0  0  0  0  0  0  0  0
    7.1225   50.9729  131.9903 H   0  0  0  0  0  0  0  0  0  0  0  0
   10.4854   47.5578  132.2918 C   0  0  0  0  0  0  0  0  0  0  0  0
   10.7281   47.0720  131.0704 O   0  0  0  0  0  0  0  0  0  0  0  0
   10.2275   48.9326  132.2294 N   0  0  0  0  0  0  0  0  0  0  0  0
   10.2314   49.8125  131.0078 C   0  0  0  0  0  0  0  0  0  0  0  0
    9.2852   50.7374  131.6980 C   0  0  0  0  0  0  0  0  0  0  0  0
    9.8934   50.0984  132.9498 C   0  0  0  0  0  0  0  0  0  0  0  0
    8.4410   47.4975  134.6160 C   0  0  0  0  0  0  0  0  0  0  0  0
    9.6020   46.5870  134.4043 C   0  0  0  0  0  0  0  0  0  0  0  0
    9.9268   45.5729  135.2187 N   0  0  0  0  0  0  0  0  0  0  0  0
   10.9561   44.9883  134.7690 O   0  0  0  0  0  0  0  0  0  0  0  0
   11.3696   45.5798  133.6346 C   0  0  0  0  0  0  0  0  0  0  0  0
   12.5422   45.1060  132.8966 C   0  0  0  0  0  0  0  0  0  0  0  0
   10.5399   46.6117  133.3517 C   0  0  0  0  0  0  0  0  0  0  0  0
 27 28  1  0  0  0
 28 29  2  0  0  0
 29 30  1  0  0  0
 30 31  1  0  0  0
 31 32  1  0  0  0
 31 33  2  0  0  0
 33 21  1  0  0  0
 21 22  2  0  0  0
 21 23  1  0  0  0
 23 24  1  0  0  0
 24 25  1  0  0  0
 25 19  1  0  0  0
 19  1  1  0  0  0
  1  2  2  0  0  0
  2  3  1  0  0  0
  3  4  2  0  0  0
  4  5  1  0  0  0
  5  7  1  0  0  0
  7  8  1  0  0  0
  8  9  1  0  0  0
  9 10  1  0  0  0
 10 11  2  0  0  0
 11 12  1  0  0  0
 12 13  1  0  0  0
 12 14  2  0  0  0
 14 15  1  0  0  0
 15 16  2  0  0  0
 16 17  1  0  0  0
 17 18  2  0  0  0
  5  6  2  0  0  0
 25 26  1  0  0  0
 33 28  1  0  0  0
 26 23  1  0  0  0
  6  1  1  0  0  0
 17  7  1  0  0  0
 16 10  1  0  0  0
 19 20  1  0  0  0
M  END
> <minimizedAffinity>
4.67005

> <CNNscore>
0.2016738206

> <CNNaffinity>
7.3794722557

> <CNN_VS>
1.4882463217

> <CNNaffinity_variance>
0.0398441516

$$$$
[H]c1nc([H])c(N([H])C2([H])C([H])([H])N(C(=O)c3c(C([H])([H])[H])noc3C([H])([H])[H])C2([H])[H])c([H])c1N1C(=O)c2c([H])c([H])c(Cl)c([H])c2C([H])([H])C1([H])[H]


 33 37  0  0  0  0  0  0  0  0999 V2000
    8.9640   49.7124  130.4833 C   0  0  0  0  0  0  0  0  0  0  0  0
    7.9890   50.3261  129.6831 C   0  0  0  0  0  0  0  0  0  0  0  0
    7.3441   49.6156  128.7456 N   0  0  0  0  0  0  0  0  0  0  0  0
    7.6083   48.3014  128.5425 C   0  0  0  0  0  0  0  0  0  0  0  0
    8.5547   47.6300  129.2918 C   0  0  0  0  0  0  0  0  0  0  0  0
    9.2207   48.3780  130.2651 C   0  0  0  0  0  0  0  0  0  0  0  0
    8.8288   46.2527  129.0952 N   0  0  0  0  0  0  0  0  0  0  0  0
    9.8698   45.9027  128.1539 C   0  0  0  0  0  0  0  0  0  0  0  0
   10.6404   44.6896  128.5510 C   0  0  0  0  0  0  0  0  0  0  0  0
    9.8603   43.7210  129.3461 C   0  0  0  0  0  0  0  0  0  0  0  0
   10.4170   42.4502  129.4753 C   0  0  0  0  0  0  0  0  0  0  0  0
    9.7573   41.4536  130.2022 C   0  0  0  0  0  0  0  0  0  0  0  0
   10.4469   39.8499  130.3756 Cl  0  0  0  0  0  0  0  0  0  0  0  0
    8.5359   41.6970  130.8131 C   0  0  0  0  0  0  0  0  0  0  0  0
    8.0124   42.9755  130.6624 C   0  0  0  0  0  0  0  0  0  0  0  0
    8.6667   43.9525  129.9463 C   0  0  0  0  0  0  0  0  0  0  0  0
    8.0811   45.2896  129.8357 C   0  0  0  0  0  0  0  0  0  0  0  0
    6.9808   45.5439  130.3740 O   0  0  0  0  0  0  0  0  0  0  0  0
    9.6152   50.4907  131.4649 N   0  0  0  0  0  0  0  0  0  0  0  0
   10.3664   51.1539  131.1556 H   0  0  0  0  0  0  0  0  0  0  0  0
   10.7377   47.3214  133.5111 C   0  0  0  0  0  0  0  0  0  0  0  0
   11.9825   47.6496  133.8708 O   0  0  0  0  0  0  0  0  0  0  0  0
    9.9277   48.4621  133.4545 N   0  0  0  0  0  0  0  0  0  0  0  0
   10.3194   49.8821  133.7656 C   0  0  0  0  0  0  0  0  0  0  0  0
    9.2336   50.3570  132.8585 C   0  0  0  0  0  0  0  0  0  0  0  0
    8.6454   48.9788  133.1746 C   0  0  0  0  0  0  0  0  0  0  0  0
    8.2488   45.8074  134.5591 C   0  0  0  0  0  0  0  0  0  0  0  0
    9.3723   45.2562  133.7493 C   0  0  0  0  0  0  0  0  0  0  0  0
    9.4572   43.9822  133.3412 N   0  0  0  0  0  0  0  0  0  0  0  0
   10.5217   43.8268  132.6732 O   0  0  0  0  0  0  0  0  0  0  0  0
   11.1997   44.9857  132.6009 C   0  0  0  0  0  0  0  0  0  0  0  0
   12.4715   45.0959  131.8836 C   0  0  0  0  0  0  0  0  0  0  0  0
   10.5111   45.9381  133.2731 C   0  0  0  0  0  0  0  0  0  0  0  0
 27 28  1  0  0  0
 28 29  2  0  0  0
 29 30  1  0  0  0
 30 31  1  0  0  0
 31 32  1  0  0  0
 31 33  2  0  0  0
 33 21  1  0  0  0
 21 22  2  0  0  0
 21 23  1  0  0  0
 23 24  1  0  0  0
 24 25  1  0  0  0
 25 19  1  0  0  0
 19  1  1  0  0  0
  1  2  2  0  0  0
  2  3  1  0  0  0
  3  4  2  0  0  0
  4  5  1  0  0  0
  5  7  1  0  0  0
  7  8  1  0  0  0
  8  9  1  0  0  0
  9 10  1  0  0  0
 10 11  2  0  0  0
 11 12  1  0  0  0
 12 13  1  0  0  0
 12 14  2  0  0  0
 14 15  1  0  0  0
 15 16  2  0  0  0
 16 17  1  0  0  0
 17 18  2  0  0  0
  5  6  2  0  0  0
 25 26  1  0  0  0
 33 28  1  0  0  0
 26 23  1  0  0  0
  6  1  1  0  0  0
 17  7  1  0  0  0
 16 10  1  0  0  0
 19 20  1  0  0  0
M  END
> <minimizedAffinity>
2.20479

> <CNNscore>
0.1880685091

> <CNNaffinity>
7.4167203903

> <CNN_VS>
1.3948515654

> <CNNaffinity_variance>
0.1153832078

$$$$
[H]c1nc([H])c(N([H])C2([H])C([H])([H])N(C(=O)c3c(C([H])([H])[H])noc3C([H])([H])[H])C2([H])[H])c([H])c1N1C(=O)c2c([H])c([H])c(Cl)c([H])c2C([H])([H])C1([H])[H]


 33 37  0  0  0  0  0  0  0  0999 V2000
    6.4349   48.0547  130.3992 C   0  0  0  0  0  0  0  0  0  0  0  0
    5.5620   47.3535  129.5542 C   0  0  0  0  0  0  0  0  0  0  0  0
    5.5856   46.0124  129.5268 N   0  0  0  0  0  0  0  0  0  0  0  0
    6.4399   45.3004  130.3022 C   0  0  0  0  0  0  0  0  0  0  0  0
    7.3277   45.9215  131.1586 C   0  0  0  0  0  0  0  0  0  0  0  0
    7.2959   47.3176  131.1801 C   0  0  0  0  0  0  0  0  0  0  0  0
    8.2161   45.1850  131.9826 N   0  0  0  0  0  0  0  0  0  0  0  0
    8.2771   43.7525  131.7923 C   0  0  0  0  0  0  0  0  0  0  0  0
    9.6398   43.1865  132.0066 C   0  0  0  0  0  0  0  0  0  0  0  0
   10.4554   43.9452  132.9751 C   0  0  0  0  0  0  0  0  0  0  0  0
   11.5974   43.3011  133.4465 C   0  0  0  0  0  0  0  0  0  0  0  0
   12.4376   43.9272  134.3733 C   0  0  0  0  0  0  0  0  0  0  0  0
   13.8803   43.1298  134.9738 Cl  0  0  0  0  0  0  0  0  0  0  0  0
   12.1622   45.2005  134.8496 C   0  0  0  0  0  0  0  0  0  0  0  0
   11.0151   45.8110  134.3567 C   0  0  0  0  0  0  0  0  0  0  0  0
   10.1924   45.1899  133.4442 C   0  0  0  0  0  0  0  0  0  0  0  0
    9.0068   45.8858  132.9410 C   0  0  0  0  0  0  0  0  0  0  0  0
    8.7281   47.0351  133.3492 O   0  0  0  0  0  0  0  0  0  0  0  0
    6.3749   49.4652  130.4065 N   0  0  0  0  0  0  0  0  0  0  0  0
    5.4313   49.9224  130.4175 H   0  0  0  0  0  0  0  0  0  0  0  0
    9.7068   47.8396  129.0849 C   0  0  0  0  0  0  0  0  0  0  0  0
    9.5870   47.9962  127.7628 O   0  0  0  0  0  0  0  0  0  0  0  0
    9.1031   48.9067  129.7610 N   0  0  0  0  0  0  0  0  0  0  0  0
    8.4222   50.1069  129.1590 C   0  0  0  0  0  0  0  0  0  0  0  0
    7.6035   50.2373  130.3999 C   0  0  0  0  0  0  0  0  0  0  0  0
    8.7795   49.4712  131.0125 C   0  0  0  0  0  0  0  0  0  0  0  0
   11.5480   47.7585  131.5726 C   0  0  0  0  0  0  0  0  0  0  0  0
   11.2288   46.6382  130.6426 C   0  0  0  0  0  0  0  0  0  0  0  0
   11.7072   45.3921  130.7665 N   0  0  0  0  0  0  0  0  0  0  0  0
   11.2521   44.6740  129.8280 O   0  0  0  0  0  0  0  0  0  0  0  0
   10.4486   45.4014  129.0324 C   0  0  0  0  0  0  0  0  0  0  0  0
    9.7822   44.8206  127.8650 C   0  0  0  0  0  0  0  0  0  0  0  0
   10.3958   46.6690  129.5052 C   0  0  0  0  0  0  0  0  0  0  0  0
 27 28  1  0  0  0
 28 29  2  0  0  0
 29 30  1  0  0  0
 30 31  1  0  0  0
 31 32  1  0  0  0
 31 33  2  0  0  0
 33 21  1  0  0  0
 21 22  2  0  0  0
 21 23  1  0  0  0
 23 24  1  0  0  0
 24 25  1  0  0  0
 25 19  1  0  0  0
 19  1  1  0  0  0
  1  2  2  0  0  0
  2  3  1  0  0  0
  3  4  2  0  0  0
  4  5  1  0  0  0
  5  7  1  0  0  0
  7  8  1  0  0  0
  8  9  1  0  0  0
  9 10  1  0  0  0
 10 11  2  0  0  0
 11 12  1  0  0  0
 12 13  1  0  0  0
 12 14  2  0  0  0
 14 15  1  0  0  0
 15 16  2  0  0  0
 16 17  1  0  0  0
 17 18  2  0  0  0
  5  6  2  0  0  0
 25 26  1  0  0  0
 33 28  1  0  0  0
 26 23  1  0  0  0
  6  1  1  0  0  0
 17  7  1  0  0  0
 16 10  1  0  0  0
 19 20  1  0  0  0
M  END
> <minimizedAffinity>
10.14045

> <CNNscore>
0.1792977303

> <CNNaffinity>
7.1035180092

> <CNN_VS>
1.2736446857

> <CNNaffinity_variance>
0.3303832114

$$$$
[H]c1nc([H])c(N([H])C2([H])C([H])([H])N(C(=O)c3c(C([H])([H])[H])noc3C([H])([H])[H])C2([H])[H])c([H])c1N1C(=O)c2c([H])c([H])c(Cl)c([H])c2C([H])([H])C1([H])[H]


 33 37  0  0  0  0  0  0  0  0999 V2000
    7.6174   49.0951  129.4942 C   0  0  0  0  0  0  0  0  0  0  0  0
    7.6079   50.4937  129.6016 C   0  0  0  0  0  0  0  0  0  0  0  0
    8.1728   51.0904  130.6620 N   0  0  0  0  0  0  0  0  0  0  0  0
    8.7628   50.3739  131.6503 C   0  0  0  0  0  0  0  0  0  0  0  0
    8.8110   48.9941  131.6130 C   0  0  0  0  0  0  0  0  0  0  0  0
    8.2202   48.3820  130.5054 C   0  0  0  0  0  0  0  0  0  0  0  0
    9.4369   48.2368  132.6356 N   0  0  0  0  0  0  0  0  0  0  0  0
    8.9205   48.3680  133.9803 C   0  0  0  0  0  0  0  0  0  0  0  0
    8.9895   47.1020  134.7646 C   0  0  0  0  0  0  0  0  0  0  0  0
   10.1018   46.2154  134.3700 C   0  0  0  0  0  0  0  0  0  0  0  0
   10.4044   45.1852  135.2579 C   0  0  0  0  0  0  0  0  0  0  0  0
   11.4451   44.2913  134.9847 C   0  0  0  0  0  0  0  0  0  0  0  0
   11.8360   42.9878  136.0919 Cl  0  0  0  0  0  0  0  0  0  0  0  0
   12.2044   44.4018  133.8290 C   0  0  0  0  0  0  0  0  0  0  0  0
   11.8732   45.4410  132.9679 C   0  0  0  0  0  0  0  0  0  0  0  0
   10.8473   46.3172  133.2419 C   0  0  0  0  0  0  0  0  0  0  0  0
   10.5261   47.3827  132.2907 C   0  0  0  0  0  0  0  0  0  0  0  0
   11.1904   47.5116  131.2385 O   0  0  0  0  0  0  0  0  0  0  0  0
    7.0202   48.5040  128.3597 N   0  0  0  0  0  0  0  0  0  0  0  0
    7.3060   48.8484  127.4114 H   0  0  0  0  0  0  0  0  0  0  0  0
    7.8168   45.4504  130.7118 C   0  0  0  0  0  0  0  0  0  0  0  0
    7.5153   45.9424  131.9175 O   0  0  0  0  0  0  0  0  0  0  0  0
    6.9764   45.9985  129.7352 N   0  0  0  0  0  0  0  0  0  0  0  0
    5.8551   46.9827  129.9369 C   0  0  0  0  0  0  0  0  0  0  0  0
    6.0400   47.4478  128.5310 C   0  0  0  0  0  0  0  0  0  0  0  0
    6.6481   46.0522  128.3645 C   0  0  0  0  0  0  0  0  0  0  0  0
   10.1312   45.5843  128.6597 C   0  0  0  0  0  0  0  0  0  0  0  0
    9.9379   44.5820  129.7459 C   0  0  0  0  0  0  0  0  0  0  0  0
   10.7771   43.5674  129.9975 N   0  0  0  0  0  0  0  0  0  0  0  0
   10.3412   42.8976  130.9798 O   0  0  0  0  0  0  0  0  0  0  0  0
    9.1925   43.4294  131.4332 C   0  0  0  0  0  0  0  0  0  0  0  0
    8.4677   42.8549  132.5685 C   0  0  0  0  0  0  0  0  0  0  0  0
    8.8842   44.5116  130.6803 C   0  0  0  0  0  0  0  0  0  0  0  0
 27 28  1  0  0  0
 28 29  2  0  0  0
 29 30  1  0  0  0
 30 31  1  0  0  0
 31 32  1  0  0  0
 31 33  2  0  0  0
 33 21  1  0  0  0
 21 22  2  0  0  0
 21 23  1  0  0  0
 23 24  1  0  0  0
 24 25  1  0  0  0
 25 19  1  0  0  0
 19  1  1  0  0  0
  1  2  2  0  0  0
  2  3  1  0  0  0
  3  4  2  0  0  0
  4  5  1  0  0  0
  5  7  1  0  0  0
  7  8  1  0  0  0
  8  9  1  0  0  0
  9 10  1  0  0  0
 10 11  2  0  0  0
 11 12  1  0  0  0
 12 13  1  0  0  0
 12 14  2  0  0  0
 14 15  1  0  0  0
 15 16  2  0  0  0
 16 17  1  0  0  0
 17 18  2  0  0  0
  5  6  2  0  0  0
 25 26  1  0  0  0
 33 28  1  0  0  0
 26 23  1  0  0  0
  6  1  1  0  0  0
 17  7  1  0  0  0
 16 10  1  0  0  0
 19 20  1  0  0  0
M  END
> <minimizedAffinity>
-2.51586

> <CNNscore>
0.1666703522

> <CNNaffinity>
7.4178986549

> <CNN_VS>
1.2363437414

> <CNNaffinity_variance>
0.4439874589

$$$$
[H]c1c([H])c([H])c2c(nc(SC([H])([H])C(=O)N3C(=O)C([H])([H])C([H])([H])C3([H])[H])n2C([H])([H])[H])c1[H]


 20 22  0  0  0  0  0  0  0  0999 V2000
   10.0430   49.4160  132.9431 C   0  0  0  0  0  0  0  0  0  0  0  0
    9.3328   48.3688  132.2039 N   0  0  0  0  0  0  0  0  0  0  0  0
    9.3204   47.0541  132.3733 C   0  0  0  0  0  0  0  0  0  0  0  0
    8.4586   46.5317  131.4524 N   0  0  0  0  0  0  0  0  0  0  0  0
    7.9281   47.5136  130.7009 C   0  0  0  0  0  0  0  0  0  0  0  0
    7.0233   47.5059  129.6549 C   0  0  0  0  0  0  0  0  0  0  0  0
    6.6608   48.6907  129.0668 C   0  0  0  0  0  0  0  0  0  0  0  0
    7.2176   49.8724  129.5427 C   0  0  0  0  0  0  0  0  0  0  0  0
    8.1127   49.8766  130.5780 C   0  0  0  0  0  0  0  0  0  0  0  0
    8.4861   48.6773  131.1810 C   0  0  0  0  0  0  0  0  0  0  0  0
   10.2299   46.0668  133.4903 S   0  0  0  0  0  0  0  0  0  0  0  0
   10.7698   44.4789  132.9494 C   0  0  0  0  0  0  0  0  0  0  0  0
    9.9199   43.6763  132.0949 C   0  0  0  0  0  0  0  0  0  0  0  0
    9.0314   42.9174  132.4798 O   0  0  0  0  0  0  0  0  0  0  0  0
   10.1457   43.7851  130.6712 N   0  0  0  0  0  0  0  0  0  0  0  0
   11.1319   44.6204  130.0454 C   0  0  0  0  0  0  0  0  0  0  0  0
   10.6893   44.7148  128.5807 C   0  0  0  0  0  0  0  0  0  0  0  0
   10.0834   43.3570  128.3476 C   0  0  0  0  0  0  0  0  0  0  0  0
    9.4273   43.0849  129.6494 C   0  0  0  0  0  0  0  0  0  0  0  0
    8.4157   42.3736  129.8770 O   0  0  0  0  0  0  0  0  0  0  0  0
  1  2  1  0  0  0
  2  3  1  0  0  0
  3 11  1  0  0  0
 11 12  1  0  0  0
 12 13  1  0  0  0
 13 14  2  0  0  0
 13 15  1  0  0  0
 15 16  1  0  0  0
 16 17  1  0  0  0
 17 18  1  0  0  0
 18 19  1  0  0  0
 19 20  2  0  0  0
  3  4  2  0  0  0
  4  5  1  0  0  0
  5  6  2  0  0  0
  6  7  1  0  0  0
  7  8  2  0  0  0
  8  9  1  0  0  0
  9 10  2  0  0  0
 10  2  1  0  0  0
 19 15  1  0  0  0
 10  5  1  0  0  0
M  END
> <minimizedAffinity>
-8.59369

> <CNNscore>
0.6043655276

> <CNNaffinity>
7.0539422035

> <CNN_VS>
4.2631592751

> <CNNaffinity_variance>
0.1591627002

$$$$
[H]c1c([H])c([H])c2c(nc(SC([H])([H])C(=O)N3C(=O)C([H])([H])C([H])([H])C3([H])[H])n2C([H])([H])[H])c1[H]


 20 22  0  0  0  0  0  0  0  0999 V2000
   10.5383   46.5908  130.8491 C   0  0  0  0  0  0  0  0  0  0  0  0
    9.1693   46.6565  130.3304 N   0  0  0  0  0  0  0  0  0  0  0  0
    8.3370   45.6880  129.9746 C   0  0  0  0  0  0  0  0  0  0  0  0
    7.1613   46.2751  129.6047 N   0  0  0  0  0  0  0  0  0  0  0  0
    7.2502   47.6123  129.7247 C   0  0  0  0  0  0  0  0  0  0  0  0
    6.3523   48.6351  129.4788 C   0  0  0  0  0  0  0  0  0  0  0  0
    6.7329   49.9346  129.6965 C   0  0  0  0  0  0  0  0  0  0  0  0
    8.0187   50.1870  130.1609 C   0  0  0  0  0  0  0  0  0  0  0  0
    8.9049   49.1725  130.4034 C   0  0  0  0  0  0  0  0  0  0  0  0
    8.5260   47.8495  130.1849 C   0  0  0  0  0  0  0  0  0  0  0  0
    8.6017   43.9634  129.9014 S   0  0  0  0  0  0  0  0  0  0  0  0
    8.7645   43.0805  131.4178 C   0  0  0  0  0  0  0  0  0  0  0  0
    9.8383   43.4044  132.3336 C   0  0  0  0  0  0  0  0  0  0  0  0
   10.9446   42.8666  132.3574 O   0  0  0  0  0  0  0  0  0  0  0  0
    9.5746   44.4496  133.2968 N   0  0  0  0  0  0  0  0  0  0  0  0
    8.3474   45.1862  133.4120 C   0  0  0  0  0  0  0  0  0  0  0  0
    8.7117   46.4223  134.2424 C   0  0  0  0  0  0  0  0  0  0  0  0
    9.7644   45.8782  135.1702 C   0  0  0  0  0  0  0  0  0  0  0  0
   10.4872   44.9267  134.2918 C   0  0  0  0  0  0  0  0  0  0  0  0
   11.6895   44.5648  134.3599 O   0  0  0  0  0  0  0  0  0  0  0  0
  1  2  1  0  0  0
  2  3  1  0  0  0
  3 11  1  0  0  0
 11 12  1  0  0  0
 12 13  1  0  0  0
 13 14  2  0  0  0
 13 15  1  0  0  0
 15 16  1  0  0  0
 16 17  1  0  0  0
 17 18  1  0  0  0
 18 19  1  0  0  0
 19 20  2  0  0  0
  3  4  2  0  0  0
  4  5  1  0  0  0
  5  6  2  0  0  0
  6  7  1  0  0  0
  7  8  2  0  0  0
  8  9  1  0  0  0
  9 10  2  0  0  0
 10  2  1  0  0  0
 19 15  1  0  0  0
 10  5  1  0  0  0
M  END
> <minimizedAffinity>
-7.73671

> <CNNscore>
0.5296263695

> <CNNaffinity>
6.9480895996

> <CNN_VS>
3.6798915863

> <CNNaffinity_variance>
0.0103362752

$$$$
[H]c1c([H])c([H])c2c(nc(SC([H])([H])C(=O)N3C(=O)C([H])([H])C([H])([H])C3([H])[H])n2C([H])([H])[H])c1[H]


 20 22  0  0  0  0  0  0  0  0999 V2000
    8.5192   46.0532  134.2624 C   0  0  0  0  0  0  0  0  0  0  0  0
    9.5599   45.9298  133.2382 N   0  0  0  0  0  0  0  0  0  0  0  0
   10.2281   46.8626  132.5743 C   0  0  0  0  0  0  0  0  0  0  0  0
   11.1250   46.2255  131.7661 N   0  0  0  0  0  0  0  0  0  0  0  0
   11.0235   44.8924  131.9171 C   0  0  0  0  0  0  0  0  0  0  0  0
   11.6937   43.8314  131.3358 C   0  0  0  0  0  0  0  0  0  0  0  0
   11.3665   42.5485  131.6933 C   0  0  0  0  0  0  0  0  0  0  0  0
   10.3638   42.3510  132.6358 C   0  0  0  0  0  0  0  0  0  0  0  0
    9.7024   43.4031  133.2094 C   0  0  0  0  0  0  0  0  0  0  0  0
   10.0289   44.7096  132.8517 C   0  0  0  0  0  0  0  0  0  0  0  0
   10.0448   48.5990  132.6064 S   0  0  0  0  0  0  0  0  0  0  0  0
    9.7925   49.4384  131.0776 C   0  0  0  0  0  0  0  0  0  0  0  0
    8.4556   49.8171  130.6703 C   0  0  0  0  0  0  0  0  0  0  0  0
    7.9593   50.9357  130.7972 O   0  0  0  0  0  0  0  0  0  0  0  0
    7.6460   48.7835  130.0654 N   0  0  0  0  0  0  0  0  0  0  0  0
    8.0606   47.4281  129.8353 C   0  0  0  0  0  0  0  0  0  0  0  0
    7.0559   46.8818  128.8143 C   0  0  0  0  0  0  0  0  0  0  0  0
    5.7912   47.5989  129.2034 C   0  0  0  0  0  0  0  0  0  0  0  0
    6.3025   48.9352  129.5937 C   0  0  0  0  0  0  0  0  0  0  0  0
    5.7073   50.0415  129.5411 O   0  0  0  0  0  0  0  0  0  0  0  0
  1  2  1  0  0  0
  2  3  1  0  0  0
  3 11  1  0  0  0
 11 12  1  0  0  0
 12 13  1  0  0  0
 13 14  2  0  0  0
 13 15  1  0  0  0
 15 16  1  0  0  0
 16 17  1  0  0  0
 17 18  1  0  0  0
 18 19  1  0  0  0
 19 20  2  0  0  0
  3  4  2  0  0  0
  4  5  1  0  0  0
  5  6  2  0  0  0
  6  7  1  0  0  0
  7  8  2  0  0  0
  8  9  1  0  0  0
  9 10  2  0  0  0
 10  2  1  0  0  0
 19 15  1  0  0  0
 10  5  1  0  0  0
M  END
> <minimizedAffinity>
-6.83380

> <CNNscore>
0.4954897761

> <CNNaffinity>
6.9435448647

> <CNN_VS>
3.4404554367

> <CNNaffinity_variance>
0.2175166160

$$$$
[H]c1c([H])c([H])c2c(nc(SC([H])([H])C(=O)N3C(=O)C([H])([H])C([H])([H])C3([H])[H])n2C([H])([H])[H])c1[H]


 20 22  0  0  0  0  0  0  0  0999 V2000
   10.0045   47.7673  133.2685 C   0  0  0  0  0  0  0  0  0  0  0  0
    9.0526   47.2127  132.3022 N   0  0  0  0  0  0  0  0  0  0  0  0
    8.4972   46.0109  132.2349 C   0  0  0  0  0  0  0  0  0  0  0  0
    7.6414   46.0153  131.1713 N   0  0  0  0  0  0  0  0  0  0  0  0
    7.6566   47.2169  130.5660 C   0  0  0  0  0  0  0  0  0  0  0  0
    6.9832   47.7193  129.4673 C   0  0  0  0  0  0  0  0  0  0  0  0
    7.2075   49.0131  129.0714 C   0  0  0  0  0  0  0  0  0  0  0  0
    8.1112   49.7864  129.7910 C   0  0  0  0  0  0  0  0  0  0  0  0
    8.7759   49.2863  130.8778 C   0  0  0  0  0  0  0  0  0  0  0  0
    8.5537   47.9730  131.2866 C   0  0  0  0  0  0  0  0  0  0  0  0
    8.7712   44.6005  133.2276 S   0  0  0  0  0  0  0  0  0  0  0  0
    9.9719   43.4264  132.6935 C   0  0  0  0  0  0  0  0  0  0  0  0
   11.0891   43.8522  131.8767 C   0  0  0  0  0  0  0  0  0  0  0  0
   12.2055   44.1563  132.2947 O   0  0  0  0  0  0  0  0  0  0  0  0
   10.8593   43.9221  130.4512 N   0  0  0  0  0  0  0  0  0  0  0  0
    9.6260   43.6015  129.7894 C   0  0  0  0  0  0  0  0  0  0  0  0
   10.0117   43.4115  128.3179 C   0  0  0  0  0  0  0  0  0  0  0  0
   11.1261   44.4098  128.1540 C   0  0  0  0  0  0  0  0  0  0  0  0
   11.8170   44.3179  129.4630 C   0  0  0  0  0  0  0  0  0  0  0  0
   13.0282   44.5363  129.7203 O   0  0  0  0  0  0  0  0  0  0  0  0
  1  2  1  0  0  0
  2  3  1  0  0  0
  3 11  1  0  0  0
 11 12  1  0  0  0
 12 13  1  0  0  0
 13 14  2  0  0  0
 13 15  1  0  0  0
 15 16  1  0  0  0
 16 17  1  0  0  0
 17 18  1  0  0  0
 18 19  1  0  0  0
 19 20  2  0  0  0
  3  4  2  0  0  0
  4  5  1  0  0  0
  5  6  2  0  0  0
  6  7  1  0  0  0
  7  8  2  0  0  0
  8  9  1  0  0  0
  9 10  2  0  0  0
 10  2  1  0  0  0
 19 15  1  0  0  0
 10  5  1  0  0  0
M  END
> <minimizedAffinity>
-8.19563

> <CNNscore>
0.4766408503

> <CNNaffinity>
6.8724923134

> <CNN_VS>
3.2757105827

> <CNNaffinity_variance>
0.0972335711

$$$$
[H]c1c([H])c([H])c2c(nc(SC([H])([H])C(=O)N3C(=O)C([H])([H])C([H])([H])C3([H])[H])n2C([H])([H])[H])c1[H]


 20 22  0  0  0  0  0  0  0  0999 V2000
    6.7364   41.3367  133.3850 C   0  0  0  0  0  0  0  0  0  0  0  0
    7.7607   42.3437  133.0951 N   0  0  0  0  0  0  0  0  0  0  0  0
    7.8275   43.2492  132.1292 C   0  0  0  0  0  0  0  0  0  0  0  0
    8.9634   43.9789  132.3311 N   0  0  0  0  0  0  0  0  0  0  0  0
    9.6148   43.5349  133.4215 C   0  0  0  0  0  0  0  0  0  0  0  0
   10.7901   43.9299  134.0344 C   0  0  0  0  0  0  0  0  0  0  0  0
   11.2180   43.2741  135.1603 C   0  0  0  0  0  0  0  0  0  0  0  0
   10.4527   42.2245  135.6555 C   0  0  0  0  0  0  0  0  0  0  0  0
    9.2901   41.8360  135.0467 C   0  0  0  0  0  0  0  0  0  0  0  0
    8.8483   42.4972  133.9025 C   0  0  0  0  0  0  0  0  0  0  0  0
    6.7557   43.5151  130.7764 S   0  0  0  0  0  0  0  0  0  0  0  0
    7.0776   44.8847  129.7152 C   0  0  0  0  0  0  0  0  0  0  0  0
    6.6064   46.2061  130.0737 C   0  0  0  0  0  0  0  0  0  0  0  0
    5.6982   46.4507  130.8668 O   0  0  0  0  0  0  0  0  0  0  0  0
    7.2675   47.3237  129.4382 N   0  0  0  0  0  0  0  0  0  0  0  0
    8.3451   47.2271  128.4941 C   0  0  0  0  0  0  0  0  0  0  0  0
    8.9621   48.6301  128.4627 C   0  0  0  0  0  0  0  0  0  0  0  0
    7.7584   49.5075  128.6790 C   0  0  0  0  0  0  0  0  0  0  0  0
    6.9637   48.7080  129.6426 C   0  0  0  0  0  0  0  0  0  0  0  0
    6.1511   49.1184  130.5099 O   0  0  0  0  0  0  0  0  0  0  0  0
  1  2  1  0  0  0
  2  3  1  0  0  0
  3 11  1  0  0  0
 11 12  1  0  0  0
 12 13  1  0  0  0
 13 14  2  0  0  0
 13 15  1  0  0  0
 15 16  1  0  0  0
 16 17  1  0  0  0
 17 18  1  0  0  0
 18 19  1  0  0  0
 19 20  2  0  0  0
  3  4  2  0  0  0
  4  5  1  0  0  0
  5  6  2  0  0  0
  6  7  1  0  0  0
  7  8  2  0  0  0
  8  9  1  0  0  0
  9 10  2  0  0  0
 10  2  1  0  0  0
 19 15  1  0  0  0
 10  5  1  0  0  0
M  END
> <minimizedAffinity>
23.22196

> <CNNscore>
0.4547716677

> <CNNaffinity>
5.9321551323

> <CNN_VS>
2.6977760792

> <CNNaffinity_variance>
2.0585491657

$$$$
[H]c1c([H])c([H])c2c(nc(SC([H])([H])C(=O)N3C(=O)C([H])([H])C([H])([H])C3([H])[H])n2C([H])([H])[H])c1[H]


 20 22  0  0  0  0  0  0  0  0999 V2000
    6.3281   46.7371  129.0995 C   0  0  0  0  0  0  0  0  0  0  0  0
    7.6406   46.8310  129.7443 N   0  0  0  0  0  0  0  0  0  0  0  0
    8.5817   45.9134  129.9168 C   0  0  0  0  0  0  0  0  0  0  0  0
    9.6368   46.5213  130.5339 N   0  0  0  0  0  0  0  0  0  0  0  0
    9.3633   47.8203  130.7528 C   0  0  0  0  0  0  0  0  0  0  0  0
   10.0884   48.8435  131.3361 C   0  0  0  0  0  0  0  0  0  0  0  0
    9.5379   50.0965  131.4239 C   0  0  0  0  0  0  0  0  0  0  0  0
    8.2584   50.3025  130.9206 C   0  0  0  0  0  0  0  0  0  0  0  0
    7.5434   49.2879  130.3439 C   0  0  0  0  0  0  0  0  0  0  0  0
    8.0956   48.0120  130.2507 C   0  0  0  0  0  0  0  0  0  0  0  0
    8.5645   44.2127  129.5202 S   0  0  0  0  0  0  0  0  0  0  0  0
    8.9041   43.0545  130.8042 C   0  0  0  0  0  0  0  0  0  0  0  0
   10.1524   43.1268  131.5344 C   0  0  0  0  0  0  0  0  0  0  0  0
   11.2042   42.5782  131.2086 O   0  0  0  0  0  0  0  0  0  0  0  0
   10.1482   43.9131  132.7475 N   0  0  0  0  0  0  0  0  0  0  0  0
    9.0177   44.6234  133.2761 C   0  0  0  0  0  0  0  0  0  0  0  0
    9.6160   45.6150  134.2806 C   0  0  0  0  0  0  0  0  0  0  0  0
   10.7878   44.8428  134.8243 C   0  0  0  0  0  0  0  0  0  0  0  0
   11.2641   44.1181  133.6212 C   0  0  0  0  0  0  0  0  0  0  0  0
   12.4302   43.7276  133.3591 O   0  0  0  0  0  0  0  0  0  0  0  0
  1  2  1  0  0  0
  2  3  1  0  0  0
  3 11  1  0  0  0
 11 12  1  0  0  0
 12 13  1  0  0  0
 13 14  2  0  0  0
 13 15  1  0  0  0
 15 16  1  0  0  0
 16 17  1  0  0  0
 17 18  1  0  0  0
 18 19  1  0  0  0
 19 20  2  0  0  0
  3  4  2  0  0  0
  4  5  1  0  0  0
  5  6  2  0  0  0
  6  7  1  0  0  0
  7  8  2  0  0  0
  8  9  1  0  0  0
  9 10  2  0  0  0
 10  2  1  0  0  0
 19 15  1  0  0  0
 10  5  1  0  0  0
M  END
> <minimizedAffinity>
-7.07749

> <CNNscore>
0.4529782236

> <CNNaffinity>
6.9692902565

> <CNN_VS>
3.1569366455

> <CNNaffinity_variance>
0.1033406407

$$$$
[H]c1c([H])c([H])c2c(nc(SC([H])([H])C(=O)N3C(=O)C([H])([H])C([H])([H])C3([H])[H])n2C([H])([H])[H])c1[H]


 20 22  0  0  0  0  0  0  0  0999 V2000
   11.6694   44.4932  129.5676 C   0  0  0  0  0  0  0  0  0  0  0  0
   10.7668   44.5139  130.7219 N   0  0  0  0  0  0  0  0  0  0  0  0
    9.4541   44.6882  130.7840 C   0  0  0  0  0  0  0  0  0  0  0  0
    9.0880   44.5703  132.0939 N   0  0  0  0  0  0  0  0  0  0  0  0
   10.1669   44.3236  132.8590 C   0  0  0  0  0  0  0  0  0  0  0  0
   10.3242   44.1288  134.2192 C   0  0  0  0  0  0  0  0  0  0  0  0
   11.5760   43.8926  134.7272 C   0  0  0  0  0  0  0  0  0  0  0  0
   12.6571   43.8557  133.8540 C   0  0  0  0  0  0  0  0  0  0  0  0
   12.4981   44.0488  132.5084 C   0  0  0  0  0  0  0  0  0  0  0  0
   11.2297   44.2892  131.9842 C   0  0  0  0  0  0  0  0  0  0  0  0
    8.3182   45.0565  129.5098 S   0  0  0  0  0  0  0  0  0  0  0  0
    6.9614   46.1169  129.8841 C   0  0  0  0  0  0  0  0  0  0  0  0
    7.0059   47.5131  129.5030 C   0  0  0  0  0  0  0  0  0  0  0  0
    6.3895   48.0186  128.5659 O   0  0  0  0  0  0  0  0  0  0  0  0
    7.8504   48.3749  130.2991 N   0  0  0  0  0  0  0  0  0  0  0  0
    8.6356   47.9605  131.4277 C   0  0  0  0  0  0  0  0  0  0  0  0
    8.9785   49.2617  132.1623 C   0  0  0  0  0  0  0  0  0  0  0  0
    9.1088   50.2392  131.0254 C   0  0  0  0  0  0  0  0  0  0  0  0
    8.0444   49.7797  130.1005 C   0  0  0  0  0  0  0  0  0  0  0  0
    7.3916   50.4584  129.2673 O   0  0  0  0  0  0  0  0  0  0  0  0
  1  2  1  0  0  0
  2  3  1  0  0  0
  3 11  1  0  0  0
 11 12  1  0  0  0
 12 13  1  0  0  0
 13 14  2  0  0  0
 13 15  1  0  0  0
 15 16  1  0  0  0
 16 17  1  0  0  0
 17 18  1  0  0  0
 18 19  1  0  0  0
 19 20  2  0  0  0
  3  4  2  0  0  0
  4  5  1  0  0  0
  5  6  2  0  0  0
  6  7  1  0  0  0
  7  8  2  0  0  0
  8  9  1  0  0  0
  9 10  2  0  0  0
 10  2  1  0  0  0
 19 15  1  0  0  0
 10  5  1  0  0  0
M  END
> <minimizedAffinity>
-6.59106

> <CNNscore>
0.4453165829

> <CNNaffinity>
6.9700255394

> <CNN_VS>
3.1038680077

> <CNNaffinity_variance>
0.6817262173

$$$$
[H]c1c([H])c([H])c2c(nc(SC([H])([H])C(=O)N3C(=O)C([H])([H])C([H])([H])C3([H])[H])n2C([H])([H])[H])c1[H]


 20 22  0  0  0  0  0  0  0  0999 V2000
    8.1481   45.2095  131.7298 C   0  0  0  0  0  0  0  0  0  0  0  0
    8.9268   46.4495  131.7878 N   0  0  0  0  0  0  0  0  0  0  0  0
   10.1049   46.7000  132.3416 C   0  0  0  0  0  0  0  0  0  0  0  0
   10.4139   48.0024  132.0730 N   0  0  0  0  0  0  0  0  0  0  0  0
    9.4326   48.5750  131.3521 C   0  0  0  0  0  0  0  0  0  0  0  0
    9.2699   49.8495  130.8402 C   0  0  0  0  0  0  0  0  0  0  0  0
    8.1369   50.1520  130.1291 C   0  0  0  0  0  0  0  0  0  0  0  0
    7.1789   49.1619  129.9428 C   0  0  0  0  0  0  0  0  0  0  0  0
    7.3429   47.9016  130.4507 C   0  0  0  0  0  0  0  0  0  0  0  0
    8.4912   47.5861  131.1741 C   0  0  0  0  0  0  0  0  0  0  0  0
   11.1293   45.6588  133.2987 S   0  0  0  0  0  0  0  0  0  0  0  0
   11.7475   44.1859  132.5546 C   0  0  0  0  0  0  0  0  0  0  0  0
   10.8791   43.3692  131.7327 C   0  0  0  0  0  0  0  0  0  0  0  0
   10.2096   42.4156  132.1279 O   0  0  0  0  0  0  0  0  0  0  0  0
   10.8019   43.7140  130.3309 N   0  0  0  0  0  0  0  0  0  0  0  0
   11.5071   44.7931  129.6983 C   0  0  0  0  0  0  0  0  0  0  0  0
   10.7768   45.0083  128.3678 C   0  0  0  0  0  0  0  0  0  0  0  0
   10.3512   43.6089  128.0132 C   0  0  0  0  0  0  0  0  0  0  0  0
   10.0124   43.0439  129.3419 C   0  0  0  0  0  0  0  0  0  0  0  0
    9.1857   42.1364  129.6134 O   0  0  0  0  0  0  0  0  0  0  0  0
  1  2  1  0  0  0
  2  3  1  0  0  0
  3 11  1  0  0  0
 11 12  1  0  0  0
 12 13  1  0  0  0
 13 14  2  0  0  0
 13 15  1  0  0  0
 15 16  1  0  0  0
 16 17  1  0  0  0
 17 18  1  0  0  0
 18 19  1  0  0  0
 19 20  2  0  0  0
  3  4  2  0  0  0
  4  5  1  0  0  0
  5  6  2  0  0  0
  6  7  1  0  0  0
  7  8  2  0  0  0
  8  9  1  0  0  0
  9 10  2  0  0  0
 10  2  1  0  0  0
 19 15  1  0  0  0
 10  5  1  0  0  0
M  END
> <minimizedAffinity>
-8.12031

> <CNNscore>
0.3686511517

> <CNNaffinity>
6.8152694702

> <CNN_VS>
2.5124568939

> <CNNaffinity_variance>
0.0278921165

$$$$
[H]c1c([H])c([H])c2c(nc(SC([H])([H])C(=O)N3C(=O)C([H])([H])C([H])([H])C3([H])[H])n2C([H])([H])[H])c1[H]


 20 22  0  0  0  0  0  0  0  0999 V2000
    9.8581   47.6519  133.3561 C   0  0  0  0  0  0  0  0  0  0  0  0
    8.9898   47.1330  132.2958 N   0  0  0  0  0  0  0  0  0  0  0  0
    8.4757   45.9238  132.1201 C   0  0  0  0  0  0  0  0  0  0  0  0
    7.6934   45.9710  131.0023 N   0  0  0  0  0  0  0  0  0  0  0  0
    7.7138   47.2070  130.4711 C   0  0  0  0  0  0  0  0  0  0  0  0
    7.1012   47.7579  129.3601 C   0  0  0  0  0  0  0  0  0  0  0  0
    7.3134   49.0785  129.0573 C   0  0  0  0  0  0  0  0  0  0  0  0
    8.1438   49.8295  129.8814 C   0  0  0  0  0  0  0  0  0  0  0  0
    8.7485   49.2815  130.9801 C   0  0  0  0  0  0  0  0  0  0  0  0
    8.5380   47.9405  131.2948 C   0  0  0  0  0  0  0  0  0  0  0  0
    8.7238   44.4632  133.0447 S   0  0  0  0  0  0  0  0  0  0  0  0
    9.3051   43.0306  132.1991 C   0  0  0  0  0  0  0  0  0  0  0  0
    9.1015   42.8988  130.7715 C   0  0  0  0  0  0  0  0  0  0  0  0
    8.1755   42.2926  130.2342 O   0  0  0  0  0  0  0  0  0  0  0  0
   10.0766   43.5379  129.9168 N   0  0  0  0  0  0  0  0  0  0  0  0
   11.2149   44.2882  130.3674 C   0  0  0  0  0  0  0  0  0  0  0  0
   11.6582   45.0963  129.1423 C   0  0  0  0  0  0  0  0  0  0  0  0
   11.3309   44.1581  128.0119 C   0  0  0  0  0  0  0  0  0  0  0  0
   10.0716   43.5335  128.4849 C   0  0  0  0  0  0  0  0  0  0  0  0
    9.1292   43.0654  127.7966 O   0  0  0  0  0  0  0  0  0  0  0  0
  1  2  1  0  0  0
  2  3  1  0  0  0
  3 11  1  0  0  0
 11 12  1  0  0  0
 12 13  1  0  0  0
 13 14  2  0  0  0
 13 15  1  0  0  0
 15 16  1  0  0  0
 16 17  1  0  0  0
 17 18  1  0  0  0
 18 19  1  0  0  0
 19 20  2  0  0  0
  3  4  2  0  0  0
  4  5  1  0  0  0
  5  6  2  0  0  0
  6  7  1  0  0  0
  7  8  2  0  0  0
  8  9  1  0  0  0
  9 10  2  0  0  0
 10  2  1  0  0  0
 19 15  1  0  0  0
 10  5  1  0  0  0
M  END
> <minimizedAffinity>
-8.40079

> <CNNscore>
0.3181277812

> <CNNaffinity>
6.5212998390

> <CNN_VS>
2.0746066570

> <CNNaffinity_variance>
0.0606013425

$$$$
[H]c1c(C([H])([H])[H])c([H])c2c(c1C(F)(F)F)C(=O)N1C([H])([H])C([H])([H])N([H])C([H])([H])[C@@]21[H]


 20 22  0  0  0  0  0  0  0  0999 V2000
    8.5172   42.5522  130.5734 C   0  0  0  0  0  0  0  0  0  0  0  0
    8.6381   43.9429  131.0862 C   0  0  0  0  0  0  0  0  0  0  0  0
    7.9877   44.9325  130.3829 C   0  0  0  0  0  0  0  0  0  0  0  0
    8.0614   46.2328  130.8051 C   0  0  0  0  0  0  0  0  0  0  0  0
    8.8030   46.5369  131.9527 C   0  0  0  0  0  0  0  0  0  0  0  0
    9.4591   45.5729  132.6717 C   0  0  0  0  0  0  0  0  0  0  0  0
    9.3661   44.2629  132.2199 C   0  0  0  0  0  0  0  0  0  0  0  0
    8.6971   47.9897  132.0929 C   0  0  0  0  0  0  0  0  0  0  0  0
    9.2270   48.6475  133.0058 O   0  0  0  0  0  0  0  0  0  0  0  0
    7.9207   48.5320  131.0614 N   0  0  0  0  0  0  0  0  0  0  0  0
    7.5394   49.8635  130.6628 C   0  0  0  0  0  0  0  0  0  0  0  0
    7.7896   50.0659  129.1698 C   0  0  0  0  0  0  0  0  0  0  0  0
    7.1704   48.9967  128.4546 N   0  0  0  0  0  0  0  0  0  0  0  0
    7.6843   47.6791  128.7908 C   0  0  0  0  0  0  0  0  0  0  0  0
    7.4419   47.4390  130.2468 C   0  0  0  0  0  0  0  0  0  0  0  0
    7.1989   49.1085  127.4239 H   0  0  0  0  0  0  0  0  0  0  0  0
   10.2284   45.9194  133.8864 C   0  0  0  0  0  0  0  0  0  0  0  0
    9.4972   46.4755  134.8894 F   0  0  0  0  0  0  0  0  0  0  0  0
   11.3306   46.7165  133.5451 F   0  0  0  0  0  0  0  0  0  0  0  0
   10.8028   44.7550  134.4184 F   0  0  0  0  0  0  0  0  0  0  0  0
  1  2  1  0  0  0
  2  3  2  0  0  0
  3  4  1  0  0  0
  4  5  2  0  0  0
  5  6  1  0  0  0
  6 17  1  0  0  0
 17 18  1  0  0  0
 17 19  1  0  0  0
 17 20  1  0  0  0
  6  7  2  0  0  0
  5  8  1  0  0  0
  8  9  2  0  0  0
  8 10  1  0  0  0
 10 11  1  0  0  0
 11 12  1  0  0  0
 12 13  1  0  0  0
 13 14  1  0  0  0
 14 15  1  0  0  0
  7  2  1  0  0  0
 15 10  1  0  0  0
 15  4  1  0  0  0
 13 16  1  0  0  0
M  END
> <minimizedAffinity>
-8.03135

> <CNNscore>
0.6314092875

> <CNNaffinity>
6.6310195923

> <CNN_VS>
4.1868872643

> <CNNaffinity_variance>
0.1314798892

$$$$
[H]c1c(C([H])([H])[H])c([H])c2c(c1C(F)(F)F)C(=O)N1C([H])([H])C([H])([H])N([H])C([H])([H])[C@@]21[H]


 20 22  0  0  0  0  0  0  0  0999 V2000
   10.0224   43.3195  127.9361 C   0  0  0  0  0  0  0  0  0  0  0  0
   10.1619   44.0477  129.2253 C   0  0  0  0  0  0  0  0  0  0  0  0
    9.5414   45.2731  129.3270 C   0  0  0  0  0  0  0  0  0  0  0  0
    9.6334   45.9919  130.4886 C   0  0  0  0  0  0  0  0  0  0  0  0
   10.3628   45.4655  131.5611 C   0  0  0  0  0  0  0  0  0  0  0  0
   10.9891   44.2493  131.4880 C   0  0  0  0  0  0  0  0  0  0  0  0
   10.8782   43.5427  130.2975 C   0  0  0  0  0  0  0  0  0  0  0  0
   10.2825   46.4870  132.6058 C   0  0  0  0  0  0  0  0  0  0  0  0
   10.8106   46.3873  133.7275 O   0  0  0  0  0  0  0  0  0  0  0  0
    9.5327   47.5858  132.1683 N   0  0  0  0  0  0  0  0  0  0  0  0
    9.1831   48.8691  132.7233 C   0  0  0  0  0  0  0  0  0  0  0  0
    9.4603   49.9808  131.7133 C   0  0  0  0  0  0  0  0  0  0  0  0
    8.8320   49.6410  130.4772 N   0  0  0  0  0  0  0  0  0  0  0  0
    9.3154   48.4052  129.8835 C   0  0  0  0  0  0  0  0  0  0  0  0
    9.0458   47.2884  130.8409 C   0  0  0  0  0  0  0  0  0  0  0  0
    8.8786   50.3907  129.7620 H   0  0  0  0  0  0  0  0  0  0  0  0
   11.7459   43.7113  132.6391 C   0  0  0  0  0  0  0  0  0  0  0  0
   10.9970   43.4388  133.7412 F   0  0  0  0  0  0  0  0  0  0  0  0
   12.8244   44.5554  132.9410 F   0  0  0  0  0  0  0  0  0  0  0  0
   12.3540   42.5021  132.2690 F   0  0  0  0  0  0  0  0  0  0  0  0
  1  2  1  0  0  0
  2  3  2  0  0  0
  3  4  1  0  0  0
  4  5  2  0  0  0
  5  6  1  0  0  0
  6 17  1  0  0  0
 17 18  1  0  0  0
 17 19  1  0  0  0
 17 20  1  0  0  0
  6  7  2  0  0  0
  5  8  1  0  0  0
  8  9  2  0  0  0
  8 10  1  0  0  0
 10 11  1  0  0  0
 11 12  1  0  0  0
 12 13  1  0  0  0
 13 14  1  0  0  0
 14 15  1  0  0  0
  7  2  1  0  0  0
 15 10  1  0  0  0
 15  4  1  0  0  0
 13 16  1  0  0  0
M  END
> <minimizedAffinity>
-8.00450

> <CNNscore>
0.4763682783

> <CNNaffinity>
6.5266923904

> <CNN_VS>
3.1091091633

> <CNNaffinity_variance>
0.3148320317

$$$$
[H]c1c(C([H])([H])[H])c([H])c2c(c1C(F)(F)F)C(=O)N1C([H])([H])C([H])([H])N([H])C([H])([H])[C@@]21[H]


 20 22  0  0  0  0  0  0  0  0999 V2000
    9.9651   46.2016  135.6305 C   0  0  0  0  0  0  0  0  0  0  0  0
    9.7077   45.9504  134.1874 C   0  0  0  0  0  0  0  0  0  0  0  0
    9.5062   47.0498  133.3826 C   0  0  0  0  0  0  0  0  0  0  0  0
    9.2644   46.8834  132.0454 C   0  0  0  0  0  0  0  0  0  0  0  0
    9.2249   45.5887  131.5148 C   0  0  0  0  0  0  0  0  0  0  0  0
    9.4225   44.4776  132.2915 C   0  0  0  0  0  0  0  0  0  0  0  0
    9.6660   44.6772  133.6442 C   0  0  0  0  0  0  0  0  0  0  0  0
    8.9180   45.7745  130.0961 C   0  0  0  0  0  0  0  0  0  0  0  0
    8.7997   44.8471  129.2759 O   0  0  0  0  0  0  0  0  0  0  0  0
    8.7767   47.1345  129.7935 N   0  0  0  0  0  0  0  0  0  0  0  0
    8.4253   47.8868  128.6155 C   0  0  0  0  0  0  0  0  0  0  0  0
    7.3473   48.9180  128.9428 C   0  0  0  0  0  0  0  0  0  0  0  0
    7.7750   49.6829  130.0699 N   0  0  0  0  0  0  0  0  0  0  0  0
    7.9854   48.8992  131.2760 C   0  0  0  0  0  0  0  0  0  0  0  0
    9.0492   47.8859  130.9971 C   0  0  0  0  0  0  0  0  0  0  0  0
    7.1510   50.4792  130.2986 H   0  0  0  0  0  0  0  0  0  0  0  0
    9.3849   43.1207  131.7044 C   0  0  0  0  0  0  0  0  0  0  0  0
   10.2380   42.9220  130.6639 F   0  0  0  0  0  0  0  0  0  0  0  0
    8.0671   42.7805  131.3666 F   0  0  0  0  0  0  0  0  0  0  0  0
    9.7374   42.1818  132.6857 F   0  0  0  0  0  0  0  0  0  0  0  0
  1  2  1  0  0  0
  2  3  2  0  0  0
  3  4  1  0  0  0
  4  5  2  0  0  0
  5  6  1  0  0  0
  6 17  1  0  0  0
 17 18  1  0  0  0
 17 19  1  0  0  0
 17 20  1  0  0  0
  6  7  2  0  0  0
  5  8  1  0  0  0
  8  9  2  0  0  0
  8 10  1  0  0  0
 10 11  1  0  0  0
 11 12  1  0  0  0
 12 13  1  0  0  0
 13 14  1  0  0  0
 14 15  1  0  0  0
  7  2  1  0  0  0
 15 10  1  0  0  0
 15  4  1  0  0  0
 13 16  1  0  0  0
M  END
> <minimizedAffinity>
-6.49810

> <CNNscore>
0.4720192850

> <CNNaffinity>
6.7400541306

> <CNN_VS>
3.1814355850

> <CNNaffinity_variance>
0.4256216884

$$$$
[H]c1c(C([H])([H])[H])c([H])c2c(c1C(F)(F)F)C(=O)N1C([H])([H])C([H])([H])N([H])C([H])([H])[C@@]21[H]


 20 22  0  0  0  0  0  0  0  0999 V2000
   12.2100   44.0340  134.1096 C   0  0  0  0  0  0  0  0  0  0  0  0
   11.4336   44.5665  132.9584 C   0  0  0  0  0  0  0  0  0  0  0  0
   11.3035   45.9345  132.8650 C   0  0  0  0  0  0  0  0  0  0  0  0
   10.6001   46.4853  131.8275 C   0  0  0  0  0  0  0  0  0  0  0  0
   10.0199   45.6423  130.8725 C   0  0  0  0  0  0  0  0  0  0  0  0
   10.1340   44.2788  130.9402 C   0  0  0  0  0  0  0  0  0  0  0  0
   10.8535   43.7486  132.0033 C   0  0  0  0  0  0  0  0  0  0  0  0
    9.3321   46.5429  129.9466 C   0  0  0  0  0  0  0  0  0  0  0  0
    8.6913   46.1684  128.9486 O   0  0  0  0  0  0  0  0  0  0  0  0
    9.4954   47.8771  130.3394 N   0  0  0  0  0  0  0  0  0  0  0  0
    9.0087   49.1478  129.8646 C   0  0  0  0  0  0  0  0  0  0  0  0
    8.4406   49.9677  131.0211 C   0  0  0  0  0  0  0  0  0  0  0  0
    9.4139   50.0201  132.0643 N   0  0  0  0  0  0  0  0  0  0  0  0
    9.7740   48.7211  132.6085 C   0  0  0  0  0  0  0  0  0  0  0  0
   10.3501   47.8935  131.5042 C   0  0  0  0  0  0  0  0  0  0  0  0
    9.1552   50.6464  132.8495 H   0  0  0  0  0  0  0  0  0  0  0  0
    9.5192   43.4106  129.9128 C   0  0  0  0  0  0  0  0  0  0  0  0
   10.0205   43.5635  128.6577 F   0  0  0  0  0  0  0  0  0  0  0  0
    8.1244   43.5548  129.9350 F   0  0  0  0  0  0  0  0  0  0  0  0
    9.7274   42.0665  130.2576 F   0  0  0  0  0  0  0  0  0  0  0  0
  1  2  1  0  0  0
  2  3  2  0  0  0
  3  4  1  0  0  0
  4  5  2  0  0  0
  5  6  1  0  0  0
  6 17  1  0  0  0
 17 18  1  0  0  0
 17 19  1  0  0  0
 17 20  1  0  0  0
  6  7  2  0  0  0
  5  8  1  0  0  0
  8  9  2  0  0  0
  8 10  1  0  0  0
 10 11  1  0  0  0
 11 12  1  0  0  0
 12 13  1  0  0  0
 13 14  1  0  0  0
 14 15  1  0  0  0
  7  2  1  0  0  0
 15 10  1  0  0  0
 15  4  1  0  0  0
 13 16  1  0  0  0
M  END
> <minimizedAffinity>
-7.52218

> <CNNscore>
0.4095367789

> <CNNaffinity>
6.4210004807

> <CNN_VS>
2.6296358109

> <CNNaffinity_variance>
0.1075643450

$$$$
[H]c1c(C([H])([H])[H])c([H])c2c(c1C(F)(F)F)C(=O)N1C([H])([H])C([H])([H])N([H])C([H])([H])[C@@]21[H]


 20 22  0  0  0  0  0  0  0  0999 V2000
   13.9291   44.3478  129.4695 C   0  0  0  0  0  0  0  0  0  0  0  0
   12.6628   44.4958  130.2352 C   0  0  0  0  0  0  0  0  0  0  0  0
   11.5737   45.0010  129.5601 C   0  0  0  0  0  0  0  0  0  0  0  0
   10.3797   45.1610  130.2107 C   0  0  0  0  0  0  0  0  0  0  0  0
   10.2855   44.8064  131.5615 C   0  0  0  0  0  0  0  0  0  0  0  0
   11.3519   44.3010  132.2572 C   0  0  0  0  0  0  0  0  0  0  0  0
   12.5501   44.1496  131.5713 C   0  0  0  0  0  0  0  0  0  0  0  0
    8.9096   45.1317  131.9389 C   0  0  0  0  0  0  0  0  0  0  0  0
    8.4328   44.9566  133.0743 O   0  0  0  0  0  0  0  0  0  0  0  0
    8.2095   45.6647  130.8496 N   0  0  0  0  0  0  0  0  0  0  0  0
    6.8879   46.2042  130.6508 C   0  0  0  0  0  0  0  0  0  0  0  0
    6.9626   47.5445  129.9225 C   0  0  0  0  0  0  0  0  0  0  0  0
    7.7556   47.3810  128.7466 N   0  0  0  0  0  0  0  0  0  0  0  0
    9.1250   46.9673  129.0047 C   0  0  0  0  0  0  0  0  0  0  0  0
    9.0916   45.6466  129.7055 C   0  0  0  0  0  0  0  0  0  0  0  0
    7.7737   48.2165  128.1323 H   0  0  0  0  0  0  0  0  0  0  0  0
   11.2235   43.9253  133.6819 C   0  0  0  0  0  0  0  0  0  0  0  0
   10.3802   42.8869  133.9276 F   0  0  0  0  0  0  0  0  0  0  0  0
   10.8940   45.0530  134.4477 F   0  0  0  0  0  0  0  0  0  0  0  0
   12.4790   43.5361  134.1730 F   0  0  0  0  0  0  0  0  0  0  0  0
  1  2  1  0  0  0
  2  3  2  0  0  0
  3  4  1  0  0  0
  4  5  2  0  0  0
  5  6  1  0  0  0
  6 17  1  0  0  0
 17 18  1  0  0  0
 17 19  1  0  0  0
 17 20  1  0  0  0
  6  7  2  0  0  0
  5  8  1  0  0  0
  8  9  2  0  0  0
  8 10  1  0  0  0
 10 11  1  0  0  0
 11 12  1  0  0  0
 12 13  1  0  0  0
 13 14  1  0  0  0
 14 15  1  0  0  0
  7  2  1  0  0  0
 15 10  1  0  0  0
 15  4  1  0  0  0
 13 16  1  0  0  0
M  END
> <minimizedAffinity>
-7.11404

> <CNNscore>
0.3490195572

> <CNNaffinity>
6.3583946228

> <CNN_VS>
2.2192041874

> <CNNaffinity_variance>
0.5510430336

$$$$
[H]c1c(C([H])([H])[H])c([H])c2c(c1C(F)(F)F)C(=O)N1C([H])([H])C([H])([H])N([H])C([H])([H])[C@@]21[H]


 20 22  0  0  0  0  0  0  0  0999 V2000
   11.5118   43.7848  135.4028 C   0  0  0  0  0  0  0  0  0  0  0  0
   10.9439   44.5186  134.2406 C   0  0  0  0  0  0  0  0  0  0  0  0
   10.4993   43.7657  133.1764 C   0  0  0  0  0  0  0  0  0  0  0  0
    9.9663   44.3835  132.0770 C   0  0  0  0  0  0  0  0  0  0  0  0
    9.8824   45.7805  132.0526 C   0  0  0  0  0  0  0  0  0  0  0  0
   10.3160   46.5539  133.0969 C   0  0  0  0  0  0  0  0  0  0  0  0
   10.8516   45.8997  134.1987 C   0  0  0  0  0  0  0  0  0  0  0  0
    9.3068   46.0983  130.7452 C   0  0  0  0  0  0  0  0  0  0  0  0
    9.0721   47.2516  130.3430 O   0  0  0  0  0  0  0  0  0  0  0  0
    9.0592   44.9293  130.0151 N   0  0  0  0  0  0  0  0  0  0  0  0
    8.5755   44.6372  128.6893 C   0  0  0  0  0  0  0  0  0  0  0  0
    9.4918   43.6306  127.9966 C   0  0  0  0  0  0  0  0  0  0  0  0
    9.6706   42.5075  128.8596 N   0  0  0  0  0  0  0  0  0  0  0  0
   10.2894   42.8291  130.1351 C   0  0  0  0  0  0  0  0  0  0  0  0
    9.4094   43.8038  130.8506 C   0  0  0  0  0  0  0  0  0  0  0  0
   10.1949   41.7242  128.4269 H   0  0  0  0  0  0  0  0  0  0  0  0
   10.2075   48.0281  133.0500 C   0  0  0  0  0  0  0  0  0  0  0  0
   10.7278   48.6065  131.9344 F   0  0  0  0  0  0  0  0  0  0  0  0
   10.7419   48.5860  134.2204 F   0  0  0  0  0  0  0  0  0  0  0  0
    8.8534   48.3940  133.0867 F   0  0  0  0  0  0  0  0  0  0  0  0
  1  2  1  0  0  0
  2  3  2  0  0  0
  3  4  1  0  0  0
  4  5  2  0  0  0
  5  6  1  0  0  0
  6 17  1  0  0  0
 17 18  1  0  0  0
 17 19  1  0  0  0
 17 20  1  0  0  0
  6  7  2  0  0  0
  5  8  1  0  0  0
  8  9  2  0  0  0
  8 10  1  0  0  0
 10 11  1  0  0  0
 11 12  1  0  0  0
 12 13  1  0  0  0
 13 14  1  0  0  0
 14 15  1  0  0  0
  7  2  1  0  0  0
 15 10  1  0  0  0
 15  4  1  0  0  0
 13 16  1  0  0  0
M  END
> <minimizedAffinity>
-5.86299

> <CNNscore>
0.2697934806

> <CNNaffinity>
6.2671327591

> <CNN_VS>
1.6908315420

> <CNNaffinity_variance>
0.3213446736

$$$$
[H]c1c(C([H])([H])[H])c([H])c2c(c1C(F)(F)F)C(=O)N1C([H])([H])C([H])([H])N([H])C([H])([H])[C@@]21[H]


 20 22  0  0  0  0  0  0  0  0999 V2000
    5.4769   47.2799  129.0069 C   0  0  0  0  0  0  0  0  0  0  0  0
    6.7609   47.2794  129.7572 C   0  0  0  0  0  0  0  0  0  0  0  0
    7.2980   46.0546  130.0863 C   0  0  0  0  0  0  0  0  0  0  0  0
    8.4782   45.9886  130.7770 C   0  0  0  0  0  0  0  0  0  0  0  0
    9.1236   47.1762  131.1406 C   0  0  0  0  0  0  0  0  0  0  0  0
    8.6128   48.4078  130.8259 C   0  0  0  0  0  0  0  0  0  0  0  0
    7.4145   48.4437  130.1246 C   0  0  0  0  0  0  0  0  0  0  0  0
   10.3118   46.7460  131.8786 C   0  0  0  0  0  0  0  0  0  0  0  0
   11.1519   47.5204  132.3699 O   0  0  0  0  0  0  0  0  0  0  0  0
   10.3697   45.3488  131.9539 N   0  0  0  0  0  0  0  0  0  0  0  0
   11.2460   44.3963  132.5876 C   0  0  0  0  0  0  0  0  0  0  0  0
   10.4362   43.3629  133.3680 C   0  0  0  0  0  0  0  0  0  0  0  0
    9.4389   42.8180  132.5039 N   0  0  0  0  0  0  0  0  0  0  0  0
    8.4915   43.7967  131.9963 C   0  0  0  0  0  0  0  0  0  0  0  0
    9.2492   44.8193  131.2112 C   0  0  0  0  0  0  0  0  0  0  0  0
    8.9080   42.0297  132.9194 H   0  0  0  0  0  0  0  0  0  0  0  0
    9.3194   49.6478  131.2139 C   0  0  0  0  0  0  0  0  0  0  0  0
    8.6047   50.7925  131.0440 F   0  0  0  0  0  0  0  0  0  0  0  0
   10.5633   49.7128  130.5695 F   0  0  0  0  0  0  0  0  0  0  0  0
    9.6457   49.5875  132.5772 F   0  0  0  0  0  0  0  0  0  0  0  0
  1  2  1  0  0  0
  2  3  2  0  0  0
  3  4  1  0  0  0
  4  5  2  0  0  0
  5  6  1  0  0  0
  6 17  1  0  0  0
 17 18  1  0  0  0
 17 19  1  0  0  0
 17 20  1  0  0  0
  6  7  2  0  0  0
  5  8  1  0  0  0
  8  9  2  0  0  0
  8 10  1  0  0  0
 10 11  1  0  0  0
 11 12  1  0  0  0
 12 13  1  0  0  0
 13 14  1  0  0  0
 14 15  1  0  0  0
  7  2  1  0  0  0
 15 10  1  0  0  0
 15  4  1  0  0  0
 13 16  1  0  0  0
M  END
> <minimizedAffinity>
-8.51787

> <CNNscore>
0.2428451180

> <CNNaffinity>
6.1225056648

> <CNN_VS>
1.4868205786

> <CNNaffinity_variance>
0.1281177253

$$$$
[H]c1c(C([H])([H])[H])c([H])c2c(c1C(F)(F)F)C(=O)N1C([H])([H])C([H])([H])N([H])C([H])([H])[C@@]21[H]


 20 22  0  0  0  0  0  0  0  0999 V2000
    9.2961   39.1799  123.4508 C   0  0  0  0  0  0  0  0  0  0  0  0
    9.7720   39.5432  124.8122 C   0  0  0  0  0  0  0  0  0  0  0  0
    9.1011   40.5532  125.4655 C   0  0  0  0  0  0  0  0  0  0  0  0
    9.4921   40.9332  126.7213 C   0  0  0  0  0  0  0  0  0  0  0  0
   10.5759   40.2845  127.3244 C   0  0  0  0  0  0  0  0  0  0  0  0
   11.2607   39.2766  126.6983 C   0  0  0  0  0  0  0  0  0  0  0  0
   10.8414   38.9122  125.4254 C   0  0  0  0  0  0  0  0  0  0  0  0
   10.7375   40.9490  128.6180 C   0  0  0  0  0  0  0  0  0  0  0  0
   11.6061   40.6510  129.4569 O   0  0  0  0  0  0  0  0  0  0  0  0
    9.7832   41.9613  128.7780 N   0  0  0  0  0  0  0  0  0  0  0  0
    9.5078   42.9544  129.7855 C   0  0  0  0  0  0  0  0  0  0  0  0
    9.3347   44.3302  129.1454 C   0  0  0  0  0  0  0  0  0  0  0  0
    8.3778   44.2256  128.0911 N   0  0  0  0  0  0  0  0  0  0  0  0
    8.7620   43.3134  127.0266 C   0  0  0  0  0  0  0  0  0  0  0  0
    8.9259   41.9485  127.6152 C   0  0  0  0  0  0  0  0  0  0  0  0
    8.1179   45.1360  127.6676 H   0  0  0  0  0  0  0  0  0  0  0  0
   12.3970   38.6008  127.3613 C   0  0  0  0  0  0  0  0  0  0  0  0
   12.0563   37.7913  128.3998 F   0  0  0  0  0  0  0  0  0  0  0  0
   13.3645   39.5445  127.7354 F   0  0  0  0  0  0  0  0  0  0  0  0
   13.0588   37.7865  126.4298 F   0  0  0  0  0  0  0  0  0  0  0  0
  1  2  1  0  0  0
  2  3  2  0  0  0
  3  4  1  0  0  0
  4  5  2  0  0  0
  5  6  1  0  0  0
  6 17  1  0  0  0
 17 18  1  0  0  0
 17 19  1  0  0  0
 17 20  1  0  0  0
  6  7  2  0  0  0
  5  8  1  0  0  0
  8  9  2  0  0  0
  8 10  1  0  0  0
 10 11  1  0  0  0
 11 12  1  0  0  0
 12 13  1  0  0  0
 13 14  1  0  0  0
 14 15  1  0  0  0
  7  2  1  0  0  0
 15 10  1  0  0  0
 15  4  1  0  0  0
 13 16  1  0  0  0
M  END
> <minimizedAffinity>
59.02430

> <CNNscore>
0.1837398410

> <CNNaffinity>
4.9415273666

> <CNN_VS>
0.9079554677

> <CNNaffinity_variance>
0.6714243889

$$$$
[H]c1c(C([H])([H])[H])c([H])c2c(c1C(F)(F)F)C(=O)N1C([H])([H])C([H])([H])N([H])C([H])([H])[C@@]21[H]


 20 22  0  0  0  0  0  0  0  0999 V2000
    9.2863   46.4784  135.4940 C   0  0  0  0  0  0  0  0  0  0  0  0
    9.1751   46.6420  134.0201 C   0  0  0  0  0  0  0  0  0  0  0  0
    9.0294   45.4971  133.2683 C   0  0  0  0  0  0  0  0  0  0  0  0
    8.9220   45.5825  131.9061 C   0  0  0  0  0  0  0  0  0  0  0  0
    8.9633   46.8414  131.2957 C   0  0  0  0  0  0  0  0  0  0  0  0
    9.1066   47.9963  132.0186 C   0  0  0  0  0  0  0  0  0  0  0  0
    9.2128   47.8788  133.3984 C   0  0  0  0  0  0  0  0  0  0  0  0
    8.8570   46.5663  129.8624 C   0  0  0  0  0  0  0  0  0  0  0  0
    8.8551   47.4406  128.9778 O   0  0  0  0  0  0  0  0  0  0  0  0
    8.7585   45.1892  129.6278 N   0  0  0  0  0  0  0  0  0  0  0  0
    8.6955   44.3557  128.4538 C   0  0  0  0  0  0  0  0  0  0  0  0
    9.6989   43.2091  128.5588 C   0  0  0  0  0  0  0  0  0  0  0  0
    9.5051   42.5464  129.8084 N   0  0  0  0  0  0  0  0  0  0  0  0
    9.7141   43.3941  130.9706 C   0  0  0  0  0  0  0  0  0  0  0  0
    8.7352   44.5230  130.9097 C   0  0  0  0  0  0  0  0  0  0  0  0
   10.0739   41.6865  129.9208 H   0  0  0  0  0  0  0  0  0  0  0  0
    9.1380   49.3150  131.3499 C   0  0  0  0  0  0  0  0  0  0  0  0
    7.9646   49.6960  130.7771 F   0  0  0  0  0  0  0  0  0  0  0  0
   10.2009   49.3646  130.4364 F   0  0  0  0  0  0  0  0  0  0  0  0
    9.4539   50.3049  132.2929 F   0  0  0  0  0  0  0  0  0  0  0  0
  1  2  1  0  0  0
  2  3  2  0  0  0
  3  4  1  0  0  0
  4  5  2  0  0  0
  5  6  1  0  0  0
  6 17  1  0  0  0
 17 18  1  0  0  0
 17 19  1  0  0  0
 17 20  1  0  0  0
  6  7  2  0  0  0
  5  8  1  0  0  0
  8  9  2  0  0  0
  8 10  1  0  0  0
 10 11  1  0  0  0
 11 12  1  0  0  0
 12 13  1  0  0  0
 13 14  1  0  0  0
 14 15  1  0  0  0
  7  2  1  0  0  0
 15 10  1  0  0  0
 15  4  1  0  0  0
 13 16  1  0  0  0
M  END
> <minimizedAffinity>
-7.76700

> <CNNscore>
0.1802000403

> <CNNaffinity>
6.0648450851

> <CNN_VS>
1.0928853750

> <CNNaffinity_variance>
0.0397469327

$$$$
[H]N=C1c2c([H])nc([H])nc2C([H])([H])[C@](c2c([H])c(-c3c([H])nc([H])c(Cl)c3[H])c([H])c([H])c2F)(C([H])([H])[H])N1[H]


 28 31  0  0  0  0  0  0  0  0999 V2000
    6.2917   47.2577  130.3028 C   0  0  0  0  0  0  0  0  0  0  0  0
    7.7887   47.3076  130.3504 C   0  0  0  0  0  0  0  0  0  0  0  0
    8.2670   47.9669  129.0799 C   0  0  0  0  0  0  0  0  0  0  0  0
    7.7475   49.3435  128.9710 C   0  0  0  0  0  0  0  0  0  0  0  0
    7.5227   49.8778  127.7536 N   0  0  0  0  0  0  0  0  0  0  0  0
    7.0629   51.1312  127.5950 C   0  0  0  0  0  0  0  0  0  0  0  0
    6.8301   51.8479  128.7076 N   0  0  0  0  0  0  0  0  0  0  0  0
    7.0411   51.3522  129.9543 C   0  0  0  0  0  0  0  0  0  0  0  0
    7.5085   50.0769  130.1066 C   0  0  0  0  0  0  0  0  0  0  0  0
    7.7350   49.4984  131.4483 C   0  0  0  0  0  0  0  0  0  0  0  0
    7.5285   50.1553  132.5105 N   0  0  0  0  0  0  0  0  0  0  0  0
    8.2050   48.1577  131.4588 N   0  0  0  0  0  0  0  0  0  0  0  0
    7.2005   51.1107  132.6428 H   0  0  0  0  0  0  0  0  0  0  0  0
    8.8150   47.8441  132.2430 H   0  0  0  0  0  0  0  0  0  0  0  0
    8.3968   45.9560  130.4526 C   0  0  0  0  0  0  0  0  0  0  0  0
    9.1066   45.5441  131.5587 C   0  0  0  0  0  0  0  0  0  0  0  0
    9.6715   44.2733  131.6304 C   0  0  0  0  0  0  0  0  0  0  0  0
    9.5001   43.4264  130.5524 C   0  0  0  0  0  0  0  0  0  0  0  0
    8.7872   43.8088  129.4151 C   0  0  0  0  0  0  0  0  0  0  0  0
    8.2495   45.0804  129.3994 C   0  0  0  0  0  0  0  0  0  0  0  0
    7.5438   45.4972  128.3073 F   0  0  0  0  0  0  0  0  0  0  0  0
   10.4275   43.8148  132.7881 C   0  0  0  0  0  0  0  0  0  0  0  0
    9.9428   42.7793  133.5554 C   0  0  0  0  0  0  0  0  0  0  0  0
   10.6222   42.3307  134.6421 N   0  0  0  0  0  0  0  0  0  0  0  0
   11.7981   42.8668  135.0291 C   0  0  0  0  0  0  0  0  0  0  0  0
   12.3108   43.9005  134.2872 C   0  0  0  0  0  0  0  0  0  0  0  0
   13.8303   44.6062  134.7737 Cl  0  0  0  0  0  0  0  0  0  0  0  0
   11.6286   44.3780  133.1654 C   0  0  0  0  0  0  0  0  0  0  0  0
  2  1  1  0  0  0
  2 15  1  0  0  0
 15 16  2  0  0  0
 16 17  1  0  0  0
 17 22  1  0  0  0
 22 23  2  0  0  0
 23 24  1  0  0  0
 24 25  2  0  0  0
 25 26  1  0  0  0
 26 27  1  0  0  0
 26 28  2  0  0  0
 17 18  2  0  0  0
 18 19  1  0  0  0
 19 20  2  0  0  0
 20 21  1  0  0  0
  2  3  1  0  0  0
  3  4  1  0  0  0
  4  5  2  0  0  0
  5  6  1  0  0  0
  6  7  2  0  0  0
  7  8  1  0  0  0
  8  9  2  0  0  0
  9 10  1  0  0  0
 10 11  2  0  0  0
 10 12  1  0  0  0
 12  2  1  0  0  0
 20 15  1  0  0  0
  9  4  1  0  0  0
 28 22  1  0  0  0
 11 13  1  0  0  0
 12 14  1  0  0  0
M  END
> <minimizedAffinity>
10.12153

> <CNNscore>
0.4845121503

> <CNNaffinity>
7.5676345825

> <CNN_VS>
3.6666109562

> <CNNaffinity_variance>
1.2697365284

$$$$
[H]N=C1c2c([H])nc([H])nc2C([H])([H])[C@](c2c([H])c(-c3c([H])nc([H])c(Cl)c3[H])c([H])c([H])c2F)(C([H])([H])[H])N1[H]


 28 31  0  0  0  0  0  0  0  0999 V2000
    9.1367   49.2265  133.0035 C   0  0  0  0  0  0  0  0  0  0  0  0
    9.1470   48.0861  132.0313 C   0  0  0  0  0  0  0  0  0  0  0  0
    7.7822   48.0160  131.3911 C   0  0  0  0  0  0  0  0  0  0  0  0
    7.4762   49.2615  130.6615 C   0  0  0  0  0  0  0  0  0  0  0  0
    6.1965   49.6704  130.5465 N   0  0  0  0  0  0  0  0  0  0  0  0
    5.8589   50.7893  129.8819 C   0  0  0  0  0  0  0  0  0  0  0  0
    6.8544   51.5002  129.3258 N   0  0  0  0  0  0  0  0  0  0  0  0
    8.1575   51.1281  129.4155 C   0  0  0  0  0  0  0  0  0  0  0  0
    8.4921   49.9892  130.0932 C   0  0  0  0  0  0  0  0  0  0  0  0
    9.9012   49.5614  130.2251 C   0  0  0  0  0  0  0  0  0  0  0  0
   10.8554   50.2109  129.7054 N   0  0  0  0  0  0  0  0  0  0  0  0
   10.1055   48.3693  130.9703 N   0  0  0  0  0  0  0  0  0  0  0  0
   10.8479   51.0661  129.1518 H   0  0  0  0  0  0  0  0  0  0  0  0
   10.9160   47.7595  130.7326 H   0  0  0  0  0  0  0  0  0  0  0  0
    9.4409   46.7861  132.6875 C   0  0  0  0  0  0  0  0  0  0  0  0
    8.7167   45.6438  132.4271 C   0  0  0  0  0  0  0  0  0  0  0  0
    9.0078   44.4368  133.0576 C   0  0  0  0  0  0  0  0  0  0  0  0
   10.0529   44.4133  133.9608 C   0  0  0  0  0  0  0  0  0  0  0  0
   10.8089   45.5504  134.2498 C   0  0  0  0  0  0  0  0  0  0  0  0
   10.4751   46.7192  133.5950 C   0  0  0  0  0  0  0  0  0  0  0  0
   11.1879   47.8564  133.8464 F   0  0  0  0  0  0  0  0  0  0  0  0
    8.2561   43.2158  132.8005 C   0  0  0  0  0  0  0  0  0  0  0  0
    8.1602   42.7291  131.5161 C   0  0  0  0  0  0  0  0  0  0  0  0
    7.4646   41.5954  131.2431 N   0  0  0  0  0  0  0  0  0  0  0  0
    6.8343   40.8876  132.2031 C   0  0  0  0  0  0  0  0  0  0  0  0
    6.9090   41.3437  133.4947 C   0  0  0  0  0  0  0  0  0  0  0  0
    6.0991   40.4410  134.7489 Cl  0  0  0  0  0  0  0  0  0  0  0  0
    7.6192   42.5079  133.7982 C   0  0  0  0  0  0  0  0  0  0  0  0
  2  1  1  0  0  0
  2 15  1  0  0  0
 15 16  2  0  0  0
 16 17  1  0  0  0
 17 22  1  0  0  0
 22 23  2  0  0  0
 23 24  1  0  0  0
 24 25  2  0  0  0
 25 26  1  0  0  0
 26 27  1  0  0  0
 26 28  2  0  0  0
 17 18  2  0  0  0
 18 19  1  0  0  0
 19 20  2  0  0  0
 20 21  1  0  0  0
  2  3  1  0  0  0
  3  4  1  0  0  0
  4  5  2  0  0  0
  5  6  1  0  0  0
  6  7  2  0  0  0
  7  8  1  0  0  0
  8  9  2  0  0  0
  9 10  1  0  0  0
 10 11  2  0  0  0
 10 12  1  0  0  0
 12  2  1  0  0  0
 20 15  1  0  0  0
  9  4  1  0  0  0
 28 22  1  0  0  0
 11 13  1  0  0  0
 12 14  1  0  0  0
M  END
> <minimizedAffinity>
11.31262

> <CNNscore>
0.4578450620

> <CNNaffinity>
7.4922819138

> <CNN_VS>
3.4303042889

> <CNNaffinity_variance>
1.9033199549

$$$$
[H]N=C1c2c([H])nc([H])nc2C([H])([H])[C@](c2c([H])c(-c3c([H])nc([H])c(Cl)c3[H])c([H])c([H])c2F)(C([H])([H])[H])N1[H]


 28 31  0  0  0  0  0  0  0  0999 V2000
    5.6670   48.4207  128.6799 C   0  0  0  0  0  0  0  0  0  0  0  0
    6.8215   48.5205  129.6300 C   0  0  0  0  0  0  0  0  0  0  0  0
    7.9240   49.2813  128.9348 C   0  0  0  0  0  0  0  0  0  0  0  0
    7.4821   50.6428  128.5770 C   0  0  0  0  0  0  0  0  0  0  0  0
    8.0037   51.2504  127.4922 N   0  0  0  0  0  0  0  0  0  0  0  0
    7.6479   52.4944  127.1274 C   0  0  0  0  0  0  0  0  0  0  0  0
    6.7398   53.1250  127.8912 N   0  0  0  0  0  0  0  0  0  0  0  0
    6.1869   52.5535  128.9922 C   0  0  0  0  0  0  0  0  0  0  0  0
    6.5541   51.2882  129.3560 C   0  0  0  0  0  0  0  0  0  0  0  0
    5.9618   50.6281  130.5390 C   0  0  0  0  0  0  0  0  0  0  0  0
    5.1093   51.2034  131.2770 N   0  0  0  0  0  0  0  0  0  0  0  0
    6.4214   49.3074  130.7898 N   0  0  0  0  0  0  0  0  0  0  0  0
    4.7025   52.1353  131.2134 H   0  0  0  0  0  0  0  0  0  0  0  0
    6.4522   48.9631  131.7725 H   0  0  0  0  0  0  0  0  0  0  0  0
    7.3360   47.1875  130.0371 C   0  0  0  0  0  0  0  0  0  0  0  0
    8.6761   46.9390  130.2356 C   0  0  0  0  0  0  0  0  0  0  0  0
    9.1357   45.6799  130.6132 C   0  0  0  0  0  0  0  0  0  0  0  0
    8.2036   44.6750  130.7859 C   0  0  0  0  0  0  0  0  0  0  0  0
    6.8378   44.8895  130.5940 C   0  0  0  0  0  0  0  0  0  0  0  0
    6.4397   46.1576  130.2200 C   0  0  0  0  0  0  0  0  0  0  0  0
    5.1132   46.4132  130.0216 F   0  0  0  0  0  0  0  0  0  0  0  0
   10.5474   45.3917  130.8277 C   0  0  0  0  0  0  0  0  0  0  0  0
   11.3330   44.9942  129.7692 C   0  0  0  0  0  0  0  0  0  0  0  0
   12.6513   44.7155  129.9368 N   0  0  0  0  0  0  0  0  0  0  0  0
   13.2615   44.8108  131.1361 C   0  0  0  0  0  0  0  0  0  0  0  0
   12.5087   45.2044  132.2132 C   0  0  0  0  0  0  0  0  0  0  0  0
   13.2815   45.3324  133.7721 Cl  0  0  0  0  0  0  0  0  0  0  0  0
   11.1506   45.4961  132.0636 C   0  0  0  0  0  0  0  0  0  0  0  0
  2  1  1  0  0  0
  2 15  1  0  0  0
 15 16  2  0  0  0
 16 17  1  0  0  0
 17 22  1  0  0  0
 22 23  2  0  0  0
 23 24  1  0  0  0
 24 25  2  0  0  0
 25 26  1  0  0  0
 26 27  1  0  0  0
 26 28  2  0  0  0
 17 18  2  0  0  0
 18 19  1  0  0  0
 19 20  2  0  0  0
 20 21  1  0  0  0
  2  3  1  0  0  0
  3  4  1  0  0  0
  4  5  2  0  0  0
  5  6  1  0  0  0
  6  7  2  0  0  0
  7  8  1  0  0  0
  8  9  2  0  0  0
  9 10  1  0  0  0
 10 11  2  0  0  0
 10 12  1  0  0  0
 12  2  1  0  0  0
 20 15  1  0  0  0
  9  4  1  0  0  0
 28 22  1  0  0  0
 11 13  1  0  0  0
 12 14  1  0  0  0
M  END
> <minimizedAffinity>
12.03072

> <CNNscore>
0.4374987781

> <CNNaffinity>
7.0561456680

> <CNN_VS>
3.0870552063

> <CNNaffinity_variance>
1.0820734501

$$$$
[H]N=C1c2c([H])nc([H])nc2C([H])([H])[C@](c2c([H])c(-c3c([H])nc([H])c(Cl)c3[H])c([H])c([H])c2F)(C([H])([H])[H])N1[H]


 28 31  0  0  0  0  0  0  0  0999 V2000
    9.5930   48.3820  129.7020 C   0  0  0  0  0  0  0  0  0  0  0  0
    8.2744   47.7945  130.1045 C   0  0  0  0  0  0  0  0  0  0  0  0
    7.5165   48.8499  130.8722 C   0  0  0  0  0  0  0  0  0  0  0  0
    7.2724   50.0396  130.0344 C   0  0  0  0  0  0  0  0  0  0  0  0
    7.1856   51.2555  130.6106 N   0  0  0  0  0  0  0  0  0  0  0  0
    6.9513   52.3711  129.8979 C   0  0  0  0  0  0  0  0  0  0  0  0
    6.8037   52.2343  128.5693 N   0  0  0  0  0  0  0  0  0  0  0  0
    6.8833   51.0310  127.9447 C   0  0  0  0  0  0  0  0  0  0  0  0
    7.1220   49.9017  128.6768 C   0  0  0  0  0  0  0  0  0  0  0  0
    7.2307   48.5769  128.0294 C   0  0  0  0  0  0  0  0  0  0  0  0
    7.0898   48.4219  126.7810 N   0  0  0  0  0  0  0  0  0  0  0  0
    7.4986   47.4931  128.9080 N   0  0  0  0  0  0  0  0  0  0  0  0
    6.8944   49.1029  126.0489 H   0  0  0  0  0  0  0  0  0  0  0  0
    7.1370   46.5468  128.6651 H   0  0  0  0  0  0  0  0  0  0  0  0
    8.4293   46.5908  130.9614 C   0  0  0  0  0  0  0  0  0  0  0  0
    9.5977   46.3033  131.6316 C   0  0  0  0  0  0  0  0  0  0  0  0
    9.7212   45.1664  132.4262 C   0  0  0  0  0  0  0  0  0  0  0  0
    8.6303   44.3247  132.5268 C   0  0  0  0  0  0  0  0  0  0  0  0
    7.4303   44.5835  131.8626 C   0  0  0  0  0  0  0  0  0  0  0  0
    7.3653   45.7252  131.0888 C   0  0  0  0  0  0  0  0  0  0  0  0
    6.2109   46.0187  130.4213 F   0  0  0  0  0  0  0  0  0  0  0  0
   10.9462   44.8396  133.1435 C   0  0  0  0  0  0  0  0  0  0  0  0
   11.3004   43.5219  133.3277 C   0  0  0  0  0  0  0  0  0  0  0  0
   12.4342   43.1844  133.9942 N   0  0  0  0  0  0  0  0  0  0  0  0
   13.2704   44.1095  134.5089 C   0  0  0  0  0  0  0  0  0  0  0  0
   12.9485   45.4328  134.3438 C   0  0  0  0  0  0  0  0  0  0  0  0
   14.0183   46.6427  135.0035 Cl  0  0  0  0  0  0  0  0  0  0  0  0
   11.7869   45.8026  133.6614 C   0  0  0  0  0  0  0  0  0  0  0  0
  2  1  1  0  0  0
  2 15  1  0  0  0
 15 16  2  0  0  0
 16 17  1  0  0  0
 17 22  1  0  0  0
 22 23  2  0  0  0
 23 24  1  0  0  0
 24 25  2  0  0  0
 25 26  1  0  0  0
 26 27  1  0  0  0
 26 28  2  0  0  0
 17 18  2  0  0  0
 18 19  1  0  0  0
 19 20  2  0  0  0
 20 21  1  0  0  0
  2  3  1  0  0  0
  3  4  1  0  0  0
  4  5  2  0  0  0
  5  6  1  0  0  0
  6  7  2  0  0  0
  7  8  1  0  0  0
  8  9  2  0  0  0
  9 10  1  0  0  0
 10 11  2  0  0  0
 10 12  1  0  0  0
 12  2  1  0  0  0
 20 15  1  0  0  0
  9  4  1  0  0  0
 28 22  1  0  0  0
 11 13  1  0  0  0
 12 14  1  0  0  0
M  END
> <minimizedAffinity>
6.83418

> <CNNscore>
0.4282105267

> <CNNaffinity>
7.4146866798

> <CNN_VS>
3.1750469208

> <CNNaffinity_variance>
1.7668749094

$$$$
[H]N=C1c2c([H])nc([H])nc2C([H])([H])[C@](c2c([H])c(-c3c([H])nc([H])c(Cl)c3[H])c([H])c([H])c2F)(C([H])([H])[H])N1[H]


 28 31  0  0  0  0  0  0  0  0999 V2000
    8.0988   47.8203  132.7144 C   0  0  0  0  0  0  0  0  0  0  0  0
    8.9475   47.6923  131.4860 C   0  0  0  0  0  0  0  0  0  0  0  0
    8.0232   47.5998  130.2967 C   0  0  0  0  0  0  0  0  0  0  0  0
    7.1922   48.8132  130.1776 C   0  0  0  0  0  0  0  0  0  0  0  0
    5.9608   48.7284  129.6351 N   0  0  0  0  0  0  0  0  0  0  0  0
    5.1663   49.8032  129.4897 C   0  0  0  0  0  0  0  0  0  0  0  0
    5.6463   50.9860  129.9096 N   0  0  0  0  0  0  0  0  0  0  0  0
    6.8796   51.1201  130.4623 C   0  0  0  0  0  0  0  0  0  0  0  0
    7.6809   50.0222  130.6065 C   0  0  0  0  0  0  0  0  0  0  0  0
    9.0228   50.1275  131.2181 C   0  0  0  0  0  0  0  0  0  0  0  0
    9.4990   51.2309  131.6158 N   0  0  0  0  0  0  0  0  0  0  0  0
    9.7392   48.9050  131.3218 N   0  0  0  0  0  0  0  0  0  0  0  0
    9.0989   52.1677  131.5976 H   0  0  0  0  0  0  0  0  0  0  0  0
   10.7798   48.9259  131.2775 H   0  0  0  0  0  0  0  0  0  0  0  0
    9.8139   46.4859  131.5202 C   0  0  0  0  0  0  0  0  0  0  0  0
    9.6436   45.4261  130.6572 C   0  0  0  0  0  0  0  0  0  0  0  0
   10.4657   44.3034  130.7106 C   0  0  0  0  0  0  0  0  0  0  0  0
   11.4678   44.2789  131.6613 C   0  0  0  0  0  0  0  0  0  0  0  0
   11.6706   45.3339  132.5523 C   0  0  0  0  0  0  0  0  0  0  0  0
   10.8253   46.4212  132.4533 C   0  0  0  0  0  0  0  0  0  0  0  0
   10.9870   47.4766  133.3043 F   0  0  0  0  0  0  0  0  0  0  0  0
   10.3050   43.1696  129.8103 C   0  0  0  0  0  0  0  0  0  0  0  0
   10.2367   43.3794  128.4512 C   0  0  0  0  0  0  0  0  0  0  0  0
   10.0843   42.3441  127.5860 N   0  0  0  0  0  0  0  0  0  0  0  0
    9.9921   41.0643  128.0023 C   0  0  0  0  0  0  0  0  0  0  0  0
   10.0564   40.8184  129.3504 C   0  0  0  0  0  0  0  0  0  0  0  0
    9.9381   39.1690  129.9065 Cl  0  0  0  0  0  0  0  0  0  0  0  0
   10.2129   41.8684  130.2585 C   0  0  0  0  0  0  0  0  0  0  0  0
  2  1  1  0  0  0
  2 15  1  0  0  0
 15 16  2  0  0  0
 16 17  1  0  0  0
 17 22  1  0  0  0
 22 23  2  0  0  0
 23 24  1  0  0  0
 24 25  2  0  0  0
 25 26  1  0  0  0
 26 27  1  0  0  0
 26 28  2  0  0  0
 17 18  2  0  0  0
 18 19  1  0  0  0
 19 20  2  0  0  0
 20 21  1  0  0  0
  2  3  1  0  0  0
  3  4  1  0  0  0
  4  5  2  0  0  0
  5  6  1  0  0  0
  6  7  2  0  0  0
  7  8  1  0  0  0
  8  9  2  0  0  0
  9 10  1  0  0  0
 10 11  2  0  0  0
 10 12  1  0  0  0
 12  2  1  0  0  0
 20 15  1  0  0  0
  9  4  1  0  0  0
 28 22  1  0  0  0
 11 13  1  0  0  0
 12 14  1  0  0  0
M  END
> <minimizedAffinity>
9.24076

> <CNNscore>
0.4099287391

> <CNNaffinity>
7.4482917786

> <CNN_VS>
3.0532689095

> <CNNaffinity_variance>
1.0949475765

$$$$
[H]N=C1c2c([H])nc([H])nc2C([H])([H])[C@](c2c([H])c(-c3c([H])nc([H])c(Cl)c3[H])c([H])c([H])c2F)(C([H])([H])[H])N1[H]


 28 31  0  0  0  0  0  0  0  0999 V2000
    7.4195   48.9105  132.7294 C   0  0  0  0  0  0  0  0  0  0  0  0
    8.4941   48.5394  131.7531 C   0  0  0  0  0  0  0  0  0  0  0  0
    7.8679   47.6728  130.6881 C   0  0  0  0  0  0  0  0  0  0  0  0
    6.8040   48.4019  129.9715 C   0  0  0  0  0  0  0  0  0  0  0  0
    5.7594   47.7225  129.4566 N   0  0  0  0  0  0  0  0  0  0  0  0
    4.7691   48.3335  128.7832 C   0  0  0  0  0  0  0  0  0  0  0  0
    4.8543   49.6665  128.6365 N   0  0  0  0  0  0  0  0  0  0  0  0
    5.8866   50.3929  129.1376 C   0  0  0  0  0  0  0  0  0  0  0  0
    6.8892   49.7638  129.8213 C   0  0  0  0  0  0  0  0  0  0  0  0
    8.0205   50.5238  130.3945 C   0  0  0  0  0  0  0  0  0  0  0  0
    8.1258   51.7786  130.2647 N   0  0  0  0  0  0  0  0  0  0  0  0
    8.9808   49.7454  131.0947 N   0  0  0  0  0  0  0  0  0  0  0  0
    7.5196   52.4466  129.7912 H   0  0  0  0  0  0  0  0  0  0  0  0
    9.9730   50.0627  131.1086 H   0  0  0  0  0  0  0  0  0  0  0  0
    9.6064   47.7912  132.3934 C   0  0  0  0  0  0  0  0  0  0  0  0
    9.8640   46.4665  132.1181 C   0  0  0  0  0  0  0  0  0  0  0  0
   10.9101   45.7841  132.7339 C   0  0  0  0  0  0  0  0  0  0  0  0
   11.6920   46.4768  133.6380 C   0  0  0  0  0  0  0  0  0  0  0  0
   11.4613   47.8194  133.9420 C   0  0  0  0  0  0  0  0  0  0  0  0
   10.4102   48.4448  133.3013 C   0  0  0  0  0  0  0  0  0  0  0  0
   10.1478   49.7581  133.5676 F   0  0  0  0  0  0  0  0  0  0  0  0
   11.2018   44.3833  132.4607 C   0  0  0  0  0  0  0  0  0  0  0  0
   12.2865   43.7813  133.0579 C   0  0  0  0  0  0  0  0  0  0  0  0
   12.5868   42.4784  132.8217 N   0  0  0  0  0  0  0  0  0  0  0  0
   11.8485   41.7063  131.9979 C   0  0  0  0  0  0  0  0  0  0  0  0
   10.7599   42.2737  131.3857 C   0  0  0  0  0  0  0  0  0  0  0  0
    9.7942   41.2900  130.3165 Cl  0  0  0  0  0  0  0  0  0  0  0  0
   10.4326   43.6125  131.6143 C   0  0  0  0  0  0  0  0  0  0  0  0
  2  1  1  0  0  0
  2 15  1  0  0  0
 15 16  2  0  0  0
 16 17  1  0  0  0
 17 22  1  0  0  0
 22 23  2  0  0  0
 23 24  1  0  0  0
 24 25  2  0  0  0
 25 26  1  0  0  0
 26 27  1  0  0  0
 26 28  2  0  0  0
 17 18  2  0  0  0
 18 19  1  0  0  0
 19 20  2  0  0  0
 20 21  1  0  0  0
  2  3  1  0  0  0
  3  4  1  0  0  0
  4  5  2  0  0  0
  5  6  1  0  0  0
  6  7  2  0  0  0
  7  8  1  0  0  0
  8  9  2  0  0  0
  9 10  1  0  0  0
 10 11  2  0  0  0
 10 12  1  0  0  0
 12  2  1  0  0  0
 20 15  1  0  0  0
  9  4  1  0  0  0
 28 22  1  0  0  0
 11 13  1  0  0  0
 12 14  1  0  0  0
M  END
> <minimizedAffinity>
6.28115

> <CNNscore>
0.3991044760

> <CNNaffinity>
7.3778228760

> <CNN_VS>
2.9445221424

> <CNNaffinity_variance>
0.8769073486

$$$$
[H]N=C1c2c([H])nc([H])nc2C([H])([H])[C@](c2c([H])c(-c3c([H])nc([H])c(Cl)c3[H])c([H])c([H])c2F)(C([H])([H])[H])N1[H]


 28 31  0  0  0  0  0  0  0  0999 V2000
   11.9674   45.7335  131.0309 C   0  0  0  0  0  0  0  0  0  0  0  0
   10.5993   45.6151  131.6311 C   0  0  0  0  0  0  0  0  0  0  0  0
   10.5555   44.3323  132.4249 C   0  0  0  0  0  0  0  0  0  0  0  0
   11.5530   44.3492  133.5119 C   0  0  0  0  0  0  0  0  0  0  0  0
   12.1051   43.1921  133.9292 N   0  0  0  0  0  0  0  0  0  0  0  0
   13.0084   43.1470  134.9240 C   0  0  0  0  0  0  0  0  0  0  0  0
   13.3501   44.3120  135.4998 N   0  0  0  0  0  0  0  0  0  0  0  0
   12.8212   45.5017  135.1132 C   0  0  0  0  0  0  0  0  0  0  0  0
   11.9036   45.5387  134.1009 C   0  0  0  0  0  0  0  0  0  0  0  0
   11.3184   46.8168  133.6427 C   0  0  0  0  0  0  0  0  0  0  0  0
   11.6200   47.9260  134.1729 N   0  0  0  0  0  0  0  0  0  0  0  0
   10.3919   46.7096  132.5711 N   0  0  0  0  0  0  0  0  0  0  0  0
   12.2568   48.1404  134.9387 H   0  0  0  0  0  0  0  0  0  0  0  0
    9.6184   47.4041  132.5028 H   0  0  0  0  0  0  0  0  0  0  0  0
    9.5302   45.5828  130.6001 C   0  0  0  0  0  0  0  0  0  0  0  0
    8.4592   46.4487  130.6153 C   0  0  0  0  0  0  0  0  0  0  0  0
    7.4663   46.3970  129.6403 C   0  0  0  0  0  0  0  0  0  0  0  0
    7.5837   45.4450  128.6460 C   0  0  0  0  0  0  0  0  0  0  0  0
    8.6546   44.5512  128.5980 C   0  0  0  0  0  0  0  0  0  0  0  0
    9.6091   44.6485  129.5909 C   0  0  0  0  0  0  0  0  0  0  0  0
   10.6746   43.7947  129.5835 F   0  0  0  0  0  0  0  0  0  0  0  0
    6.3236   47.3003  129.6353 C   0  0  0  0  0  0  0  0  0  0  0  0
    6.5205   48.6517  129.4603 C   0  0  0  0  0  0  0  0  0  0  0  0
    5.4767   49.5201  129.4536 N   0  0  0  0  0  0  0  0  0  0  0  0
    4.2004   49.1144  129.6159 C   0  0  0  0  0  0  0  0  0  0  0  0
    3.9672   47.7742  129.7928 C   0  0  0  0  0  0  0  0  0  0  0  0
    2.3227   47.2319  130.0049 Cl  0  0  0  0  0  0  0  0  0  0  0  0
    5.0263   46.8631  129.8031 C   0  0  0  0  0  0  0  0  0  0  0  0
  2  1  1  0  0  0
  2 15  1  0  0  0
 15 16  2  0  0  0
 16 17  1  0  0  0
 17 22  1  0  0  0
 22 23  2  0  0  0
 23 24  1  0  0  0
 24 25  2  0  0  0
 25 26  1  0  0  0
 26 27  1  0  0  0
 26 28  2  0  0  0
 17 18  2  0  0  0
 18 19  1  0  0  0
 19 20  2  0  0  0
 20 21  1  0  0  0
  2  3  1  0  0  0
  3  4  1  0  0  0
  4  5  2  0  0  0
  5  6  1  0  0  0
  6  7  2  0  0  0
  7  8  1  0  0  0
  8  9  2  0  0  0
  9 10  1  0  0  0
 10 11  2  0  0  0
 10 12  1  0  0  0
 12  2  1  0  0  0
 20 15  1  0  0  0
  9  4  1  0  0  0
 28 22  1  0  0  0
 11 13  1  0  0  0
 12 14  1  0  0  0
M  END
> <minimizedAffinity>
14.68564

> <CNNscore>
0.3740135729

> <CNNaffinity>
7.2459664345

> <CNN_VS>
2.7100896835

> <CNNaffinity_variance>
1.2649618387

$$$$
[H]N=C1c2c([H])nc([H])nc2C([H])([H])[C@](c2c([H])c(-c3c([H])nc([H])c(Cl)c3[H])c([H])c([H])c2F)(C([H])([H])[H])N1[H]


 28 31  0  0  0  0  0  0  0  0999 V2000
   10.5748   48.3210  128.8336 C   0  0  0  0  0  0  0  0  0  0  0  0
    9.6070   47.4310  129.5527 C   0  0  0  0  0  0  0  0  0  0  0  0
    9.6702   47.7751  131.0207 C   0  0  0  0  0  0  0  0  0  0  0  0
    9.2863   49.1810  131.2509 C   0  0  0  0  0  0  0  0  0  0  0  0
    9.8174   49.8564  132.2900 N   0  0  0  0  0  0  0  0  0  0  0  0
    9.4935   51.1342  132.5547 C   0  0  0  0  0  0  0  0  0  0  0  0
    8.6081   51.7280  131.7368 N   0  0  0  0  0  0  0  0  0  0  0  0
    8.0473   51.0883  130.6780 C   0  0  0  0  0  0  0  0  0  0  0  0
    8.3823   49.7893  130.4158 C   0  0  0  0  0  0  0  0  0  0  0  0
    7.8042   49.0661  129.2631 C   0  0  0  0  0  0  0  0  0  0  0  0
    6.9643   49.6019  128.4821 N   0  0  0  0  0  0  0  0  0  0  0  0
    8.2541   47.7286  129.0992 N   0  0  0  0  0  0  0  0  0  0  0  0
    6.5602   50.5371  128.4879 H   0  0  0  0  0  0  0  0  0  0  0  0
    7.6113   47.0301  128.6699 H   0  0  0  0  0  0  0  0  0  0  0  0
    9.9268   45.9906  129.3793 C   0  0  0  0  0  0  0  0  0  0  0  0
    9.9477   45.1038  130.4329 C   0  0  0  0  0  0  0  0  0  0  0  0
   10.2545   43.7582  130.2469 C   0  0  0  0  0  0  0  0  0  0  0  0
   10.5403   43.3302  128.9649 C   0  0  0  0  0  0  0  0  0  0  0  0
   10.5287   44.1995  127.8730 C   0  0  0  0  0  0  0  0  0  0  0  0
   10.2179   45.5225  128.1169 C   0  0  0  0  0  0  0  0  0  0  0  0
   10.1942   46.4087  127.0783 F   0  0  0  0  0  0  0  0  0  0  0  0
   10.2846   42.8013  131.3448 C   0  0  0  0  0  0  0  0  0  0  0  0
    9.6562   43.1023  132.5323 C   0  0  0  0  0  0  0  0  0  0  0  0
    9.6684   42.2331  133.5752 N   0  0  0  0  0  0  0  0  0  0  0  0
   10.2896   41.0374  133.5099 C   0  0  0  0  0  0  0  0  0  0  0  0
   10.9262   40.7044  132.3412 C   0  0  0  0  0  0  0  0  0  0  0  0
   11.7353   39.1621  132.2393 Cl  0  0  0  0  0  0  0  0  0  0  0  0
   10.9262   41.5836  131.2555 C   0  0  0  0  0  0  0  0  0  0  0  0
  2  1  1  0  0  0
  2 15  1  0  0  0
 15 16  2  0  0  0
 16 17  1  0  0  0
 17 22  1  0  0  0
 22 23  2  0  0  0
 23 24  1  0  0  0
 24 25  2  0  0  0
 25 26  1  0  0  0
 26 27  1  0  0  0
 26 28  2  0  0  0
 17 18  2  0  0  0
 18 19  1  0  0  0
 19 20  2  0  0  0
 20 21  1  0  0  0
  2  3  1  0  0  0
  3  4  1  0  0  0
  4  5  2  0  0  0
  5  6  1  0  0  0
  6  7  2  0  0  0
  7  8  1  0  0  0
  8  9  2  0  0  0
  9 10  1  0  0  0
 10 11  2  0  0  0
 10 12  1  0  0  0
 12  2  1  0  0  0
 20 15  1  0  0  0
  9  4  1  0  0  0
 28 22  1  0  0  0
 11 13  1  0  0  0
 12 14  1  0  0  0
M  END
> <minimizedAffinity>
12.00052

> <CNNscore>
0.3689504266

> <CNNaffinity>
7.1957292557

> <CNN_VS>
2.6548674107

> <CNNaffinity_variance>
0.9352327585

$$$$
[H]N=C1c2c([H])nc([H])nc2C([H])([H])[C@](c2c([H])c(-c3c([H])nc([H])c(Cl)c3[H])c([H])c([H])c2F)(C([H])([H])[H])N1[H]


 28 31  0  0  0  0  0  0  0  0999 V2000
    8.0115   48.2226  133.2378 C   0  0  0  0  0  0  0  0  0  0  0  0
    9.1110   47.9674  132.2521 C   0  0  0  0  0  0  0  0  0  0  0  0
    8.4755   47.4962  130.9669 C   0  0  0  0  0  0  0  0  0  0  0  0
    7.5711   48.5240  130.4167 C   0  0  0  0  0  0  0  0  0  0  0  0
    6.4986   48.1497  129.6904 N   0  0  0  0  0  0  0  0  0  0  0  0
    5.6491   49.0432  129.1542 C   0  0  0  0  0  0  0  0  0  0  0  0
    5.9069   50.3445  129.3685 N   0  0  0  0  0  0  0  0  0  0  0  0
    6.9741   50.7689  130.0934 C   0  0  0  0  0  0  0  0  0  0  0  0
    7.8327   49.8538  130.6352 C   0  0  0  0  0  0  0  0  0  0  0  0
    8.9958   50.2783  131.4432 C   0  0  0  0  0  0  0  0  0  0  0  0
    9.2626   51.4976  131.6541 N   0  0  0  0  0  0  0  0  0  0  0  0
    9.7931   49.2219  131.9595 N   0  0  0  0  0  0  0  0  0  0  0  0
    8.7833   52.3416  131.3445 H   0  0  0  0  0  0  0  0  0  0  0  0
   10.8117   49.3846  132.1052 H   0  0  0  0  0  0  0  0  0  0  0  0
   10.0672   46.9341  132.7262 C   0  0  0  0  0  0  0  0  0  0  0  0
   10.0587   45.6418  132.2498 C   0  0  0  0  0  0  0  0  0  0  0  0
   10.9625   44.6886  132.7122 C   0  0  0  0  0  0  0  0  0  0  0  0
   11.8783   45.0759  133.6714 C   0  0  0  0  0  0  0  0  0  0  0  0
   11.9171   46.3760  134.1775 C   0  0  0  0  0  0  0  0  0  0  0  0
   10.9970   47.2788  133.6824 C   0  0  0  0  0  0  0  0  0  0  0  0
   10.9984   48.5622  134.1485 F   0  0  0  0  0  0  0  0  0  0  0  0
   10.9728   43.3157  132.2254 C   0  0  0  0  0  0  0  0  0  0  0  0
   11.8428   42.4013  132.7754 C   0  0  0  0  0  0  0  0  0  0  0  0
   11.8788   41.1151  132.3419 N   0  0  0  0  0  0  0  0  0  0  0  0
   11.0736   40.6629  131.3585 C   0  0  0  0  0  0  0  0  0  0  0  0
   10.1938   41.5472  130.7877 C   0  0  0  0  0  0  0  0  0  0  0  0
    9.1453   40.9797  129.5140 Cl  0  0  0  0  0  0  0  0  0  0  0  0
   10.1398   42.8752  131.2182 C   0  0  0  0  0  0  0  0  0  0  0  0
  2  1  1  0  0  0
  2 15  1  0  0  0
 15 16  2  0  0  0
 16 17  1  0  0  0
 17 22  1  0  0  0
 22 23  2  0  0  0
 23 24  1  0  0  0
 24 25  2  0  0  0
 25 26  1  0  0  0
 26 27  1  0  0  0
 26 28  2  0  0  0
 17 18  2  0  0  0
 18 19  1  0  0  0
 19 20  2  0  0  0
 20 21  1  0  0  0
  2  3  1  0  0  0
  3  4  1  0  0  0
  4  5  2  0  0  0
  5  6  1  0  0  0
  6  7  2  0  0  0
  7  8  1  0  0  0
  8  9  2  0  0  0
  9 10  1  0  0  0
 10 11  2  0  0  0
 10 12  1  0  0  0
 12  2  1  0  0  0
 20 15  1  0  0  0
  9  4  1  0  0  0
 28 22  1  0  0  0
 11 13  1  0  0  0
 12 14  1  0  0  0
M  END
> <minimizedAffinity>
4.93777

> <CNNscore>
0.3642025292

> <CNNaffinity>
7.5520415306

> <CNN_VS>
2.7504725456

> <CNNaffinity_variance>
1.0913465023

$$$$
[H]/C(C(=O)/C([H])=C(\[H])c1c([H])c([H])c(F)c([H])c1[H])=C(/[H])c1c([H])c([H])c(F)c([H])c1[H]


 20 21  0  0  0  0  0  0  0  0999 V2000
    9.8386   45.5079  127.4931 O   0  0  0  0  0  0  0  0  0  0  0  0
   10.0511   44.4537  128.2677 C   0  0  0  0  0  0  0  0  0  0  0  0
    9.9467   44.7578  129.6417 C   0  0  0  0  0  0  0  0  0  0  0  0
    8.9393   44.9330  130.4404 C   0  0  0  0  0  0  0  0  0  0  0  0
    9.0750   45.2515  131.8771 C   0  0  0  0  0  0  0  0  0  0  0  0
    9.7720   46.4186  132.2175 C   0  0  0  0  0  0  0  0  0  0  0  0
    9.9577   46.8100  133.5182 C   0  0  0  0  0  0  0  0  0  0  0  0
    9.4476   46.0393  134.5204 C   0  0  0  0  0  0  0  0  0  0  0  0
    9.6286   46.4232  135.8199 F   0  0  0  0  0  0  0  0  0  0  0  0
    8.7593   44.8878  134.1964 C   0  0  0  0  0  0  0  0  0  0  0  0
    8.5749   44.4967  132.8728 C   0  0  0  0  0  0  0  0  0  0  0  0
   10.3300   43.2818  127.5462 C   0  0  0  0  0  0  0  0  0  0  0  0
    9.9981   42.0522  127.7862 C   0  0  0  0  0  0  0  0  0  0  0  0
   10.4017   40.9619  126.8851 C   0  0  0  0  0  0  0  0  0  0  0  0
   11.6637   40.7072  126.4733 C   0  0  0  0  0  0  0  0  0  0  0  0
   11.9968   39.6533  125.6120 C   0  0  0  0  0  0  0  0  0  0  0  0
   11.0063   38.8257  125.1516 C   0  0  0  0  0  0  0  0  0  0  0  0
   11.2536   37.7883  124.3176 F   0  0  0  0  0  0  0  0  0  0  0  0
    9.7023   39.0747  125.5663 C   0  0  0  0  0  0  0  0  0  0  0  0
    9.3956   40.1058  126.4055 C   0  0  0  0  0  0  0  0  0  0  0  0
  1  2  2  0  0  0
  2  3  1  0  0  0
  3  4  2  0  0  0
  4  5  1  0  0  0
  5  6  2  0  0  0
  6  7  1  0  0  0
  7  8  2  0  0  0
  8  9  1  0  0  0
  8 10  1  0  0  0
 10 11  2  0  0  0
  2 12  1  0  0  0
 12 13  2  0  0  0
 13 14  1  0  0  0
 14 15  2  0  0  0
 15 16  1  0  0  0
 16 17  2  0  0  0
 17 18  1  0  0  0
 17 19  1  0  0  0
 19 20  2  0  0  0
 11  5  1  0  0  0
 20 14  1  0  0  0
M  END
> <minimizedAffinity>
17.48289

> <CNNscore>
0.5424957275

> <CNNaffinity>
6.0782208443

> <CNN_VS>
3.2974088192

> <CNNaffinity_variance>
0.9344066381

$$$$
[H]/C(C(=O)/C([H])=C(\[H])c1c([H])c([H])c(F)c([H])c1[H])=C(/[H])c1c([H])c([H])c(F)c([H])c1[H]


 20 21  0  0  0  0  0  0  0  0999 V2000
    9.4592   46.4864  128.0575 O   0  0  0  0  0  0  0  0  0  0  0  0
    9.6728   46.2890  129.3505 C   0  0  0  0  0  0  0  0  0  0  0  0
    9.5993   47.4807  130.1026 C   0  0  0  0  0  0  0  0  0  0  0  0
    9.8657   47.7708  131.3388 C   0  0  0  0  0  0  0  0  0  0  0  0
    9.7089   49.1210  131.9185 C   0  0  0  0  0  0  0  0  0  0  0  0
   10.2482   49.3443  133.1926 C   0  0  0  0  0  0  0  0  0  0  0  0
   10.1607   50.5576  133.8247 C   0  0  0  0  0  0  0  0  0  0  0  0
    9.5270   51.5876  133.1952 C   0  0  0  0  0  0  0  0  0  0  0  0
    9.4358   52.8005  133.8192 F   0  0  0  0  0  0  0  0  0  0  0  0
    8.9923   51.3788  131.9401 C   0  0  0  0  0  0  0  0  0  0  0  0
    9.0851   50.1434  131.3044 C   0  0  0  0  0  0  0  0  0  0  0  0
    9.9220   44.9453  129.6733 C   0  0  0  0  0  0  0  0  0  0  0  0
   10.1762   44.3928  130.8177 C   0  0  0  0  0  0  0  0  0  0  0  0
   10.4097   42.9450  130.9322 C   0  0  0  0  0  0  0  0  0  0  0  0
    9.9119   41.9994  130.1045 C   0  0  0  0  0  0  0  0  0  0  0  0
   10.1647   40.6296  130.2569 C   0  0  0  0  0  0  0  0  0  0  0  0
   10.9553   40.2053  131.2927 C   0  0  0  0  0  0  0  0  0  0  0  0
   11.2422   38.8988  131.5017 F   0  0  0  0  0  0  0  0  0  0  0  0
   11.4751   41.1663  132.1532 C   0  0  0  0  0  0  0  0  0  0  0  0
   11.2188   42.4964  131.9901 C   0  0  0  0  0  0  0  0  0  0  0  0
  1  2  2  0  0  0
  2  3  1  0  0  0
  3  4  2  0  0  0
  4  5  1  0  0  0
  5  6  2  0  0  0
  6  7  1  0  0  0
  7  8  2  0  0  0
  8  9  1  0  0  0
  8 10  1  0  0  0
 10 11  2  0  0  0
  2 12  1  0  0  0
 12 13  2  0  0  0
 13 14  1  0  0  0
 14 15  2  0  0  0
 15 16  1  0  0  0
 16 17  2  0  0  0
 17 18  1  0  0  0
 17 19  1  0  0  0
 19 20  2  0  0  0
 11  5  1  0  0  0
 20 14  1  0  0  0
M  END
> <minimizedAffinity>
11.35050

> <CNNscore>
0.5159315467

> <CNNaffinity>
6.6652631760

> <CNN_VS>
3.4388196468

> <CNNaffinity_variance>
3.7814135551

$$$$
[H]/C(C(=O)/C([H])=C(\[H])c1c([H])c([H])c(F)c([H])c1[H])=C(/[H])c1c([H])c([H])c(F)c([H])c1[H]


 20 21  0  0  0  0  0  0  0  0999 V2000
    9.0437   46.2115  133.3427 O   0  0  0  0  0  0  0  0  0  0  0  0
    9.1981   46.3907  132.0387 C   0  0  0  0  0  0  0  0  0  0  0  0
   10.3945   45.8246  131.5492 C   0  0  0  0  0  0  0  0  0  0  0  0
   10.7115   45.2387  130.4359 C   0  0  0  0  0  0  0  0  0  0  0  0
   12.0603   44.7131  130.1386 C   0  0  0  0  0  0  0  0  0  0  0  0
   12.5244   44.8312  128.8215 C   0  0  0  0  0  0  0  0  0  0  0  0
   13.7591   44.3784  128.4347 C   0  0  0  0  0  0  0  0  0  0  0  0
   14.5688   43.7911  129.3611 C   0  0  0  0  0  0  0  0  0  0  0  0
   15.8015   43.3371  128.9829 F   0  0  0  0  0  0  0  0  0  0  0  0
   14.1218   43.6698  130.6612 C   0  0  0  0  0  0  0  0  0  0  0  0
   12.8661   44.1321  131.0466 C   0  0  0  0  0  0  0  0  0  0  0  0
    8.1405   47.0996  131.4465 C   0  0  0  0  0  0  0  0  0  0  0  0
    8.1579   48.0298  130.5442 C   0  0  0  0  0  0  0  0  0  0  0  0
    6.9140   48.6463  130.0582 C   0  0  0  0  0  0  0  0  0  0  0  0
    5.9182   48.0033  129.4085 C   0  0  0  0  0  0  0  0  0  0  0  0
    4.7503   48.6377  128.9648 C   0  0  0  0  0  0  0  0  0  0  0  0
    4.5893   49.9796  129.1914 C   0  0  0  0  0  0  0  0  0  0  0  0
    3.4882   50.6584  128.7916 F   0  0  0  0  0  0  0  0  0  0  0  0
    5.6051   50.6555  129.8588 C   0  0  0  0  0  0  0  0  0  0  0  0
    6.7362   50.0220  130.2840 C   0  0  0  0  0  0  0  0  0  0  0  0
  1  2  2  0  0  0
  2  3  1  0  0  0
  3  4  2  0  0  0
  4  5  1  0  0  0
  5  6  2  0  0  0
  6  7  1  0  0  0
  7  8  2  0  0  0
  8  9  1  0  0  0
  8 10  1  0  0  0
 10 11  2  0  0  0
  2 12  1  0  0  0
 12 13  2  0  0  0
 13 14  1  0  0  0
 14 15  2  0  0  0
 15 16  1  0  0  0
 16 17  2  0  0  0
 17 18  1  0  0  0
 17 19  1  0  0  0
 19 20  2  0  0  0
 11  5  1  0  0  0
 20 14  1  0  0  0
M  END
> <minimizedAffinity>
3.78284

> <CNNscore>
0.4656524360

> <CNNaffinity>
6.2578520775

> <CNN_VS>
2.9139840603

> <CNNaffinity_variance>
1.7431094646

$$$$
[H]/C(C(=O)/C([H])=C(\[H])c1c([H])c([H])c(F)c([H])c1[H])=C(/[H])c1c([H])c([H])c(F)c([H])c1[H]


 20 21  0  0  0  0  0  0  0  0999 V2000
    9.1829   47.9039  134.3139 O   0  0  0  0  0  0  0  0  0  0  0  0
    9.1804   47.4817  133.0577 C   0  0  0  0  0  0  0  0  0  0  0  0
    8.6964   48.4546  132.1574 C   0  0  0  0  0  0  0  0  0  0  0  0
    7.9285   48.3970  131.1131 C   0  0  0  0  0  0  0  0  0  0  0  0
    7.5482   49.5754  130.3065 C   0  0  0  0  0  0  0  0  0  0  0  0
    7.7789   49.5154  128.9255 C   0  0  0  0  0  0  0  0  0  0  0  0
    7.4649   50.5501  128.0829 C   0  0  0  0  0  0  0  0  0  0  0  0
    6.9078   51.6808  128.6023 C   0  0  0  0  0  0  0  0  0  0  0  0
    6.5920   52.7169  127.7683 F   0  0  0  0  0  0  0  0  0  0  0  0
    6.6762   51.7507  129.9610 C   0  0  0  0  0  0  0  0  0  0  0  0
    6.9979   50.6954  130.8107 C   0  0  0  0  0  0  0  0  0  0  0  0
    9.6579   46.1693  132.9120 C   0  0  0  0  0  0  0  0  0  0  0  0
   10.1978   45.5837  131.8896 C   0  0  0  0  0  0  0  0  0  0  0  0
   10.6330   44.1801  131.9547 C   0  0  0  0  0  0  0  0  0  0  0  0
   11.7406   43.7276  132.5836 C   0  0  0  0  0  0  0  0  0  0  0  0
   12.1122   42.3770  132.6165 C   0  0  0  0  0  0  0  0  0  0  0  0
   11.3253   41.4500  131.9844 C   0  0  0  0  0  0  0  0  0  0  0  0
   11.6217   40.1290  131.9744 F   0  0  0  0  0  0  0  0  0  0  0  0
   10.1820   41.8999  131.3327 C   0  0  0  0  0  0  0  0  0  0  0  0
    9.8350   43.2192  131.3105 C   0  0  0  0  0  0  0  0  0  0  0  0
  1  2  2  0  0  0
  2  3  1  0  0  0
  3  4  2  0  0  0
  4  5  1  0  0  0
  5  6  2  0  0  0
  6  7  1  0  0  0
  7  8  2  0  0  0
  8  9  1  0  0  0
  8 10  1  0  0  0
 10 11  2  0  0  0
  2 12  1  0  0  0
 12 13  2  0  0  0
 13 14  1  0  0  0
 14 15  2  0  0  0
 15 16  1  0  0  0
 16 17  2  0  0  0
 17 18  1  0  0  0
 17 19  1  0  0  0
 19 20  2  0  0  0
 11  5  1  0  0  0
 20 14  1  0  0  0
M  END
> <minimizedAffinity>
0.32984

> <CNNscore>
0.4628484249

> <CNNaffinity>
6.3931913376

> <CNN_VS>
2.9590785503

> <CNNaffinity_variance>
1.4197415113

$$$$
[H]/C(C(=O)/C([H])=C(\[H])c1c([H])c([H])c(F)c([H])c1[H])=C(/[H])c1c([H])c([H])c(F)c([H])c1[H]


 20 21  0  0  0  0  0  0  0  0999 V2000
    9.2412   47.9360  134.2962 O   0  0  0  0  0  0  0  0  0  0  0  0
    9.2253   47.5292  133.0350 C   0  0  0  0  0  0  0  0  0  0  0  0
    9.7006   46.2093  132.8826 C   0  0  0  0  0  0  0  0  0  0  0  0
   10.3016   45.5857  131.9165 C   0  0  0  0  0  0  0  0  0  0  0  0
   10.7146   44.1684  131.9842 C   0  0  0  0  0  0  0  0  0  0  0  0
    9.9051   43.2273  131.3338 C   0  0  0  0  0  0  0  0  0  0  0  0
   10.1933   41.8871  131.3321 C   0  0  0  0  0  0  0  0  0  0  0  0
   11.3067   41.4488  131.9855 C   0  0  0  0  0  0  0  0  0  0  0  0
   11.6007   40.1137  131.9883 F   0  0  0  0  0  0  0  0  0  0  0  0
   12.1110   42.3670  132.6294 C   0  0  0  0  0  0  0  0  0  0  0  0
   11.8117   43.7269  132.6267 C   0  0  0  0  0  0  0  0  0  0  0  0
    8.7414   48.5008  132.1442 C   0  0  0  0  0  0  0  0  0  0  0  0
    7.9478   48.3821  131.1265 C   0  0  0  0  0  0  0  0  0  0  0  0
    7.5634   49.5486  130.3170 C   0  0  0  0  0  0  0  0  0  0  0  0
    6.9940   50.6805  130.7878 C   0  0  0  0  0  0  0  0  0  0  0  0
    6.6460   51.7660  129.9730 C   0  0  0  0  0  0  0  0  0  0  0  0
    6.8870   51.6969  128.6257 C   0  0  0  0  0  0  0  0  0  0  0  0
    6.5774   52.7063  127.7781 F   0  0  0  0  0  0  0  0  0  0  0  0
    7.4725   50.5387  128.1258 C   0  0  0  0  0  0  0  0  0  0  0  0
    7.8051   49.4908  128.9337 C   0  0  0  0  0  0  0  0  0  0  0  0
  1  2  2  0  0  0
  2  3  1  0  0  0
  3  4  2  0  0  0
  4  5  1  0  0  0
  5  6  2  0  0  0
  6  7  1  0  0  0
  7  8  2  0  0  0
  8  9  1  0  0  0
  8 10  1  0  0  0
 10 11  2  0  0  0
  2 12  1  0  0  0
 12 13  2  0  0  0
 13 14  1  0  0  0
 14 15  2  0  0  0
 15 16  1  0  0  0
 16 17  2  0  0  0
 17 18  1  0  0  0
 17 19  1  0  0  0
 19 20  2  0  0  0
 11  5  1  0  0  0
 20 14  1  0  0  0
M  END
> <minimizedAffinity>
0.22843

> <CNNscore>
0.4620254338

> <CNNaffinity>
6.3855919838

> <CNN_VS>
2.9503059387

> <CNNaffinity_variance>
1.3959658146

$$$$
[H]/C(C(=O)/C([H])=C(\[H])c1c([H])c([H])c(F)c([H])c1[H])=C(/[H])c1c([H])c([H])c(F)c([H])c1[H]


 20 21  0  0  0  0  0  0  0  0999 V2000
    8.3916   44.6250  129.3396 O   0  0  0  0  0  0  0  0  0  0  0  0
    8.7081   45.5800  130.2023 C   0  0  0  0  0  0  0  0  0  0  0  0
    9.3502   45.0809  131.3555 C   0  0  0  0  0  0  0  0  0  0  0  0
   10.4236   45.4274  131.9968 C   0  0  0  0  0  0  0  0  0  0  0  0
   10.9139   44.7408  133.2101 C   0  0  0  0  0  0  0  0  0  0  0  0
   10.1415   44.8543  134.3739 C   0  0  0  0  0  0  0  0  0  0  0  0
   10.5014   44.2588  135.5551 C   0  0  0  0  0  0  0  0  0  0  0  0
   11.6516   43.5285  135.6045 C   0  0  0  0  0  0  0  0  0  0  0  0
   12.0172   42.9317  136.7788 F   0  0  0  0  0  0  0  0  0  0  0  0
   12.4200   43.4102  134.4641 C   0  0  0  0  0  0  0  0  0  0  0  0
   12.0478   44.0181  133.2680 C   0  0  0  0  0  0  0  0  0  0  0  0
    8.3334   46.8632  129.7724 C   0  0  0  0  0  0  0  0  0  0  0  0
    7.9862   47.9072  130.4573 C   0  0  0  0  0  0  0  0  0  0  0  0
    7.6269   49.1706  129.7953 C   0  0  0  0  0  0  0  0  0  0  0  0
    7.5234   49.3585  128.4608 C   0  0  0  0  0  0  0  0  0  0  0  0
    7.1771   50.5851  127.8785 C   0  0  0  0  0  0  0  0  0  0  0  0
    6.9262   51.6632  128.6864 C   0  0  0  0  0  0  0  0  0  0  0  0
    6.5866   52.8780  128.1946 F   0  0  0  0  0  0  0  0  0  0  0  0
    7.0286   51.4860  130.0620 C   0  0  0  0  0  0  0  0  0  0  0  0
    7.3671   50.2843  130.6123 C   0  0  0  0  0  0  0  0  0  0  0  0
  1  2  2  0  0  0
  2  3  1  0  0  0
  3  4  2  0  0  0
  4  5  1  0  0  0
  5  6  2  0  0  0
  6  7  1  0  0  0
  7  8  2  0  0  0
  8  9  1  0  0  0
  8 10  1  0  0  0
 10 11  2  0  0  0
  2 12  1  0  0  0
 12 13  2  0  0  0
 13 14  1  0  0  0
 14 15  2  0  0  0
 15 16  1  0  0  0
 16 17  2  0  0  0
 17 18  1  0  0  0
 17 19  1  0  0  0
 19 20  2  0  0  0
 11  5  1  0  0  0
 20 14  1  0  0  0
M  END
> <minimizedAffinity>
0.39197

> <CNNscore>
0.4581125677

> <CNNaffinity>
6.4182243347

> <CNN_VS>
2.9402692318

> <CNNaffinity_variance>
1.4911330938

$$$$
[H]/C(C(=O)/C([H])=C(\[H])c1c([H])c([H])c(F)c([H])c1[H])=C(/[H])c1c([H])c([H])c(F)c([H])c1[H]


 20 21  0  0  0  0  0  0  0  0999 V2000
   10.5709   45.7117  129.0748 O   0  0  0  0  0  0  0  0  0  0  0  0
    9.8507   46.0025  130.1486 C   0  0  0  0  0  0  0  0  0  0  0  0
    8.7741   46.8691  129.8637 C   0  0  0  0  0  0  0  0  0  0  0  0
    8.4051   48.0172  130.3424 C   0  0  0  0  0  0  0  0  0  0  0  0
    7.2128   48.7566  129.8779 C   0  0  0  0  0  0  0  0  0  0  0  0
    6.1935   48.0182  129.2618 C   0  0  0  0  0  0  0  0  0  0  0  0
    5.0446   48.6014  128.7936 C   0  0  0  0  0  0  0  0  0  0  0  0
    4.8830   49.9482  128.9298 C   0  0  0  0  0  0  0  0  0  0  0  0
    3.7400   50.5369  128.4653 F   0  0  0  0  0  0  0  0  0  0  0  0
    5.8806   50.6851  129.5352 C   0  0  0  0  0  0  0  0  0  0  0  0
    7.0450   50.0856  130.0083 C   0  0  0  0  0  0  0  0  0  0  0  0
   10.3225   45.3842  131.3177 C   0  0  0  0  0  0  0  0  0  0  0  0
   10.5272   45.8746  132.4998 C   0  0  0  0  0  0  0  0  0  0  0  0
   11.0331   45.0366  133.5977 C   0  0  0  0  0  0  0  0  0  0  0  0
   12.2037   44.3608  133.5973 C   0  0  0  0  0  0  0  0  0  0  0  0
   12.6412   43.5741  134.6712 C   0  0  0  0  0  0  0  0  0  0  0  0
   11.8563   43.4713  135.7899 C   0  0  0  0  0  0  0  0  0  0  0  0
   12.2144   42.7300  136.8647 F   0  0  0  0  0  0  0  0  0  0  0  0
   10.6486   44.1608  135.8057 C   0  0  0  0  0  0  0  0  0  0  0  0
   10.2378   44.9225  134.7509 C   0  0  0  0  0  0  0  0  0  0  0  0
  1  2  2  0  0  0
  2  3  1  0  0  0
  3  4  2  0  0  0
  4  5  1  0  0  0
  5  6  2  0  0  0
  6  7  1  0  0  0
  7  8  2  0  0  0
  8  9  1  0  0  0
  8 10  1  0  0  0
 10 11  2  0  0  0
  2 12  1  0  0  0
 12 13  2  0  0  0
 13 14  1  0  0  0
 14 15  2  0  0  0
 15 16  1  0  0  0
 16 17  2  0  0  0
 17 18  1  0  0  0
 17 19  1  0  0  0
 19 20  2  0  0  0
 11  5  1  0  0  0
 20 14  1  0  0  0
M  END
> <minimizedAffinity>
1.15510

> <CNNscore>
0.4573709071

> <CNNaffinity>
6.3578200340

> <CNN_VS>
2.9078819752

> <CNNaffinity_variance>
0.9572674036

$$$$
[H]/C(C(=O)/C([H])=C(\[H])c1c([H])c([H])c(F)c([H])c1[H])=C(/[H])c1c([H])c([H])c(F)c([H])c1[H]


 20 21  0  0  0  0  0  0  0  0999 V2000
    8.3861   44.8235  129.3503 O   0  0  0  0  0  0  0  0  0  0  0  0
    8.6852   45.7500  130.2495 C   0  0  0  0  0  0  0  0  0  0  0  0
    9.3291   45.2174  131.3865 C   0  0  0  0  0  0  0  0  0  0  0  0
   10.4360   45.5056  131.9992 C   0  0  0  0  0  0  0  0  0  0  0  0
   10.9198   44.7940  133.2006 C   0  0  0  0  0  0  0  0  0  0  0  0
   10.1540   44.9033  134.3690 C   0  0  0  0  0  0  0  0  0  0  0  0
   10.5089   44.2853  135.5401 C   0  0  0  0  0  0  0  0  0  0  0  0
   11.6473   43.5360  135.5744 C   0  0  0  0  0  0  0  0  0  0  0  0
   12.0077   42.9166  136.7386 F   0  0  0  0  0  0  0  0  0  0  0  0
   12.4091   43.4215  134.4293 C   0  0  0  0  0  0  0  0  0  0  0  0
   12.0421   44.0523  133.2434 C   0  0  0  0  0  0  0  0  0  0  0  0
    8.2942   47.0429  129.8657 C   0  0  0  0  0  0  0  0  0  0  0  0
    7.8426   48.0269  130.5781 C   0  0  0  0  0  0  0  0  0  0  0  0
    7.4884   49.3156  129.9638 C   0  0  0  0  0  0  0  0  0  0  0  0
    7.0107   50.3961  130.6208 C   0  0  0  0  0  0  0  0  0  0  0  0
    6.6876   51.6037  129.9878 C   0  0  0  0  0  0  0  0  0  0  0  0
    6.8574   51.7163  128.6326 C   0  0  0  0  0  0  0  0  0  0  0  0
    6.5665   52.8514  127.9544 F   0  0  0  0  0  0  0  0  0  0  0  0
    7.3481   50.6132  127.9423 C   0  0  0  0  0  0  0  0  0  0  0  0
    7.6577   49.4445  128.5746 C   0  0  0  0  0  0  0  0  0  0  0  0
  1  2  2  0  0  0
  2  3  1  0  0  0
  3  4  2  0  0  0
  4  5  1  0  0  0
  5  6  2  0  0  0
  6  7  1  0  0  0
  7  8  2  0  0  0
  8  9  1  0  0  0
  8 10  1  0  0  0
 10 11  2  0  0  0
  2 12  1  0  0  0
 12 13  2  0  0  0
 13 14  1  0  0  0
 14 15  2  0  0  0
 15 16  1  0  0  0
 16 17  2  0  0  0
 17 18  1  0  0  0
 17 19  1  0  0  0
 19 20  2  0  0  0
 11  5  1  0  0  0
 20 14  1  0  0  0
M  END
> <minimizedAffinity>
0.32671

> <CNNscore>
0.4568735361

> <CNNaffinity>
6.3559083939

> <CNN_VS>
2.9038462639

> <CNNaffinity_variance>
1.3117674589

$$$$
[H]/C(C(=O)/C([H])=C(\[H])c1c([H])c([H])c(F)c([H])c1[H])=C(/[H])c1c([H])c([H])c(F)c([H])c1[H]


 20 21  0  0  0  0  0  0  0  0999 V2000
    8.3783   44.5398  129.3634 O   0  0  0  0  0  0  0  0  0  0  0  0
    8.6938   45.4849  130.2373 C   0  0  0  0  0  0  0  0  0  0  0  0
    8.3228   46.7748  129.8018 C   0  0  0  0  0  0  0  0  0  0  0  0
    7.9166   47.8404  130.4206 C   0  0  0  0  0  0  0  0  0  0  0  0
    7.5778   49.1075  129.7398 C   0  0  0  0  0  0  0  0  0  0  0  0
    7.3845   50.2406  130.5414 C   0  0  0  0  0  0  0  0  0  0  0  0
    7.0671   51.4664  130.0159 C   0  0  0  0  0  0  0  0  0  0  0  0
    6.9337   51.5929  128.6650 C   0  0  0  0  0  0  0  0  0  0  0  0
    6.6173   52.8121  128.1336 F   0  0  0  0  0  0  0  0  0  0  0  0
    7.1219   50.4834  127.8661 C   0  0  0  0  0  0  0  0  0  0  0  0
    7.4440   49.2415  128.4073 C   0  0  0  0  0  0  0  0  0  0  0  0
    9.3221   44.9875  131.3904 C   0  0  0  0  0  0  0  0  0  0  0  0
   10.3329   45.4486  132.0577 C   0  0  0  0  0  0  0  0  0  0  0  0
   10.8363   44.7592  133.2556 C   0  0  0  0  0  0  0  0  0  0  0  0
   11.9738   44.0324  133.3260 C   0  0  0  0  0  0  0  0  0  0  0  0
   12.4105   43.3936  134.4942 C   0  0  0  0  0  0  0  0  0  0  0  0
   11.6600   43.4986  135.6360 C   0  0  0  0  0  0  0  0  0  0  0  0
   12.0196   42.9088  136.8003 F   0  0  0  0  0  0  0  0  0  0  0  0
   10.4867   44.2432  135.5797 C   0  0  0  0  0  0  0  0  0  0  0  0
   10.0761   44.8588  134.4335 C   0  0  0  0  0  0  0  0  0  0  0  0
  1  2  2  0  0  0
  2  3  1  0  0  0
  3  4  2  0  0  0
  4  5  1  0  0  0
  5  6  2  0  0  0
  6  7  1  0  0  0
  7  8  2  0  0  0
  8  9  1  0  0  0
  8 10  1  0  0  0
 10 11  2  0  0  0
  2 12  1  0  0  0
 12 13  2  0  0  0
 13 14  1  0  0  0
 14 15  2  0  0  0
 15 16  1  0  0  0
 16 17  2  0  0  0
 17 18  1  0  0  0
 17 19  1  0  0  0
 19 20  2  0  0  0
 11  5  1  0  0  0
 20 14  1  0  0  0
M  END
> <minimizedAffinity>
0.32941

> <CNNscore>
0.4558900297

> <CNNaffinity>
6.4382271767

> <CNN_VS>
2.9351236820

> <CNNaffinity_variance>
1.5900979042

$$$$
[H]Oc1c([H])c([H])c(N([H])c2nc([H])c(F)c(N([H])c3c([H])c([H])c(C(=O)N([H])[H])c([H])c3[H])n2)c([H])c1[H]


 30 32  0  0  0  0  0  0  0  0999 V2000
   10.6900   45.0535  131.0706 C   0  0  0  0  0  0  0  0  0  0  0  0
   10.2157   46.2864  131.0035 N   0  0  0  0  0  0  0  0  0  0  0  0
   10.9561   47.3678  131.3836 C   0  0  0  0  0  0  0  0  0  0  0  0
   12.1985   47.1379  131.8342 N   0  0  0  0  0  0  0  0  0  0  0  0
   12.7386   45.9287  131.9284 C   0  0  0  0  0  0  0  0  0  0  0  0
   11.9967   44.8335  131.5464 C   0  0  0  0  0  0  0  0  0  0  0  0
   12.4899   43.5845  131.6187 F   0  0  0  0  0  0  0  0  0  0  0  0
    9.9438   43.9035  130.7065 N   0  0  0  0  0  0  0  0  0  0  0  0
   10.0461   43.5620  129.7044 H   0  0  0  0  0  0  0  0  0  0  0  0
    7.3801   41.7446  133.2619 C   0  0  0  0  0  0  0  0  0  0  0  0
    7.2113   41.7258  131.9170 C   0  0  0  0  0  0  0  0  0  0  0  0
    8.0467   42.4223  131.0366 C   0  0  0  0  0  0  0  0  0  0  0  0
    9.0724   43.1531  131.5184 C   0  0  0  0  0  0  0  0  0  0  0  0
    9.2698   43.1886  132.9150 C   0  0  0  0  0  0  0  0  0  0  0  0
    8.4408   42.4999  133.7545 C   0  0  0  0  0  0  0  0  0  0  0  0
    5.1182   41.1718  134.1071 N   0  0  0  0  0  0  0  0  0  0  0  0
    6.5127   41.0209  134.1840 C   0  0  0  0  0  0  0  0  0  0  0  0
    7.0148   40.2676  135.0408 O   0  0  0  0  0  0  0  0  0  0  0  0
    4.6408   41.8525  134.7279 H   0  0  0  0  0  0  0  0  0  0  0  0
    4.5442   40.6207  133.4445 H   0  0  0  0  0  0  0  0  0  0  0  0
   10.3636   48.6403  131.3062 N   0  0  0  0  0  0  0  0  0  0  0  0
   10.9212   49.4627  131.6829 H   0  0  0  0  0  0  0  0  0  0  0  0
    9.1004   48.9040  130.7727 C   0  0  0  0  0  0  0  0  0  0  0  0
    8.3629   50.0192  131.0404 C   0  0  0  0  0  0  0  0  0  0  0  0
    7.0758   50.2300  130.4992 C   0  0  0  0  0  0  0  0  0  0  0  0
    6.5335   49.2813  129.6670 C   0  0  0  0  0  0  0  0  0  0  0  0
    5.2640   49.4806  129.1283 O   0  0  0  0  0  0  0  0  0  0  0  0
    7.2471   48.1357  129.3679 C   0  0  0  0  0  0  0  0  0  0  0  0
    8.4915   47.9636  129.9102 C   0  0  0  0  0  0  0  0  0  0  0  0
    4.4823   49.1289  129.6682 H   0  0  0  0  0  0  0  0  0  0  0  0
 16 17  1  0  0  0
 17 18  2  0  0  0
 17 10  1  0  0  0
 10 11  2  0  0  0
 11 12  1  0  0  0
 12 13  2  0  0  0
 13  8  1  0  0  0
  8  1  1  0  0  0
  1  2  2  0  0  0
  2  3  1  0  0  0
  3 21  1  0  0  0
 21 23  1  0  0  0
 23 24  2  0  0  0
 24 25  1  0  0  0
 25 26  2  0  0  0
 26 27  1  0  0  0
 26 28  1  0  0  0
 28 29  2  0  0  0
  3  4  2  0  0  0
  4  5  1  0  0  0
  5  6  2  0  0  0
  6  7  1  0  0  0
 13 14  1  0  0  0
 14 15  2  0  0  0
 15 10  1  0  0  0
  6  1  1  0  0  0
 29 23  1  0  0  0
 16 19  1  0  0  0
 16 20  1  0  0  0
  8  9  1  0  0  0
 21 22  1  0  0  0
 27 30  1  0  0  0
M  END
> <minimizedAffinity>
4.71017

> <CNNscore>
0.4915533364

> <CNNaffinity>
7.3336868286

> <CNN_VS>
3.6048982143

> <CNNaffinity_variance>
1.3549922705

$$$$
[H]Oc1c([H])c([H])c(N([H])c2nc([H])c(F)c(N([H])c3c([H])c([H])c(C(=O)N([H])[H])c([H])c3[H])n2)c([H])c1[H]


 30 32  0  0  0  0  0  0  0  0999 V2000
   10.7801   47.4991  133.0409 C   0  0  0  0  0  0  0  0  0  0  0  0
   10.2626   47.6344  131.8311 N   0  0  0  0  0  0  0  0  0  0  0  0
    9.7634   48.8242  131.3870 C   0  0  0  0  0  0  0  0  0  0  0  0
    9.8146   49.8678  132.2283 N   0  0  0  0  0  0  0  0  0  0  0  0
   10.3192   49.8045  133.4547 C   0  0  0  0  0  0  0  0  0  0  0  0
   10.8245   48.6068  133.9087 C   0  0  0  0  0  0  0  0  0  0  0  0
   11.3487   48.4814  135.1407 F   0  0  0  0  0  0  0  0  0  0  0  0
   11.2878   46.2747  133.5461 N   0  0  0  0  0  0  0  0  0  0  0  0
   11.8901   46.3290  134.4210 H   0  0  0  0  0  0  0  0  0  0  0  0
   10.8437   42.4163  131.9092 C   0  0  0  0  0  0  0  0  0  0  0  0
   10.0796   42.8311  132.9493 C   0  0  0  0  0  0  0  0  0  0  0  0
   10.1921   44.1067  133.5135 C   0  0  0  0  0  0  0  0  0  0  0  0
   11.0917   44.9828  133.0223 C   0  0  0  0  0  0  0  0  0  0  0  0
   11.8991   44.5754  131.9392 C   0  0  0  0  0  0  0  0  0  0  0  0
   11.7705   43.3247  131.4051 C   0  0  0  0  0  0  0  0  0  0  0  0
    9.9441   40.8910  130.1705 N   0  0  0  0  0  0  0  0  0  0  0  0
   10.7309   41.0883  131.3174 C   0  0  0  0  0  0  0  0  0  0  0  0
   11.3361   40.1291  131.8344 O   0  0  0  0  0  0  0  0  0  0  0  0
    8.9665   40.5578  130.2700 H   0  0  0  0  0  0  0  0  0  0  0  0
   10.3108   41.0688  129.2186 H   0  0  0  0  0  0  0  0  0  0  0  0
    9.2059   48.8720  130.0974 N   0  0  0  0  0  0  0  0  0  0  0  0
    9.8685   48.7604  129.2742 H   0  0  0  0  0  0  0  0  0  0  0  0
    7.8501   49.0545  129.8177 C   0  0  0  0  0  0  0  0  0  0  0  0
    7.0533   48.1318  129.2069 C   0  0  0  0  0  0  0  0  0  0  0  0
    5.6920   48.3720  128.9183 C   0  0  0  0  0  0  0  0  0  0  0  0
    5.1353   49.5797  129.2625 C   0  0  0  0  0  0  0  0  0  0  0  0
    3.7929   49.8257  128.9816 O   0  0  0  0  0  0  0  0  0  0  0  0
    5.9068   50.5436  129.8844 C   0  0  0  0  0  0  0  0  0  0  0  0
    7.2227   50.2775  130.1487 C   0  0  0  0  0  0  0  0  0  0  0  0
    3.5873   50.2427  128.0815 H   0  0  0  0  0  0  0  0  0  0  0  0
 16 17  1  0  0  0
 17 18  2  0  0  0
 17 10  1  0  0  0
 10 11  2  0  0  0
 11 12  1  0  0  0
 12 13  2  0  0  0
 13  8  1  0  0  0
  8  1  1  0  0  0
  1  2  2  0  0  0
  2  3  1  0  0  0
  3 21  1  0  0  0
 21 23  1  0  0  0
 23 24  2  0  0  0
 24 25  1  0  0  0
 25 26  2  0  0  0
 26 27  1  0  0  0
 26 28  1  0  0  0
 28 29  2  0  0  0
  3  4  2  0  0  0
  4  5  1  0  0  0
  5  6  2  0  0  0
  6  7  1  0  0  0
 13 14  1  0  0  0
 14 15  2  0  0  0
 15 10  1  0  0  0
  6  1  1  0  0  0
 29 23  1  0  0  0
 16 19  1  0  0  0
 16 20  1  0  0  0
  8  9  1  0  0  0
 21 22  1  0  0  0
 27 30  1  0  0  0
M  END
> <minimizedAffinity>
0.18060

> <CNNscore>
0.4630836248

> <CNNaffinity>
7.1581892967

> <CNN_VS>
3.3148403168

> <CNNaffinity_variance>
0.9764159918

$$$$
[H]Oc1c([H])c([H])c(N([H])c2nc([H])c(F)c(N([H])c3c([H])c([H])c(C(=O)N([H])[H])c([H])c3[H])n2)c([H])c1[H]


 30 32  0  0  0  0  0  0  0  0999 V2000
    9.0517   44.6394  129.4444 C   0  0  0  0  0  0  0  0  0  0  0  0
    9.7307   44.8598  130.5580 N   0  0  0  0  0  0  0  0  0  0  0  0
   10.9126   44.2307  130.8210 C   0  0  0  0  0  0  0  0  0  0  0  0
   11.3712   43.3687  129.9011 N   0  0  0  0  0  0  0  0  0  0  0  0
   10.7433   43.0992  128.7627 C   0  0  0  0  0  0  0  0  0  0  0  0
    9.5502   43.7309  128.4915 C   0  0  0  0  0  0  0  0  0  0  0  0
    8.8690   43.4991  127.3554 F   0  0  0  0  0  0  0  0  0  0  0  0
    7.8098   45.2565  129.1460 N   0  0  0  0  0  0  0  0  0  0  0  0
    7.0257   44.6206  128.8112 H   0  0  0  0  0  0  0  0  0  0  0  0
    6.9958   49.3844  129.3927 C   0  0  0  0  0  0  0  0  0  0  0  0
    6.0069   48.4850  129.1675 C   0  0  0  0  0  0  0  0  0  0  0  0
    6.2369   47.1070  129.0877 C   0  0  0  0  0  0  0  0  0  0  0  0
    7.4868   46.6236  129.2369 C   0  0  0  0  0  0  0  0  0  0  0  0
    8.5340   47.5394  129.4727 C   0  0  0  0  0  0  0  0  0  0  0  0
    8.2844   48.8805  129.5466 C   0  0  0  0  0  0  0  0  0  0  0  0
    7.0236   51.6451  128.3692 N   0  0  0  0  0  0  0  0  0  0  0  0
    6.7619   50.8213  129.4766 C   0  0  0  0  0  0  0  0  0  0  0  0
    6.3286   51.3150  130.5359 O   0  0  0  0  0  0  0  0  0  0  0  0
    7.9327   52.1407  128.3018 H   0  0  0  0  0  0  0  0  0  0  0  0
    6.3323   51.7758  127.6095 H   0  0  0  0  0  0  0  0  0  0  0  0
   11.5538   44.5025  132.0421 N   0  0  0  0  0  0  0  0  0  0  0  0
   12.5521   44.1572  132.1573 H   0  0  0  0  0  0  0  0  0  0  0  0
   10.9787   45.1906  133.1124 C   0  0  0  0  0  0  0  0  0  0  0  0
   10.6501   44.6271  134.3098 C   0  0  0  0  0  0  0  0  0  0  0  0
   10.0430   45.3573  135.3549 C   0  0  0  0  0  0  0  0  0  0  0  0
    9.7679   46.6905  135.1711 C   0  0  0  0  0  0  0  0  0  0  0  0
    9.1689   47.4191  136.1967 O   0  0  0  0  0  0  0  0  0  0  0  0
   10.0853   47.3024  133.9729 C   0  0  0  0  0  0  0  0  0  0  0  0
   10.6725   46.5646  132.9814 C   0  0  0  0  0  0  0  0  0  0  0  0
    8.1561   47.4424  136.2044 H   0  0  0  0  0  0  0  0  0  0  0  0
 16 17  1  0  0  0
 17 18  2  0  0  0
 17 10  1  0  0  0
 10 11  2  0  0  0
 11 12  1  0  0  0
 12 13  2  0  0  0
 13  8  1  0  0  0
  8  1  1  0  0  0
  1  2  2  0  0  0
  2  3  1  0  0  0
  3 21  1  0  0  0
 21 23  1  0  0  0
 23 24  2  0  0  0
 24 25  1  0  0  0
 25 26  2  0  0  0
 26 27  1  0  0  0
 26 28  1  0  0  0
 28 29  2  0  0  0
  3  4  2  0  0  0
  4  5  1  0  0  0
  5  6  2  0  0  0
  6  7  1  0  0  0
 13 14  1  0  0  0
 14 15  2  0  0  0
 15 10  1  0  0  0
  6  1  1  0  0  0
 29 23  1  0  0  0
 16 19  1  0  0  0
 16 20  1  0  0  0
  8  9  1  0  0  0
 21 22  1  0  0  0
 27 30  1  0  0  0
M  END
> <minimizedAffinity>
-5.48532

> <CNNscore>
0.4386744499

> <CNNaffinity>
7.3577446938

> <CNN_VS>
3.2276546955

> <CNNaffinity_variance>
0.2117631882

$$$$
[H]Oc1c([H])c([H])c(N([H])c2nc([H])c(F)c(N([H])c3c([H])c([H])c(C(=O)N([H])[H])c([H])c3[H])n2)c([H])c1[H]


 30 32  0  0  0  0  0  0  0  0999 V2000
   10.5139   46.9119  132.5913 C   0  0  0  0  0  0  0  0  0  0  0  0
    9.3876   47.2527  131.9873 N   0  0  0  0  0  0  0  0  0  0  0  0
    8.7124   48.3947  132.3067 C   0  0  0  0  0  0  0  0  0  0  0  0
    9.2345   49.1724  133.2670 N   0  0  0  0  0  0  0  0  0  0  0  0
   10.3593   48.8928  133.9144 C   0  0  0  0  0  0  0  0  0  0  0  0
   11.0453   47.7420  133.5966 C   0  0  0  0  0  0  0  0  0  0  0  0
   12.1899   47.4062  134.2174 F   0  0  0  0  0  0  0  0  0  0  0  0
   11.2318   45.7230  132.3030 N   0  0  0  0  0  0  0  0  0  0  0  0
   12.0795   45.5145  132.9105 H   0  0  0  0  0  0  0  0  0  0  0  0
   10.2954   42.8299  129.3846 C   0  0  0  0  0  0  0  0  0  0  0  0
   10.9936   43.9478  129.0678 C   0  0  0  0  0  0  0  0  0  0  0  0
   11.3305   44.9258  130.0103 C   0  0  0  0  0  0  0  0  0  0  0  0
   10.9572   44.7769  131.2974 C   0  0  0  0  0  0  0  0  0  0  0  0
   10.2296   43.6215  131.6530 C   0  0  0  0  0  0  0  0  0  0  0  0
    9.9128   42.6804  130.7148 C   0  0  0  0  0  0  0  0  0  0  0  0
    9.6929   40.4891  128.8223 N   0  0  0  0  0  0  0  0  0  0  0  0
    9.9415   41.8077  128.4067 C   0  0  0  0  0  0  0  0  0  0  0  0
    9.8607   42.1099  127.2001 O   0  0  0  0  0  0  0  0  0  0  0  0
   10.4537   39.7850  128.7779 H   0  0  0  0  0  0  0  0  0  0  0  0
    8.7657   40.1926  129.1755 H   0  0  0  0  0  0  0  0  0  0  0  0
    7.5079   48.6656  131.6345 N   0  0  0  0  0  0  0  0  0  0  0  0
    6.6480   48.1169  131.9323 H   0  0  0  0  0  0  0  0  0  0  0  0
    7.3568   49.5995  130.6075 C   0  0  0  0  0  0  0  0  0  0  0  0
    7.7679   49.4107  129.3211 C   0  0  0  0  0  0  0  0  0  0  0  0
    7.6196   50.3965  128.3210 C   0  0  0  0  0  0  0  0  0  0  0  0
    7.0382   51.5985  128.6437 C   0  0  0  0  0  0  0  0  0  0  0  0
    6.8877   52.5773  127.6635 O   0  0  0  0  0  0  0  0  0  0  0  0
    6.6060   51.8318  129.9359 C   0  0  0  0  0  0  0  0  0  0  0  0
    6.7659   50.8546  130.8802 C   0  0  0  0  0  0  0  0  0  0  0  0
    7.6527   53.2326  127.5562 H   0  0  0  0  0  0  0  0  0  0  0  0
 16 17  1  0  0  0
 17 18  2  0  0  0
 17 10  1  0  0  0
 10 11  2  0  0  0
 11 12  1  0  0  0
 12 13  2  0  0  0
 13  8  1  0  0  0
  8  1  1  0  0  0
  1  2  2  0  0  0
  2  3  1  0  0  0
  3 21  1  0  0  0
 21 23  1  0  0  0
 23 24  2  0  0  0
 24 25  1  0  0  0
 25 26  2  0  0  0
 26 27  1  0  0  0
 26 28  1  0  0  0
 28 29  2  0  0  0
  3  4  2  0  0  0
  4  5  1  0  0  0
  5  6  2  0  0  0
  6  7  1  0  0  0
 13 14  1  0  0  0
 14 15  2  0  0  0
 15 10  1  0  0  0
  6  1  1  0  0  0
 29 23  1  0  0  0
 16 19  1  0  0  0
 16 20  1  0  0  0
  8  9  1  0  0  0
 21 22  1  0  0  0
 27 30  1  0  0  0
M  END
> <minimizedAffinity>
5.24061

> <CNNscore>
0.4137710333

> <CNNaffinity>
6.8003273010

> <CNN_VS>
2.8137784004

> <CNNaffinity_variance>
1.1734459400

$$$$
[H]Oc1c([H])c([H])c(N([H])c2nc([H])c(F)c(N([H])c3c([H])c([H])c(C(=O)N([H])[H])c([H])c3[H])n2)c([H])c1[H]


 30 32  0  0  0  0  0  0  0  0999 V2000
   10.3100   43.7788  130.6664 C   0  0  0  0  0  0  0  0  0  0  0  0
    9.9075   43.5787  131.9104 N   0  0  0  0  0  0  0  0  0  0  0  0
    9.6019   42.3347  132.3805 C   0  0  0  0  0  0  0  0  0  0  0  0
    9.7242   41.3056  131.5287 N   0  0  0  0  0  0  0  0  0  0  0  0
   10.1220   41.4326  130.2684 C   0  0  0  0  0  0  0  0  0  0  0  0
   10.4319   42.6853  129.7881 C   0  0  0  0  0  0  0  0  0  0  0  0
   10.8406   42.8763  128.5213 F   0  0  0  0  0  0  0  0  0  0  0  0
   10.6147   45.0582  130.1351 N   0  0  0  0  0  0  0  0  0  0  0  0
   11.5976   45.1981  129.7535 H   0  0  0  0  0  0  0  0  0  0  0  0
    8.0341   48.3893  130.0442 C   0  0  0  0  0  0  0  0  0  0  0  0
    9.0014   48.2234  129.1091 C   0  0  0  0  0  0  0  0  0  0  0  0
    9.8709   47.1270  129.1014 C   0  0  0  0  0  0  0  0  0  0  0  0
    9.7660   46.1784  130.0539 C   0  0  0  0  0  0  0  0  0  0  0  0
    8.7667   46.3275  131.0388 C   0  0  0  0  0  0  0  0  0  0  0  0
    7.9294   47.4068  131.0251 C   0  0  0  0  0  0  0  0  0  0  0  0
    7.1777   50.4856  129.0291 N   0  0  0  0  0  0  0  0  0  0  0  0
    7.1255   49.5297  130.0571 C   0  0  0  0  0  0  0  0  0  0  0  0
    6.3023   49.6522  130.9850 O   0  0  0  0  0  0  0  0  0  0  0  0
    7.7274   51.3552  129.1644 H   0  0  0  0  0  0  0  0  0  0  0  0
    6.6806   50.3503  128.1309 H   0  0  0  0  0  0  0  0  0  0  0  0
    9.1546   42.2163  133.7079 N   0  0  0  0  0  0  0  0  0  0  0  0
    9.8697   41.9335  134.4412 H   0  0  0  0  0  0  0  0  0  0  0  0
    7.8442   42.4420  134.1342 C   0  0  0  0  0  0  0  0  0  0  0  0
    6.7949   41.6058  133.8916 C   0  0  0  0  0  0  0  0  0  0  0  0
    5.4792   41.8898  134.3185 C   0  0  0  0  0  0  0  0  0  0  0  0
    5.2330   43.0521  135.0081 C   0  0  0  0  0  0  0  0  0  0  0  0
    3.9379   43.3409  135.4333 O   0  0  0  0  0  0  0  0  0  0  0  0
    6.2681   43.9282  135.2768 C   0  0  0  0  0  0  0  0  0  0  0  0
    7.5307   43.6216  134.8478 C   0  0  0  0  0  0  0  0  0  0  0  0
    3.3560   43.8644  134.7903 H   0  0  0  0  0  0  0  0  0  0  0  0
 16 17  1  0  0  0
 17 18  2  0  0  0
 17 10  1  0  0  0
 10 11  2  0  0  0
 11 12  1  0  0  0
 12 13  2  0  0  0
 13  8  1  0  0  0
  8  1  1  0  0  0
  1  2  2  0  0  0
  2  3  1  0  0  0
  3 21  1  0  0  0
 21 23  1  0  0  0
 23 24  2  0  0  0
 24 25  1  0  0  0
 25 26  2  0  0  0
 26 27  1  0  0  0
 26 28  1  0  0  0
 28 29  2  0  0  0
  3  4  2  0  0  0
  4  5  1  0  0  0
  5  6  2  0  0  0
  6  7  1  0  0  0
 13 14  1  0  0  0
 14 15  2  0  0  0
 15 10  1  0  0  0
  6  1  1  0  0  0
 29 23  1  0  0  0
 16 19  1  0  0  0
 16 20  1  0  0  0
  8  9  1  0  0  0
 21 22  1  0  0  0
 27 30  1  0  0  0
M  END
> <minimizedAffinity>
24.70089

> <CNNscore>
0.3604662418

> <CNNaffinity>
6.7340059280

> <CNN_VS>
2.4273817539

> <CNNaffinity_variance>
1.0381296873

$$$$
[H]Oc1c([H])c([H])c(N([H])c2nc([H])c(F)c(N([H])c3c([H])c([H])c(C(=O)N([H])[H])c([H])c3[H])n2)c([H])c1[H]


 30 32  0  0  0  0  0  0  0  0999 V2000
   11.1423   45.1396  130.6393 C   0  0  0  0  0  0  0  0  0  0  0  0
   10.0424   45.6222  130.0853 N   0  0  0  0  0  0  0  0  0  0  0  0
    9.8036   45.5224  128.7455 C   0  0  0  0  0  0  0  0  0  0  0  0
   10.7333   44.9105  127.9967 N   0  0  0  0  0  0  0  0  0  0  0  0
   11.8591   44.4033  128.4846 C   0  0  0  0  0  0  0  0  0  0  0  0
   12.1058   44.5007  129.8357 C   0  0  0  0  0  0  0  0  0  0  0  0
   13.2277   44.0057  130.3878 F   0  0  0  0  0  0  0  0  0  0  0  0
   11.4362   45.2438  132.0230 N   0  0  0  0  0  0  0  0  0  0  0  0
   12.2990   44.7282  132.3709 H   0  0  0  0  0  0  0  0  0  0  0  0
    9.3116   47.2488  135.0611 C   0  0  0  0  0  0  0  0  0  0  0  0
    9.7173   47.8969  133.9416 C   0  0  0  0  0  0  0  0  0  0  0  0
   10.4167   47.2634  132.9083 C   0  0  0  0  0  0  0  0  0  0  0  0
   10.7148   45.9518  133.0029 C   0  0  0  0  0  0  0  0  0  0  0  0
   10.3032   45.2543  134.1583 C   0  0  0  0  0  0  0  0  0  0  0  0
    9.6211   45.8946  135.1537 C   0  0  0  0  0  0  0  0  0  0  0  0
    9.1709   48.0391  137.4094 N   0  0  0  0  0  0  0  0  0  0  0  0
    8.5826   47.9038  136.1409 C   0  0  0  0  0  0  0  0  0  0  0  0
    7.4349   48.3431  135.9327 O   0  0  0  0  0  0  0  0  0  0  0  0
    8.9621   47.3418  138.1488 H   0  0  0  0  0  0  0  0  0  0  0  0
    9.8130   48.8198  137.6339 H   0  0  0  0  0  0  0  0  0  0  0  0
    8.6219   46.0883  128.2363 N   0  0  0  0  0  0  0  0  0  0  0  0
    8.1947   45.6352  127.3752 H   0  0  0  0  0  0  0  0  0  0  0  0
    7.9687   47.1983  128.7758 C   0  0  0  0  0  0  0  0  0  0  0  0
    6.6172   47.3794  128.7740 C   0  0  0  0  0  0  0  0  0  0  0  0
    6.0021   48.5335  129.3067 C   0  0  0  0  0  0  0  0  0  0  0  0
    6.7855   49.5208  129.8528 C   0  0  0  0  0  0  0  0  0  0  0  0
    6.1874   50.6632  130.3808 O   0  0  0  0  0  0  0  0  0  0  0  0
    8.1603   49.3778  129.8764 C   0  0  0  0  0  0  0  0  0  0  0  0
    8.7230   48.2467  129.3509 C   0  0  0  0  0  0  0  0  0  0  0  0
    6.0488   51.4381  129.7431 H   0  0  0  0  0  0  0  0  0  0  0  0
 16 17  1  0  0  0
 17 18  2  0  0  0
 17 10  1  0  0  0
 10 11  2  0  0  0
 11 12  1  0  0  0
 12 13  2  0  0  0
 13  8  1  0  0  0
  8  1  1  0  0  0
  1  2  2  0  0  0
  2  3  1  0  0  0
  3 21  1  0  0  0
 21 23  1  0  0  0
 23 24  2  0  0  0
 24 25  1  0  0  0
 25 26  2  0  0  0
 26 27  1  0  0  0
 26 28  1  0  0  0
 28 29  2  0  0  0
  3  4  2  0  0  0
  4  5  1  0  0  0
  5  6  2  0  0  0
  6  7  1  0  0  0
 13 14  1  0  0  0
 14 15  2  0  0  0
 15 10  1  0  0  0
  6  1  1  0  0  0
 29 23  1  0  0  0
 16 19  1  0  0  0
 16 20  1  0  0  0
  8  9  1  0  0  0
 21 22  1  0  0  0
 27 30  1  0  0  0
M  END
> <minimizedAffinity>
0.41643

> <CNNscore>
0.3385219574

> <CNNaffinity>
7.2845125198

> <CNN_VS>
2.4659674168

> <CNNaffinity_variance>
0.5320035815

$$$$
[H]Oc1c([H])c([H])c(N([H])c2nc([H])c(F)c(N([H])c3c([H])c([H])c(C(=O)N([H])[H])c([H])c3[H])n2)c([H])c1[H]


 30 32  0  0  0  0  0  0  0  0999 V2000
    9.7140   48.3853  132.3712 C   0  0  0  0  0  0  0  0  0  0  0  0
    9.6376   47.8320  131.1722 N   0  0  0  0  0  0  0  0  0  0  0  0
    9.4418   48.5743  130.0441 C   0  0  0  0  0  0  0  0  0  0  0  0
    9.3274   49.9027  130.1915 N   0  0  0  0  0  0  0  0  0  0  0  0
    9.3940   50.5251  131.3624 C   0  0  0  0  0  0  0  0  0  0  0  0
    9.5915   49.7815  132.5043 C   0  0  0  0  0  0  0  0  0  0  0  0
    9.6680   50.3555  133.7181 F   0  0  0  0  0  0  0  0  0  0  0  0
    9.8940   47.6457  133.5681 N   0  0  0  0  0  0  0  0  0  0  0  0
   10.1429   48.1990  134.4417 H   0  0  0  0  0  0  0  0  0  0  0  0
    9.4515   43.4744  133.9783 C   0  0  0  0  0  0  0  0  0  0  0  0
   10.5782   44.1059  134.3902 C   0  0  0  0  0  0  0  0  0  0  0  0
   10.7579   45.4892  134.2785 C   0  0  0  0  0  0  0  0  0  0  0  0
    9.7853   46.2529  133.7411 C   0  0  0  0  0  0  0  0  0  0  0  0
    8.6023   45.6196  133.3048 C   0  0  0  0  0  0  0  0  0  0  0  0
    8.4500   44.2673  133.4247 C   0  0  0  0  0  0  0  0  0  0  0  0
    7.9658   41.4875  134.0362 N   0  0  0  0  0  0  0  0  0  0  0  0
    9.2589   42.0335  134.0921 C   0  0  0  0  0  0  0  0  0  0  0  0
   10.2474   41.2886  134.2392 O   0  0  0  0  0  0  0  0  0  0  0  0
    7.4569   41.2823  134.9169 H   0  0  0  0  0  0  0  0  0  0  0  0
    7.4980   41.2806  133.1359 H   0  0  0  0  0  0  0  0  0  0  0  0
    9.3445   47.9018  128.8136 N   0  0  0  0  0  0  0  0  0  0  0  0
    9.0966   48.4814  127.9582 H   0  0  0  0  0  0  0  0  0  0  0  0
    9.5487   46.5325  128.6313 C   0  0  0  0  0  0  0  0  0  0  0  0
   10.6589   45.9832  128.0612 C   0  0  0  0  0  0  0  0  0  0  0  0
   10.8093   44.5920  127.8714 C   0  0  0  0  0  0  0  0  0  0  0  0
    9.8042   43.7466  128.2740 C   0  0  0  0  0  0  0  0  0  0  0  0
    9.9437   42.3724  128.0907 O   0  0  0  0  0  0  0  0  0  0  0  0
    8.6615   44.2610  128.8577 C   0  0  0  0  0  0  0  0  0  0  0  0
    8.5487   45.6142  129.0259 C   0  0  0  0  0  0  0  0  0  0  0  0
    9.6032   41.9952  127.2143 H   0  0  0  0  0  0  0  0  0  0  0  0
 16 17  1  0  0  0
 17 18  2  0  0  0
 17 10  1  0  0  0
 10 11  2  0  0  0
 11 12  1  0  0  0
 12 13  2  0  0  0
 13  8  1  0  0  0
  8  1  1  0  0  0
  1  2  2  0  0  0
  2  3  1  0  0  0
  3 21  1  0  0  0
 21 23  1  0  0  0
 23 24  2  0  0  0
 24 25  1  0  0  0
 25 26  2  0  0  0
 26 27  1  0  0  0
 26 28  1  0  0  0
 28 29  2  0  0  0
  3  4  2  0  0  0
  4  5  1  0  0  0
  5  6  2  0  0  0
  6  7  1  0  0  0
 13 14  1  0  0  0
 14 15  2  0  0  0
 15 10  1  0  0  0
  6  1  1  0  0  0
 29 23  1  0  0  0
 16 19  1  0  0  0
 16 20  1  0  0  0
  8  9  1  0  0  0
 21 22  1  0  0  0
 27 30  1  0  0  0
M  END
> <minimizedAffinity>
1.09323

> <CNNscore>
0.3263508976

> <CNNaffinity>
7.2077307701

> <CNN_VS>
2.3522493839

> <CNNaffinity_variance>
0.4315485358

$$$$
[H]Oc1c([H])c([H])c(N([H])c2nc([H])c(F)c(N([H])c3c([H])c([H])c(C(=O)N([H])[H])c([H])c3[H])n2)c([H])c1[H]


 30 32  0  0  0  0  0  0  0  0999 V2000
   11.3088   46.0101  130.8108 C   0  0  0  0  0  0  0  0  0  0  0  0
   11.1057   45.1670  131.8096 N   0  0  0  0  0  0  0  0  0  0  0  0
   11.1493   43.8144  131.6347 C   0  0  0  0  0  0  0  0  0  0  0  0
   11.4083   43.3597  130.3995 N   0  0  0  0  0  0  0  0  0  0  0  0
   11.6218   44.1468  129.3517 C   0  0  0  0  0  0  0  0  0  0  0  0
   11.5792   45.5125  129.5218 C   0  0  0  0  0  0  0  0  0  0  0  0
   11.7878   46.3599  128.4987 F   0  0  0  0  0  0  0  0  0  0  0  0
   11.2494   47.4206  130.9485 N   0  0  0  0  0  0  0  0  0  0  0  0
   12.1290   47.9066  131.2969 H   0  0  0  0  0  0  0  0  0  0  0  0
    7.9033   49.8262  130.0654 C   0  0  0  0  0  0  0  0  0  0  0  0
    8.7557   50.1484  131.0690 C   0  0  0  0  0  0  0  0  0  0  0  0
    9.8811   49.3796  131.3862 C   0  0  0  0  0  0  0  0  0  0  0  0
   10.1546   48.2639  130.6802 C   0  0  0  0  0  0  0  0  0  0  0  0
    9.2828   47.9069  129.6298 C   0  0  0  0  0  0  0  0  0  0  0  0
    8.1903   48.6738  129.3389 C   0  0  0  0  0  0  0  0  0  0  0  0
    6.7331   51.4410  128.5882 N   0  0  0  0  0  0  0  0  0  0  0  0
    6.7291   50.6235  129.7305 C   0  0  0  0  0  0  0  0  0  0  0  0
    5.7217   50.5759  130.4631 O   0  0  0  0  0  0  0  0  0  0  0  0
    6.9699   52.4471  128.6781 H   0  0  0  0  0  0  0  0  0  0  0  0
    6.5052   51.0693  127.6490 H   0  0  0  0  0  0  0  0  0  0  0  0
   10.8935   42.9913  132.7451 N   0  0  0  0  0  0  0  0  0  0  0  0
   11.7186   42.7346  133.3635 H   0  0  0  0  0  0  0  0  0  0  0  0
    9.6395   42.4869  133.0957 C   0  0  0  0  0  0  0  0  0  0  0  0
    9.3964   41.7000  134.1824 C   0  0  0  0  0  0  0  0  0  0  0  0
    8.1146   41.1887  134.4819 C   0  0  0  0  0  0  0  0  0  0  0  0
    7.0610   41.4897  133.6534 C   0  0  0  0  0  0  0  0  0  0  0  0
    5.7926   40.9896  133.9408 O   0  0  0  0  0  0  0  0  0  0  0  0
    7.2626   42.2851  132.5409 C   0  0  0  0  0  0  0  0  0  0  0  0
    8.5179   42.7631  132.2804 C   0  0  0  0  0  0  0  0  0  0  0  0
    5.5586   40.0895  133.5393 H   0  0  0  0  0  0  0  0  0  0  0  0
 16 17  1  0  0  0
 17 18  2  0  0  0
 17 10  1  0  0  0
 10 11  2  0  0  0
 11 12  1  0  0  0
 12 13  2  0  0  0
 13  8  1  0  0  0
  8  1  1  0  0  0
  1  2  2  0  0  0
  2  3  1  0  0  0
  3 21  1  0  0  0
 21 23  1  0  0  0
 23 24  2  0  0  0
 24 25  1  0  0  0
 25 26  2  0  0  0
 26 27  1  0  0  0
 26 28  1  0  0  0
 28 29  2  0  0  0
  3  4  2  0  0  0
  4  5  1  0  0  0
  5  6  2  0  0  0
  6  7  1  0  0  0
 13 14  1  0  0  0
 14 15  2  0  0  0
 15 10  1  0  0  0
  6  1  1  0  0  0
 29 23  1  0  0  0
 16 19  1  0  0  0
 16 20  1  0  0  0
  8  9  1  0  0  0
 21 22  1  0  0  0
 27 30  1  0  0  0
M  END
> <minimizedAffinity>
2.87029

> <CNNscore>
0.3169876337

> <CNNaffinity>
6.9984865189

> <CNN_VS>
2.2184336185

> <CNNaffinity_variance>
0.5116563439

$$$$
[H]Oc1c([H])c([H])c(N([H])c2nc([H])c(F)c(N([H])c3c([H])c([H])c(C(=O)N([H])[H])c([H])c3[H])n2)c([H])c1[H]


 30 32  0  0  0  0  0  0  0  0999 V2000
    9.0970   44.7158  129.1233 C   0  0  0  0  0  0  0  0  0  0  0  0
   10.0746   44.8563  130.0033 N   0  0  0  0  0  0  0  0  0  0  0  0
   11.2974   44.2778  129.8244 C   0  0  0  0  0  0  0  0  0  0  0  0
   11.4798   43.5512  128.7117 N   0  0  0  0  0  0  0  0  0  0  0  0
   10.5449   43.3679  127.7871 C   0  0  0  0  0  0  0  0  0  0  0  0
    9.3088   43.9490  127.9617 C   0  0  0  0  0  0  0  0  0  0  0  0
    8.3227   43.7995  127.0597 F   0  0  0  0  0  0  0  0  0  0  0  0
    7.8067   45.2823  129.2848 N   0  0  0  0  0  0  0  0  0  0  0  0
    6.9910   44.6044  129.3640 H   0  0  0  0  0  0  0  0  0  0  0  0
    6.9526   49.4064  129.4483 C   0  0  0  0  0  0  0  0  0  0  0  0
    5.9664   48.4897  129.2910 C   0  0  0  0  0  0  0  0  0  0  0  0
    6.2099   47.1126  129.2408 C   0  0  0  0  0  0  0  0  0  0  0  0
    7.4709   46.6478  129.3504 C   0  0  0  0  0  0  0  0  0  0  0  0
    8.5156   47.5818  129.5154 C   0  0  0  0  0  0  0  0  0  0  0  0
    8.2528   48.9215  129.5617 C   0  0  0  0  0  0  0  0  0  0  0  0
    7.0421   51.6578  128.4082 N   0  0  0  0  0  0  0  0  0  0  0  0
    6.7047   50.8424  129.5012 C   0  0  0  0  0  0  0  0  0  0  0  0
    6.1919   51.3428  130.5212 O   0  0  0  0  0  0  0  0  0  0  0  0
    7.9507   52.1588  128.4030 H   0  0  0  0  0  0  0  0  0  0  0  0
    6.4077   51.7770  127.5986 H   0  0  0  0  0  0  0  0  0  0  0  0
   12.2700   44.4553  130.8238 N   0  0  0  0  0  0  0  0  0  0  0  0
   13.2532   44.7077  130.5094 H   0  0  0  0  0  0  0  0  0  0  0  0
   12.0416   44.3254  132.1952 C   0  0  0  0  0  0  0  0  0  0  0  0
   12.5951   45.1232  133.1525 C   0  0  0  0  0  0  0  0  0  0  0  0
   12.3573   44.9359  134.5318 C   0  0  0  0  0  0  0  0  0  0  0  0
   11.5361   43.9128  134.9389 C   0  0  0  0  0  0  0  0  0  0  0  0
   11.2957   43.7203  136.2979 O   0  0  0  0  0  0  0  0  0  0  0  0
   10.9531   43.0805  134.0017 C   0  0  0  0  0  0  0  0  0  0  0  0
   11.2057   43.2903  132.6734 C   0  0  0  0  0  0  0  0  0  0  0  0
   11.9323   43.1030  136.7877 H   0  0  0  0  0  0  0  0  0  0  0  0
 16 17  1  0  0  0
 17 18  2  0  0  0
 17 10  1  0  0  0
 10 11  2  0  0  0
 11 12  1  0  0  0
 12 13  2  0  0  0
 13  8  1  0  0  0
  8  1  1  0  0  0
  1  2  2  0  0  0
  2  3  1  0  0  0
  3 21  1  0  0  0
 21 23  1  0  0  0
 23 24  2  0  0  0
 24 25  1  0  0  0
 25 26  2  0  0  0
 26 27  1  0  0  0
 26 28  1  0  0  0
 28 29  2  0  0  0
  3  4  2  0  0  0
  4  5  1  0  0  0
  5  6  2  0  0  0
  6  7  1  0  0  0
 13 14  1  0  0  0
 14 15  2  0  0  0
 15 10  1  0  0  0
  6  1  1  0  0  0
 29 23  1  0  0  0
 16 19  1  0  0  0
 16 20  1  0  0  0
  8  9  1  0  0  0
 21 22  1  0  0  0
 27 30  1  0  0  0
M  END
> <minimizedAffinity>
-4.17996

> <CNNscore>
0.3016320467

> <CNNaffinity>
7.1425352097

> <CNN_VS>
2.1544175148

> <CNNaffinity_variance>
0.3600209355

$$$$
[H]OC(=O)[C@@]1([H])N(C(=O)[C@@]([H])(N([H])[C@]([H])(C(=O)O[H])C([H])([H])C([H])([H])c2c([H])c([H])c([H])c([H])c2[H])C([H])([H])[H])C([H])([H])c2c([H])c([H])c([H])c([H])c2C1([H])[H]


 33 35  0  0  0  0  0  0  0  0999 V2000
    8.9871   46.9558  130.4693 C   0  0  0  0  0  0  0  0  0  0  0  0
    8.9781   48.4334  130.8920 C   0  0  0  0  0  0  0  0  0  0  0  0
    7.5745   48.8548  130.9017 C   0  0  0  0  0  0  0  0  0  0  0  0
    7.1698   49.4427  131.9646 O   0  0  0  0  0  0  0  0  0  0  0  0
    6.6275   48.6822  129.8699 N   0  0  0  0  0  0  0  0  0  0  0  0
    5.2460   49.1529  130.1248 C   0  0  0  0  0  0  0  0  0  0  0  0
    4.3565   47.9397  129.9946 C   0  0  0  0  0  0  0  0  0  0  0  0
    3.4077   47.5899  130.9173 C   0  0  0  0  0  0  0  0  0  0  0  0
    2.6526   46.4220  130.7222 C   0  0  0  0  0  0  0  0  0  0  0  0
    2.8987   45.6647  129.5969 C   0  0  0  0  0  0  0  0  0  0  0  0
    3.8766   46.0502  128.6707 C   0  0  0  0  0  0  0  0  0  0  0  0
    4.6211   47.1934  128.8532 C   0  0  0  0  0  0  0  0  0  0  0  0
    5.6279   47.6694  127.9064 C   0  0  0  0  0  0  0  0  0  0  0  0
    6.8896   48.0946  128.5867 C   0  0  0  0  0  0  0  0  0  0  0  0
    7.6815   49.0141  127.7186 C   0  0  0  0  0  0  0  0  0  0  0  0
    8.1409   50.0627  128.1983 O   0  0  0  0  0  0  0  0  0  0  0  0
    7.8881   48.6859  126.4099 O   0  0  0  0  0  0  0  0  0  0  0  0
    8.4443   47.8547  126.2166 H   0  0  0  0  0  0  0  0  0  0  0  0
    9.5623   48.4314  132.2288 N   0  0  0  0  0  0  0  0  0  0  0  0
   10.5045   48.8891  132.1336 H   0  0  0  0  0  0  0  0  0  0  0  0
    9.7990   47.0639  132.6298 C   0  0  0  0  0  0  0  0  0  0  0  0
    8.8727   46.6516  133.7249 C   0  0  0  0  0  0  0  0  0  0  0  0
    8.6771   45.4449  134.0145 O   0  0  0  0  0  0  0  0  0  0  0  0
    8.1793   47.5872  134.4802 O   0  0  0  0  0  0  0  0  0  0  0  0
    7.7286   48.4032  134.0925 H   0  0  0  0  0  0  0  0  0  0  0  0
   11.2386   46.8263  133.0090 C   0  0  0  0  0  0  0  0  0  0  0  0
   11.9578   45.9701  131.9936 C   0  0  0  0  0  0  0  0  0  0  0  0
   11.3091   44.6452  131.8313 C   0  0  0  0  0  0  0  0  0  0  0  0
   11.1759   43.7590  132.8928 C   0  0  0  0  0  0  0  0  0  0  0  0
   10.5820   42.5218  132.7748 C   0  0  0  0  0  0  0  0  0  0  0  0
   10.0866   42.1207  131.5495 C   0  0  0  0  0  0  0  0  0  0  0  0
   10.2043   42.9862  130.4643 C   0  0  0  0  0  0  0  0  0  0  0  0
   10.8035   44.2147  130.6184 C   0  0  0  0  0  0  0  0  0  0  0  0
  1  2  1  0  0  0
  2 19  1  0  0  0
 19 21  1  0  0  0
 21 26  1  0  0  0
 26 27  1  0  0  0
 27 28  1  0  0  0
 28 29  2  0  0  0
 29 30  1  0  0  0
 30 31  2  0  0  0
 31 32  1  0  0  0
 32 33  2  0  0  0
 21 22  1  0  0  0
 22 23  2  0  0  0
 22 24  1  0  0  0
  2  3  1  0  0  0
  3  4  2  0  0  0
  3  5  1  0  0  0
  5  6  1  0  0  0
  6  7  1  0  0  0
  7  8  2  0  0  0
  8  9  1  0  0  0
  9 10  2  0  0  0
 10 11  1  0  0  0
 11 12  2  0  0  0
 12 13  1  0  0  0
 13 14  1  0  0  0
 14 15  1  0  0  0
 15 16  2  0  0  0
 15 17  1  0  0  0
 33 28  1  0  0  0
 14  5  1  0  0  0
 12  7  1  0  0  0
 19 20  1  0  0  0
 24 25  1  0  0  0
 17 18  1  0  0  0
M  END
> <minimizedAffinity>
18.77848

> <CNNscore>
0.3049813807

> <CNNaffinity>
6.5093016624

> <CNN_VS>
1.9852157831

> <CNNaffinity_variance>
1.0433506966

$$$$
[H]OC(=O)[C@@]1([H])N(C(=O)[C@@]([H])(N([H])[C@]([H])(C(=O)O[H])C([H])([H])C([H])([H])c2c([H])c([H])c([H])c([H])c2[H])C([H])([H])[H])C([H])([H])c2c([H])c([H])c([H])c([H])c2C1([H])[H]


 33 35  0  0  0  0  0  0  0  0999 V2000
    7.8048   48.6953  132.3205 C   0  0  0  0  0  0  0  0  0  0  0  0
    8.0124   47.1823  132.4941 C   0  0  0  0  0  0  0  0  0  0  0  0
    7.7078   46.5693  131.1983 C   0  0  0  0  0  0  0  0  0  0  0  0
    6.6271   45.8854  131.1383 O   0  0  0  0  0  0  0  0  0  0  0  0
    8.4748   46.6523  130.0168 N   0  0  0  0  0  0  0  0  0  0  0  0
    7.9878   45.9076  128.8322 C   0  0  0  0  0  0  0  0  0  0  0  0
    9.0808   44.9312  128.4693 C   0  0  0  0  0  0  0  0  0  0  0  0
    8.8633   43.6012  128.2287 C   0  0  0  0  0  0  0  0  0  0  0  0
    9.9526   42.7664  127.9310 C   0  0  0  0  0  0  0  0  0  0  0  0
   11.2126   43.3245  127.8921 C   0  0  0  0  0  0  0  0  0  0  0  0
   11.4020   44.6898  128.1425 C   0  0  0  0  0  0  0  0  0  0  0  0
   10.3405   45.5158  128.4345 C   0  0  0  0  0  0  0  0  0  0  0  0
   10.4671   46.9533  128.6675 C   0  0  0  0  0  0  0  0  0  0  0  0
    9.6871   47.4051  129.8603 C   0  0  0  0  0  0  0  0  0  0  0  0
    9.4134   48.8704  129.7966 C   0  0  0  0  0  0  0  0  0  0  0  0
   10.1938   49.6623  130.3488 O   0  0  0  0  0  0  0  0  0  0  0  0
    8.3084   49.3162  129.1308 O   0  0  0  0  0  0  0  0  0  0  0  0
    8.2711   49.1590  128.1251 H   0  0  0  0  0  0  0  0  0  0  0  0
    9.4208   47.0483  132.8498 N   0  0  0  0  0  0  0  0  0  0  0  0
    9.6224   46.0160  132.8498 H   0  0  0  0  0  0  0  0  0  0  0  0
    9.6031   47.5112  134.2061 C   0  0  0  0  0  0  0  0  0  0  0  0
   10.6717   48.5499  134.2858 C   0  0  0  0  0  0  0  0  0  0  0  0
   11.6924   48.4034  135.0034 O   0  0  0  0  0  0  0  0  0  0  0  0
   10.5884   49.7341  133.5665 O   0  0  0  0  0  0  0  0  0  0  0  0
    9.7439   50.2794  133.4734 H   0  0  0  0  0  0  0  0  0  0  0  0
    9.8683   46.3753  135.1611 C   0  0  0  0  0  0  0  0  0  0  0  0
    9.2716   45.0756  134.6749 C   0  0  0  0  0  0  0  0  0  0  0  0
   10.1660   44.3838  133.7138 C   0  0  0  0  0  0  0  0  0  0  0  0
   11.5439   44.3510  133.8875 C   0  0  0  0  0  0  0  0  0  0  0  0
   12.4013   43.7205  133.0131 C   0  0  0  0  0  0  0  0  0  0  0  0
   11.8883   43.0822  131.9009 C   0  0  0  0  0  0  0  0  0  0  0  0
   10.5103   43.0965  131.6974 C   0  0  0  0  0  0  0  0  0  0  0  0
    9.6835   43.7360  132.5915 C   0  0  0  0  0  0  0  0  0  0  0  0
  1  2  1  0  0  0
  2 19  1  0  0  0
 19 21  1  0  0  0
 21 26  1  0  0  0
 26 27  1  0  0  0
 27 28  1  0  0  0
 28 29  2  0  0  0
 29 30  1  0  0  0
 30 31  2  0  0  0
 31 32  1  0  0  0
 32 33  2  0  0  0
 21 22  1  0  0  0
 22 23  2  0  0  0
 22 24  1  0  0  0
  2  3  1  0  0  0
  3  4  2  0  0  0
  3  5  1  0  0  0
  5  6  1  0  0  0
  6  7  1  0  0  0
  7  8  2  0  0  0
  8  9  1  0  0  0
  9 10  2  0  0  0
 10 11  1  0  0  0
 11 12  2  0  0  0
 12 13  1  0  0  0
 13 14  1  0  0  0
 14 15  1  0  0  0
 15 16  2  0  0  0
 15 17  1  0  0  0
 33 28  1  0  0  0
 14  5  1  0  0  0
 12  7  1  0  0  0
 19 20  1  0  0  0
 24 25  1  0  0  0
 17 18  1  0  0  0
M  END
> <minimizedAffinity>
-0.61953

> <CNNscore>
0.2219564319

> <CNNaffinity>
6.6050553322

> <CNN_VS>
1.4660345316

> <CNNaffinity_variance>
0.1515517980

$$$$
[H]OC(=O)[C@@]1([H])N(C(=O)[C@@]([H])(N([H])[C@]([H])(C(=O)O[H])C([H])([H])C([H])([H])c2c([H])c([H])c([H])c([H])c2[H])C([H])([H])[H])C([H])([H])c2c([H])c([H])c([H])c([H])c2C1([H])[H]


 33 35  0  0  0  0  0  0  0  0999 V2000
    9.7316   49.1863  132.0722 C   0  0  0  0  0  0  0  0  0  0  0  0
    8.8445   48.6981  130.9160 C   0  0  0  0  0  0  0  0  0  0  0  0
    9.7344   48.0299  129.9623 C   0  0  0  0  0  0  0  0  0  0  0  0
    9.8177   48.5620  128.8009 O   0  0  0  0  0  0  0  0  0  0  0  0
   10.5044   46.8690  130.1872 N   0  0  0  0  0  0  0  0  0  0  0  0
   11.3004   46.3465  129.0522 C   0  0  0  0  0  0  0  0  0  0  0  0
   10.8014   44.9444  128.7972 C   0  0  0  0  0  0  0  0  0  0  0  0
   10.4602   44.4722  127.5584 C   0  0  0  0  0  0  0  0  0  0  0  0
    9.9734   43.1612  127.4294 C   0  0  0  0  0  0  0  0  0  0  0  0
    9.8566   42.3922  128.5676 C   0  0  0  0  0  0  0  0  0  0  0  0
   10.2148   42.9048  129.8213 C   0  0  0  0  0  0  0  0  0  0  0  0
   10.6934   44.1881  129.9574 C   0  0  0  0  0  0  0  0  0  0  0  0
   11.1194   44.7678  131.2299 C   0  0  0  0  0  0  0  0  0  0  0  0
   10.5896   46.1518  131.4279 C   0  0  0  0  0  0  0  0  0  0  0  0
   11.4028   46.8970  132.4326 C   0  0  0  0  0  0  0  0  0  0  0  0
   10.8411   47.6849  133.2101 O   0  0  0  0  0  0  0  0  0  0  0  0
   12.7524   46.6991  132.4803 O   0  0  0  0  0  0  0  0  0  0  0  0
   13.0819   45.7724  132.7455 H   0  0  0  0  0  0  0  0  0  0  0  0
    7.9109   47.7689  131.5430 N   0  0  0  0  0  0  0  0  0  0  0  0
    8.4350   47.3257  132.3400 H   0  0  0  0  0  0  0  0  0  0  0  0
    7.6049   46.7143  130.6044 C   0  0  0  0  0  0  0  0  0  0  0  0
    6.4866   47.1039  129.6962 C   0  0  0  0  0  0  0  0  0  0  0  0
    6.6722   47.8109  128.6745 O   0  0  0  0  0  0  0  0  0  0  0  0
    5.1806   46.7008  129.9383 O   0  0  0  0  0  0  0  0  0  0  0  0
    4.7485   46.7061  130.8507 H   0  0  0  0  0  0  0  0  0  0  0  0
    7.3205   45.4055  131.2964 C   0  0  0  0  0  0  0  0  0  0  0  0
    7.3552   45.5409  132.8004 C   0  0  0  0  0  0  0  0  0  0  0  0
    8.4766   44.7736  133.3972 C   0  0  0  0  0  0  0  0  0  0  0  0
    8.7643   43.4719  133.0063 C   0  0  0  0  0  0  0  0  0  0  0  0
    9.7953   42.7321  133.5421 C   0  0  0  0  0  0  0  0  0  0  0  0
   10.5965   43.2916  134.5182 C   0  0  0  0  0  0  0  0  0  0  0  0
   10.3345   44.5955  134.9326 C   0  0  0  0  0  0  0  0  0  0  0  0
    9.2963   45.3052  134.3756 C   0  0  0  0  0  0  0  0  0  0  0  0
  1  2  1  0  0  0
  2 19  1  0  0  0
 19 21  1  0  0  0
 21 26  1  0  0  0
 26 27  1  0  0  0
 27 28  1  0  0  0
 28 29  2  0  0  0
 29 30  1  0  0  0
 30 31  2  0  0  0
 31 32  1  0  0  0
 32 33  2  0  0  0
 21 22  1  0  0  0
 22 23  2  0  0  0
 22 24  1  0  0  0
  2  3  1  0  0  0
  3  4  2  0  0  0
  3  5  1  0  0  0
  5  6  1  0  0  0
  6  7  1  0  0  0
  7  8  2  0  0  0
  8  9  1  0  0  0
  9 10  2  0  0  0
 10 11  1  0  0  0
 11 12  2  0  0  0
 12 13  1  0  0  0
 13 14  1  0  0  0
 14 15  1  0  0  0
 15 16  2  0  0  0
 15 17  1  0  0  0
 33 28  1  0  0  0
 14  5  1  0  0  0
 12  7  1  0  0  0
 19 20  1  0  0  0
 24 25  1  0  0  0
 17 18  1  0  0  0
M  END
> <minimizedAffinity>
-2.21270

> <CNNscore>
0.1499735117

> <CNNaffinity>
6.5816907883

> <CNN_VS>
0.9870792627

> <CNNaffinity_variance>
0.0560850129

$$$$
[H]OC(=O)[C@@]1([H])N(C(=O)[C@@]([H])(N([H])[C@]([H])(C(=O)O[H])C([H])([H])C([H])([H])c2c([H])c([H])c([H])c([H])c2[H])C([H])([H])[H])C([H])([H])c2c([H])c([H])c([H])c([H])c2C1([H])[H]


 33 35  0  0  0  0  0  0  0  0999 V2000
    9.5516   50.1162  132.1679 C   0  0  0  0  0  0  0  0  0  0  0  0
    9.4282   48.6803  131.6341 C   0  0  0  0  0  0  0  0  0  0  0  0
    9.7284   47.7908  132.7595 C   0  0  0  0  0  0  0  0  0  0  0  0
   10.2964   48.3331  133.7707 O   0  0  0  0  0  0  0  0  0  0  0  0
    9.4596   46.4083  132.8461 N   0  0  0  0  0  0  0  0  0  0  0  0
    9.8970   45.7027  134.0733 C   0  0  0  0  0  0  0  0  0  0  0  0
   10.8588   44.6295  133.6224 C   0  0  0  0  0  0  0  0  0  0  0  0
   12.0867   44.4214  134.1907 C   0  0  0  0  0  0  0  0  0  0  0  0
   12.9239   43.4177  133.6768 C   0  0  0  0  0  0  0  0  0  0  0  0
   12.4720   42.6728  132.6085 C   0  0  0  0  0  0  0  0  0  0  0  0
   11.2094   42.9102  132.0496 C   0  0  0  0  0  0  0  0  0  0  0  0
   10.3818   43.8912  132.5468 C   0  0  0  0  0  0  0  0  0  0  0  0
    9.0403   44.1623  132.0334 C   0  0  0  0  0  0  0  0  0  0  0  0
    8.7894   45.6245  131.8475 C   0  0  0  0  0  0  0  0  0  0  0  0
    7.3266   45.9165  131.8177 C   0  0  0  0  0  0  0  0  0  0  0  0
    6.7138   46.0774  132.8852 O   0  0  0  0  0  0  0  0  0  0  0  0
    6.6860   46.0024  130.6155 O   0  0  0  0  0  0  0  0  0  0  0  0
    6.9568   46.7614  129.9924 H   0  0  0  0  0  0  0  0  0  0  0  0
    8.0390   48.5726  131.2019 N   0  0  0  0  0  0  0  0  0  0  0  0
    7.8105   47.5460  131.2150 H   0  0  0  0  0  0  0  0  0  0  0  0
    7.9459   49.0054  129.8268 C   0  0  0  0  0  0  0  0  0  0  0  0
    6.6017   49.5814  129.5292 C   0  0  0  0  0  0  0  0  0  0  0  0
    6.3543   50.8052  129.6688 O   0  0  0  0  0  0  0  0  0  0  0  0
    5.5547   48.7879  129.0809 O   0  0  0  0  0  0  0  0  0  0  0  0
    5.3365   47.8766  129.4568 H   0  0  0  0  0  0  0  0  0  0  0  0
    8.2972   47.9024  128.8611 C   0  0  0  0  0  0  0  0  0  0  0  0
    9.7648   47.5489  128.9147 C   0  0  0  0  0  0  0  0  0  0  0  0
    9.9849   46.0872  128.7826 C   0  0  0  0  0  0  0  0  0  0  0  0
    8.9356   45.2050  128.5573 C   0  0  0  0  0  0  0  0  0  0  0  0
    9.1057   43.8439  128.4328 C   0  0  0  0  0  0  0  0  0  0  0  0
   10.3740   43.3063  128.5335 C   0  0  0  0  0  0  0  0  0  0  0  0
   11.4483   44.1638  128.7593 C   0  0  0  0  0  0  0  0  0  0  0  0
   11.2416   45.5185  128.8784 C   0  0  0  0  0  0  0  0  0  0  0  0
  1  2  1  0  0  0
  2 19  1  0  0  0
 19 21  1  0  0  0
 21 26  1  0  0  0
 26 27  1  0  0  0
 27 28  1  0  0  0
 28 29  2  0  0  0
 29 30  1  0  0  0
 30 31  2  0  0  0
 31 32  1  0  0  0
 32 33  2  0  0  0
 21 22  1  0  0  0
 22 23  2  0  0  0
 22 24  1  0  0  0
  2  3  1  0  0  0
  3  4  2  0  0  0
  3  5  1  0  0  0
  5  6  1  0  0  0
  6  7  1  0  0  0
  7  8  2  0  0  0
  8  9  1  0  0  0
  9 10  2  0  0  0
 10 11  1  0  0  0
 11 12  2  0  0  0
 12 13  1  0  0  0
 13 14  1  0  0  0
 14 15  1  0  0  0
 15 16  2  0  0  0
 15 17  1  0  0  0
 33 28  1  0  0  0
 14  5  1  0  0  0
 12  7  1  0  0  0
 19 20  1  0  0  0
 24 25  1  0  0  0
 17 18  1  0  0  0
M  END
> <minimizedAffinity>
-5.31197

> <CNNscore>
0.1266796589

> <CNNaffinity>
6.5841531754

> <CNN_VS>
0.8340782523

> <CNNaffinity_variance>
0.1813864708

$$$$
[H]OC(=O)[C@@]1([H])N(C(=O)[C@@]([H])(N([H])[C@]([H])(C(=O)O[H])C([H])([H])C([H])([H])c2c([H])c([H])c([H])c([H])c2[H])C([H])([H])[H])C([H])([H])c2c([H])c([H])c([H])c([H])c2C1([H])[H]


 33 35  0  0  0  0  0  0  0  0999 V2000
    9.3215   45.6329  134.0993 C   0  0  0  0  0  0  0  0  0  0  0  0
   10.6979   46.3149  134.1501 C   0  0  0  0  0  0  0  0  0  0  0  0
   11.4988   45.7159  133.0789 C   0  0  0  0  0  0  0  0  0  0  0  0
   12.5577   46.3524  132.7434 O   0  0  0  0  0  0  0  0  0  0  0  0
   11.2280   44.5190  132.3821 N   0  0  0  0  0  0  0  0  0  0  0  0
   12.1630   44.1319  131.3001 C   0  0  0  0  0  0  0  0  0  0  0  0
   11.3399   44.0629  130.0361 C   0  0  0  0  0  0  0  0  0  0  0  0
   11.7024   44.6604  128.8590 C   0  0  0  0  0  0  0  0  0  0  0  0
   10.8506   44.5667  127.7464 C   0  0  0  0  0  0  0  0  0  0  0  0
    9.6696   43.8691  127.8840 C   0  0  0  0  0  0  0  0  0  0  0  0
    9.3275   43.2682  129.1025 C   0  0  0  0  0  0  0  0  0  0  0  0
   10.1561   43.3542  130.1981 C   0  0  0  0  0  0  0  0  0  0  0  0
    9.8748   42.7184  131.4839 C   0  0  0  0  0  0  0  0  0  0  0  0
   10.1248   43.6366  132.6371 C   0  0  0  0  0  0  0  0  0  0  0  0
   10.3238   42.8672  133.8998 C   0  0  0  0  0  0  0  0  0  0  0  0
    9.4882   42.0115  134.2320 O   0  0  0  0  0  0  0  0  0  0  0  0
   11.4231   43.1173  134.6693 O   0  0  0  0  0  0  0  0  0  0  0  0
   12.3348   42.9005  134.2699 H   0  0  0  0  0  0  0  0  0  0  0  0
   10.4132   47.7242  133.9032 N   0  0  0  0  0  0  0  0  0  0  0  0
    9.5517   47.9480  134.4636 H   0  0  0  0  0  0  0  0  0  0  0  0
   10.0630   47.8901  132.5116 C   0  0  0  0  0  0  0  0  0  0  0  0
   10.0316   49.3321  132.1281 C   0  0  0  0  0  0  0  0  0  0  0  0
    9.8680   50.2446  132.9760 O   0  0  0  0  0  0  0  0  0  0  0  0
   10.1831   49.7361  130.8089 O   0  0  0  0  0  0  0  0  0  0  0  0
    9.7402   49.2798  130.0247 H   0  0  0  0  0  0  0  0  0  0  0  0
    8.7665   47.2018  132.1681 C   0  0  0  0  0  0  0  0  0  0  0  0
    8.7967   46.5944  130.7854 C   0  0  0  0  0  0  0  0  0  0  0  0
    7.6978   47.1109  129.9323 C   0  0  0  0  0  0  0  0  0  0  0  0
    6.3982   46.6321  130.0409 C   0  0  0  0  0  0  0  0  0  0  0  0
    5.3570   47.0880  129.2628 C   0  0  0  0  0  0  0  0  0  0  0  0
    5.5930   48.0700  128.3207 C   0  0  0  0  0  0  0  0  0  0  0  0
    6.8856   48.5717  128.1864 C   0  0  0  0  0  0  0  0  0  0  0  0
    7.9016   48.0931  128.9806 C   0  0  0  0  0  0  0  0  0  0  0  0
  1  2  1  0  0  0
  2 19  1  0  0  0
 19 21  1  0  0  0
 21 26  1  0  0  0
 26 27  1  0  0  0
 27 28  1  0  0  0
 28 29  2  0  0  0
 29 30  1  0  0  0
 30 31  2  0  0  0
 31 32  1  0  0  0
 32 33  2  0  0  0
 21 22  1  0  0  0
 22 23  2  0  0  0
 22 24  1  0  0  0
  2  3  1  0  0  0
  3  4  2  0  0  0
  3  5  1  0  0  0
  5  6  1  0  0  0
  6  7  1  0  0  0
  7  8  2  0  0  0
  8  9  1  0  0  0
  9 10  2  0  0  0
 10 11  1  0  0  0
 11 12  2  0  0  0
 12 13  1  0  0  0
 13 14  1  0  0  0
 14 15  1  0  0  0
 15 16  2  0  0  0
 15 17  1  0  0  0
 33 28  1  0  0  0
 14  5  1  0  0  0
 12  7  1  0  0  0
 19 20  1  0  0  0
 24 25  1  0  0  0
 17 18  1  0  0  0
M  END
> <minimizedAffinity>
-7.55787

> <CNNscore>
0.1173645481

> <CNNaffinity>
6.6204857826

> <CNN_VS>
0.7770103216

> <CNNaffinity_variance>
0.2099900693

$$$$
[H]OC(=O)[C@@]1([H])N(C(=O)[C@@]([H])(N([H])[C@]([H])(C(=O)O[H])C([H])([H])C([H])([H])c2c([H])c([H])c([H])c([H])c2[H])C([H])([H])[H])C([H])([H])c2c([H])c([H])c([H])c([H])c2C1([H])[H]


 33 35  0  0  0  0  0  0  0  0999 V2000
    9.0271   47.6428  134.5339 C   0  0  0  0  0  0  0  0  0  0  0  0
    9.3589   46.5177  133.5409 C   0  0  0  0  0  0  0  0  0  0  0  0
    9.5161   47.1531  132.2296 C   0  0  0  0  0  0  0  0  0  0  0  0
   10.5430   47.9042  132.0867 O   0  0  0  0  0  0  0  0  0  0  0  0
    8.6606   47.0257  131.1147 N   0  0  0  0  0  0  0  0  0  0  0  0
    9.0003   47.8036  129.9004 C   0  0  0  0  0  0  0  0  0  0  0  0
    7.8219   48.7102  129.6372 C   0  0  0  0  0  0  0  0  0  0  0  0
    7.9349   50.0521  129.3909 C   0  0  0  0  0  0  0  0  0  0  0  0
    6.7744   50.8173  129.1910 C   0  0  0  0  0  0  0  0  0  0  0  0
    5.5531   50.1809  129.2513 C   0  0  0  0  0  0  0  0  0  0  0  0
    5.4710   48.8055  129.5048 C   0  0  0  0  0  0  0  0  0  0  0  0
    6.6028   48.0472  129.7013 C   0  0  0  0  0  0  0  0  0  0  0  0
    6.5863   46.6038  129.9316 C   0  0  0  0  0  0  0  0  0  0  0  0
    7.4892   46.1983  131.0522 C   0  0  0  0  0  0  0  0  0  0  0  0
    7.8480   44.7535  130.9537 C   0  0  0  0  0  0  0  0  0  0  0  0
    7.8871   44.2083  129.8392 O   0  0  0  0  0  0  0  0  0  0  0  0
    8.1281   44.0546  132.0922 O   0  0  0  0  0  0  0  0  0  0  0  0
    8.9530   44.3313  132.6219 H   0  0  0  0  0  0  0  0  0  0  0  0
   10.6113   45.9561  134.0349 N   0  0  0  0  0  0  0  0  0  0  0  0
   11.3353   46.7088  133.9101 H   0  0  0  0  0  0  0  0  0  0  0  0
   10.9967   44.8576  133.1796 C   0  0  0  0  0  0  0  0  0  0  0  0
   10.9028   43.5524  133.8971 C   0  0  0  0  0  0  0  0  0  0  0  0
   10.1620   42.6212  133.4942 O   0  0  0  0  0  0  0  0  0  0  0  0
   11.6341   43.3036  135.0504 O   0  0  0  0  0  0  0  0  0  0  0  0
   11.7503   43.9702  135.7996 H   0  0  0  0  0  0  0  0  0  0  0  0
   12.3660   45.0589  132.5819 C   0  0  0  0  0  0  0  0  0  0  0  0
   12.7139   43.9777  131.5861 C   0  0  0  0  0  0  0  0  0  0  0  0
   11.8790   44.0661  130.3623 C   0  0  0  0  0  0  0  0  0  0  0  0
   11.0197   43.0417  129.9853 C   0  0  0  0  0  0  0  0  0  0  0  0
   10.2342   43.0914  128.8550 C   0  0  0  0  0  0  0  0  0  0  0  0
   10.2867   44.2054  128.0402 C   0  0  0  0  0  0  0  0  0  0  0  0
   11.1386   45.2507  128.3901 C   0  0  0  0  0  0  0  0  0  0  0  0
   11.9090   45.1672  129.5265 C   0  0  0  0  0  0  0  0  0  0  0  0
  1  2  1  0  0  0
  2 19  1  0  0  0
 19 21  1  0  0  0
 21 26  1  0  0  0
 26 27  1  0  0  0
 27 28  1  0  0  0
 28 29  2  0  0  0
 29 30  1  0  0  0
 30 31  2  0  0  0
 31 32  1  0  0  0
 32 33  2  0  0  0
 21 22  1  0  0  0
 22 23  2  0  0  0
 22 24  1  0  0  0
  2  3  1  0  0  0
  3  4  2  0  0  0
  3  5  1  0  0  0
  5  6  1  0  0  0
  6  7  1  0  0  0
  7  8  2  0  0  0
  8  9  1  0  0  0
  9 10  2  0  0  0
 10 11  1  0  0  0
 11 12  2  0  0  0
 12 13  1  0  0  0
 13 14  1  0  0  0
 14 15  1  0  0  0
 15 16  2  0  0  0
 15 17  1  0  0  0
 33 28  1  0  0  0
 14  5  1  0  0  0
 12  7  1  0  0  0
 19 20  1  0  0  0
 24 25  1  0  0  0
 17 18  1  0  0  0
M  END
> <minimizedAffinity>
-7.67895

> <CNNscore>
0.1057478338

> <CNNaffinity>
6.4524931908

> <CNN_VS>
0.6823371649

> <CNNaffinity_variance>
0.2571831346

$$$$
[H]OC(=O)[C@@]1([H])N(C(=O)[C@@]([H])(N([H])[C@]([H])(C(=O)O[H])C([H])([H])C([H])([H])c2c([H])c([H])c([H])c([H])c2[H])C([H])([H])[H])C([H])([H])c2c([H])c([H])c([H])c([H])c2C1([H])[H]


 33 35  0  0  0  0  0  0  0  0999 V2000
    9.6826   49.7541  132.8450 C   0  0  0  0  0  0  0  0  0  0  0  0
    9.7265   48.7163  131.7123 C   0  0  0  0  0  0  0  0  0  0  0  0
   10.6781   47.6834  132.1311 C   0  0  0  0  0  0  0  0  0  0  0  0
   11.8820   47.8257  131.7193 O   0  0  0  0  0  0  0  0  0  0  0  0
   10.4097   46.5553  132.9352 N   0  0  0  0  0  0  0  0  0  0  0  0
   11.5276   45.6176  133.1918 C   0  0  0  0  0  0  0  0  0  0  0  0
   11.0902   44.2801  132.6444 C   0  0  0  0  0  0  0  0  0  0  0  0
   11.8638   43.5046  131.8233 C   0  0  0  0  0  0  0  0  0  0  0  0
   11.3529   42.2895  131.3387 C   0  0  0  0  0  0  0  0  0  0  0  0
   10.0783   41.9207  131.7124 C   0  0  0  0  0  0  0  0  0  0  0  0
    9.3118   42.7365  132.5549 C   0  0  0  0  0  0  0  0  0  0  0  0
    9.8043   43.9286  133.0353 C   0  0  0  0  0  0  0  0  0  0  0  0
    9.0705   44.8049  133.9466 C   0  0  0  0  0  0  0  0  0  0  0  0
    9.1440   46.2403  133.5348 C   0  0  0  0  0  0  0  0  0  0  0  0
    8.8473   47.1425  134.6854 C   0  0  0  0  0  0  0  0  0  0  0  0
    7.9389   47.9825  134.5848 O   0  0  0  0  0  0  0  0  0  0  0  0
    9.5803   47.0286  135.8312 O   0  0  0  0  0  0  0  0  0  0  0  0
    9.4989   46.1594  136.3560 H   0  0  0  0  0  0  0  0  0  0  0  0
    8.3612   48.2084  131.6331 N   0  0  0  0  0  0  0  0  0  0  0  0
    8.3984   47.2209  131.9935 H   0  0  0  0  0  0  0  0  0  0  0  0
    7.9737   48.1333  130.2435 C   0  0  0  0  0  0  0  0  0  0  0  0
    7.2858   49.3826  129.8038 C   0  0  0  0  0  0  0  0  0  0  0  0
    6.7773   50.1880  130.6230 O   0  0  0  0  0  0  0  0  0  0  0  0
    7.1747   49.7163  128.4611 O   0  0  0  0  0  0  0  0  0  0  0  0
    6.9412   49.0567  127.7333 H   0  0  0  0  0  0  0  0  0  0  0  0
    7.1360   46.9137  129.9544 C   0  0  0  0  0  0  0  0  0  0  0  0
    7.7409   45.6595  130.5399 C   0  0  0  0  0  0  0  0  0  0  0  0
    8.8101   45.1062  129.6721 C   0  0  0  0  0  0  0  0  0  0  0  0
    9.9818   45.8069  129.4151 C   0  0  0  0  0  0  0  0  0  0  0  0
   10.9914   45.3231  128.6127 C   0  0  0  0  0  0  0  0  0  0  0  0
   10.8542   44.0815  128.0233 C   0  0  0  0  0  0  0  0  0  0  0  0
    9.6909   43.3529  128.2608 C   0  0  0  0  0  0  0  0  0  0  0  0
    8.7028   43.8671  129.0679 C   0  0  0  0  0  0  0  0  0  0  0  0
  1  2  1  0  0  0
  2 19  1  0  0  0
 19 21  1  0  0  0
 21 26  1  0  0  0
 26 27  1  0  0  0
 27 28  1  0  0  0
 28 29  2  0  0  0
 29 30  1  0  0  0
 30 31  2  0  0  0
 31 32  1  0  0  0
 32 33  2  0  0  0
 21 22  1  0  0  0
 22 23  2  0  0  0
 22 24  1  0  0  0
  2  3  1  0  0  0
  3  4  2  0  0  0
  3  5  1  0  0  0
  5  6  1  0  0  0
  6  7  1  0  0  0
  7  8  2  0  0  0
  8  9  1  0  0  0
  9 10  2  0  0  0
 10 11  1  0  0  0
 11 12  2  0  0  0
 12 13  1  0  0  0
 13 14  1  0  0  0
 14 15  1  0  0  0
 15 16  2  0  0  0
 15 17  1  0  0  0
 33 28  1  0  0  0
 14  5  1  0  0  0
 12  7  1  0  0  0
 19 20  1  0  0  0
 24 25  1  0  0  0
 17 18  1  0  0  0
M  END
> <minimizedAffinity>
-6.10795

> <CNNscore>
0.1028643325

> <CNNaffinity>
6.7316384315

> <CNN_VS>
0.6924455166

> <CNNaffinity_variance>
0.3118862510

$$$$
[H]OC(=O)[C@@]1([H])N(C(=O)[C@@]([H])(N([H])[C@]([H])(C(=O)O[H])C([H])([H])C([H])([H])c2c([H])c([H])c([H])c([H])c2[H])C([H])([H])[H])C([H])([H])c2c([H])c([H])c([H])c([H])c2C1([H])[H]


 33 35  0  0  0  0  0  0  0  0999 V2000
   10.7158   41.5037  133.0075 C   0  0  0  0  0  0  0  0  0  0  0  0
   11.2403   42.9319  132.7901 C   0  0  0  0  0  0  0  0  0  0  0  0
   11.1939   43.1768  131.3459 C   0  0  0  0  0  0  0  0  0  0  0  0
   12.2905   43.0014  130.7089 O   0  0  0  0  0  0  0  0  0  0  0  0
   10.0753   43.5830  130.5877 N   0  0  0  0  0  0  0  0  0  0  0  0
   10.2793   43.8131  129.1384 C   0  0  0  0  0  0  0  0  0  0  0  0
    9.9147   45.2564  128.8852 C   0  0  0  0  0  0  0  0  0  0  0  0
   10.7021   46.1274  128.1813 C   0  0  0  0  0  0  0  0  0  0  0  0
   10.2903   47.4613  128.0289 C   0  0  0  0  0  0  0  0  0  0  0  0
    9.0963   47.8464  128.6004 C   0  0  0  0  0  0  0  0  0  0  0  0
    8.3128   46.9304  129.3145 C   0  0  0  0  0  0  0  0  0  0  0  0
    8.7078   45.6210  129.4685 C   0  0  0  0  0  0  0  0  0  0  0  0
    7.9185   44.6091  130.1683 C   0  0  0  0  0  0  0  0  0  0  0  0
    8.7496   43.7860  131.0996 C   0  0  0  0  0  0  0  0  0  0  0  0
    8.0807   42.4886  131.4082 C   0  0  0  0  0  0  0  0  0  0  0  0
    7.8316   41.6952  130.4866 O   0  0  0  0  0  0  0  0  0  0  0  0
    7.7541   42.1952  132.7006 O   0  0  0  0  0  0  0  0  0  0  0  0
    8.5189   42.0789  133.3633 H   0  0  0  0  0  0  0  0  0  0  0  0
   10.3040   43.7772  133.5229 N   0  0  0  0  0  0  0  0  0  0  0  0
    9.3527   43.5663  133.1268 H   0  0  0  0  0  0  0  0  0  0  0  0
   10.5890   45.1598  133.2161 C   0  0  0  0  0  0  0  0  0  0  0  0
   12.0541   45.4379  133.2756 C   0  0  0  0  0  0  0  0  0  0  0  0
   12.6881   45.8894  132.2895 O   0  0  0  0  0  0  0  0  0  0  0  0
   12.7901   45.2099  134.4301 O   0  0  0  0  0  0  0  0  0  0  0  0
   12.6874   44.3915  135.0123 H   0  0  0  0  0  0  0  0  0  0  0  0
    9.8137   46.1064  134.0967 C   0  0  0  0  0  0  0  0  0  0  0  0
   10.3476   47.5173  134.0195 C   0  0  0  0  0  0  0  0  0  0  0  0
    9.6290   48.3237  133.0016 C   0  0  0  0  0  0  0  0  0  0  0  0
   10.1886   49.4654  132.4419 C   0  0  0  0  0  0  0  0  0  0  0  0
    9.5475   50.2368  131.4980 C   0  0  0  0  0  0  0  0  0  0  0  0
    8.2842   49.8767  131.0712 C   0  0  0  0  0  0  0  0  0  0  0  0
    7.6946   48.7367  131.6129 C   0  0  0  0  0  0  0  0  0  0  0  0
    8.3641   47.9897  132.5540 C   0  0  0  0  0  0  0  0  0  0  0  0
  1  2  1  0  0  0
  2 19  1  0  0  0
 19 21  1  0  0  0
 21 26  1  0  0  0
 26 27  1  0  0  0
 27 28  1  0  0  0
 28 29  2  0  0  0
 29 30  1  0  0  0
 30 31  2  0  0  0
 31 32  1  0  0  0
 32 33  2  0  0  0
 21 22  1  0  0  0
 22 23  2  0  0  0
 22 24  1  0  0  0
  2  3  1  0  0  0
  3  4  2  0  0  0
  3  5  1  0  0  0
  5  6  1  0  0  0
  6  7  1  0  0  0
  7  8  2  0  0  0
  8  9  1  0  0  0
  9 10  2  0  0  0
 10 11  1  0  0  0
 11 12  2  0  0  0
 12 13  1  0  0  0
 13 14  1  0  0  0
 14 15  1  0  0  0
 15 16  2  0  0  0
 15 17  1  0  0  0
 33 28  1  0  0  0
 14  5  1  0  0  0
 12  7  1  0  0  0
 19 20  1  0  0  0
 24 25  1  0  0  0
 17 18  1  0  0  0
M  END
> <minimizedAffinity>
-2.06034

> <CNNscore>
0.0874969587

> <CNNaffinity>
6.7370758057

> <CNN_VS>
0.5894736648

> <CNNaffinity_variance>
0.2981185019

$$$$
[H]OC(=O)[C@@]1([H])N(C(=O)[C@@]([H])(N([H])[C@]([H])(C(=O)O[H])C([H])([H])C([H])([H])c2c([H])c([H])c([H])c([H])c2[H])C([H])([H])[H])C([H])([H])c2c([H])c([H])c([H])c([H])c2C1([H])[H]


 33 35  0  0  0  0  0  0  0  0999 V2000
    9.6232   45.5529  135.5254 C   0  0  0  0  0  0  0  0  0  0  0  0
    9.8799   45.4882  134.0115 C   0  0  0  0  0  0  0  0  0  0  0  0
   10.1429   46.8623  133.5750 C   0  0  0  0  0  0  0  0  0  0  0  0
   10.1448   47.7548  134.4930 O   0  0  0  0  0  0  0  0  0  0  0  0
   10.3926   47.3034  132.2581 N   0  0  0  0  0  0  0  0  0  0  0  0
   10.5883   48.7571  132.0499 C   0  0  0  0  0  0  0  0  0  0  0  0
    9.5072   49.1950  131.0910 C   0  0  0  0  0  0  0  0  0  0  0  0
    8.7025   50.2830  131.2975 C   0  0  0  0  0  0  0  0  0  0  0  0
    7.7016   50.5890  130.3612 C   0  0  0  0  0  0  0  0  0  0  0  0
    7.5665   49.7729  129.2583 C   0  0  0  0  0  0  0  0  0  0  0  0
    8.4065   48.6668  129.0754 C   0  0  0  0  0  0  0  0  0  0  0  0
    9.3907   48.3595  129.9873 C   0  0  0  0  0  0  0  0  0  0  0  0
   10.3225   47.2436  129.8349 C   0  0  0  0  0  0  0  0  0  0  0  0
   10.4814   46.4611  131.0990 C   0  0  0  0  0  0  0  0  0  0  0  0
   11.7535   45.6815  131.0889 C   0  0  0  0  0  0  0  0  0  0  0  0
   11.9304   44.8121  130.2207 O   0  0  0  0  0  0  0  0  0  0  0  0
   12.7028   45.9381  132.0354 O   0  0  0  0  0  0  0  0  0  0  0  0
   13.1429   46.8566  132.0219 H   0  0  0  0  0  0  0  0  0  0  0  0
   11.0548   44.6336  133.8795 N   0  0  0  0  0  0  0  0  0  0  0  0
   11.5546   44.9604  133.0135 H   0  0  0  0  0  0  0  0  0  0  0  0
   10.6182   43.2801  133.6261 C   0  0  0  0  0  0  0  0  0  0  0  0
   11.5535   42.5719  132.7036 C   0  0  0  0  0  0  0  0  0  0  0  0
   11.1842   41.6046  131.9922 O   0  0  0  0  0  0  0  0  0  0  0  0
   12.8837   42.9508  132.5868 O   0  0  0  0  0  0  0  0  0  0  0  0
   13.4724   43.1924  133.3706 H   0  0  0  0  0  0  0  0  0  0  0  0
    9.2001   43.2287  133.1169 C   0  0  0  0  0  0  0  0  0  0  0  0
    9.1415   42.9723  131.6295 C   0  0  0  0  0  0  0  0  0  0  0  0
    8.4023   44.0423  130.9144 C   0  0  0  0  0  0  0  0  0  0  0  0
    7.6032   44.9576  131.5880 C   0  0  0  0  0  0  0  0  0  0  0  0
    6.9026   45.9598  130.9543 C   0  0  0  0  0  0  0  0  0  0  0  0
    6.9832   46.0805  129.5807 C   0  0  0  0  0  0  0  0  0  0  0  0
    7.7761   45.1783  128.8751 C   0  0  0  0  0  0  0  0  0  0  0  0
    8.4624   44.1894  129.5408 C   0  0  0  0  0  0  0  0  0  0  0  0
  1  2  1  0  0  0
  2 19  1  0  0  0
 19 21  1  0  0  0
 21 26  1  0  0  0
 26 27  1  0  0  0
 27 28  1  0  0  0
 28 29  2  0  0  0
 29 30  1  0  0  0
 30 31  2  0  0  0
 31 32  1  0  0  0
 32 33  2  0  0  0
 21 22  1  0  0  0
 22 23  2  0  0  0
 22 24  1  0  0  0
  2  3  1  0  0  0
  3  4  2  0  0  0
  3  5  1  0  0  0
  5  6  1  0  0  0
  6  7  1  0  0  0
  7  8  2  0  0  0
  8  9  1  0  0  0
  9 10  2  0  0  0
 10 11  1  0  0  0
 11 12  2  0  0  0
 12 13  1  0  0  0
 13 14  1  0  0  0
 14 15  1  0  0  0
 15 16  2  0  0  0
 15 17  1  0  0  0
 33 28  1  0  0  0
 14  5  1  0  0  0
 12  7  1  0  0  0
 19 20  1  0  0  0
 24 25  1  0  0  0
 17 18  1  0  0  0
M  END
> <minimizedAffinity>
-6.19855

> <CNNscore>
0.0857927576

> <CNNaffinity>
6.4621505737

> <CNN_VS>
0.5544056892

> <CNNaffinity_variance>
0.1850879043

$$$$
[H]OC(=O)[C@@]1([H])N(c2nc(C#N)nc([H])c2[H])C([H])([H])[C@@]([H])(S(=O)(=O)c2c([H])c([H])c([H])c([H])c2C(F)(F)F)C1([H])[H]


 30 32  0  0  0  0  0  0  0  0999 V2000
    9.2786   46.8640  130.2322 N   0  0  0  0  0  0  0  0  0  0  0  0
    9.8158   46.4421  131.5081 C   0  0  0  0  0  0  0  0  0  0  0  0
    8.5295   46.5163  132.3764 C   0  0  0  0  0  0  0  0  0  0  0  0
    8.0317   47.8463  131.9891 C   0  0  0  0  0  0  0  0  0  0  0  0
    8.3919   47.9499  130.4945 C   0  0  0  0  0  0  0  0  0  0  0  0
    9.9500   44.3709  127.6359 C   0  0  0  0  0  0  0  0  0  0  0  0
   10.2392   45.1354  126.5680 N   0  0  0  0  0  0  0  0  0  0  0  0
   10.2291   46.4906  126.6431 C   0  0  0  0  0  0  0  0  0  0  0  0
    9.9069   47.0307  127.8709 C   0  0  0  0  0  0  0  0  0  0  0  0
    9.6061   46.2727  128.9830 C   0  0  0  0  0  0  0  0  0  0  0  0
    9.6399   44.9318  128.8189 N   0  0  0  0  0  0  0  0  0  0  0  0
   10.0118   41.7770  127.3819 N   0  0  0  0  0  0  0  0  0  0  0  0
    9.9773   42.9440  127.4943 C   0  0  0  0  0  0  0  0  0  0  0  0
    8.9602   49.2711  130.1894 C   0  0  0  0  0  0  0  0  0  0  0  0
   10.1405   49.5267  130.5011 O   0  0  0  0  0  0  0  0  0  0  0  0
    8.2018   50.2338  129.5607 O   0  0  0  0  0  0  0  0  0  0  0  0
    8.0694   51.1745  129.9231 H   0  0  0  0  0  0  0  0  0  0  0  0
    9.0394   46.3934  134.1079 S   0  0  0  0  0  0  0  0  0  0  0  0
    9.2581   47.8161  134.5314 O   0  0  0  0  0  0  0  0  0  0  0  0
    7.8551   45.7935  134.7820 O   0  0  0  0  0  0  0  0  0  0  0  0
   10.5069   45.4839  134.2432 C   0  0  0  0  0  0  0  0  0  0  0  0
   11.6074   46.1282  134.7352 C   0  0  0  0  0  0  0  0  0  0  0  0
   12.7898   45.4358  134.8802 C   0  0  0  0  0  0  0  0  0  0  0  0
   12.8899   44.1105  134.5423 C   0  0  0  0  0  0  0  0  0  0  0  0
   11.7629   43.5002  134.0528 C   0  0  0  0  0  0  0  0  0  0  0  0
   10.5350   44.1573  133.8845 C   0  0  0  0  0  0  0  0  0  0  0  0
    9.3964   43.4097  133.3514 C   0  0  0  0  0  0  0  0  0  0  0  0
    9.2623   43.4155  131.9819 F   0  0  0  0  0  0  0  0  0  0  0  0
    8.2025   43.6636  133.9958 F   0  0  0  0  0  0  0  0  0  0  0  0
    9.6179   42.0515  133.6383 F   0  0  0  0  0  0  0  0  0  0  0  0
 12 13  3  0  0  0
 13  6  1  0  0  0
  6  7  2  0  0  0
  7  8  1  0  0  0
  8  9  2  0  0  0
  9 10  1  0  0  0
 10  1  1  0  0  0
  1  2  1  0  0  0
  2  3  1  0  0  0
  3 18  1  0  0  0
 18 19  2  0  0  0
 18 20  2  0  0  0
 18 21  1  0  0  0
 21 22  2  0  0  0
 22 23  1  0  0  0
 23 24  2  0  0  0
 24 25  1  0  0  0
 25 26  2  0  0  0
 26 27  1  0  0  0
 27 28  1  0  0  0
 27 29  1  0  0  0
 27 30  1  0  0  0
  3  4  1  0  0  0
  4  5  1  0  0  0
  5 14  1  0  0  0
 14 15  2  0  0  0
 14 16  1  0  0  0
 10 11  2  0  0  0
 11  6  1  0  0  0
  5  1  1  0  0  0
 26 21  1  0  0  0
 16 17  1  0  0  0
M  END
> <minimizedAffinity>
5.38032

> <CNNscore>
0.4429071844

> <CNNaffinity>
7.4396896362

> <CNN_VS>
3.2950921059

> <CNNaffinity_variance>
2.5507836342

$$$$
[H]OC(=O)[C@@]1([H])N(c2nc(C#N)nc([H])c2[H])C([H])([H])[C@@]([H])(S(=O)(=O)c2c([H])c([H])c([H])c([H])c2C(F)(F)F)C1([H])[H]


 30 32  0  0  0  0  0  0  0  0999 V2000
   10.5274   45.8129  133.4812 N   0  0  0  0  0  0  0  0  0  0  0  0
   11.1133   45.4079  132.2214 C   0  0  0  0  0  0  0  0  0  0  0  0
   10.5165   43.9788  132.0972 C   0  0  0  0  0  0  0  0  0  0  0  0
   10.8006   43.4612  133.4454 C   0  0  0  0  0  0  0  0  0  0  0  0
   10.6082   44.6893  134.3560 C   0  0  0  0  0  0  0  0  0  0  0  0
    8.5371   48.5148  134.9459 C   0  0  0  0  0  0  0  0  0  0  0  0
    8.9472   49.5882  134.2473 N   0  0  0  0  0  0  0  0  0  0  0  0
    9.8855   49.4829  133.2721 C   0  0  0  0  0  0  0  0  0  0  0  0
   10.3882   48.2186  133.0439 C   0  0  0  0  0  0  0  0  0  0  0  0
    9.9873   47.1000  133.7438 C   0  0  0  0  0  0  0  0  0  0  0  0
    9.0492   47.2958  134.6965 N   0  0  0  0  0  0  0  0  0  0  0  0
    6.7309   48.8207  136.8009 N   0  0  0  0  0  0  0  0  0  0  0  0
    7.5424   48.6896  135.9642 C   0  0  0  0  0  0  0  0  0  0  0  0
   11.6952   44.7780  135.3420 C   0  0  0  0  0  0  0  0  0  0  0  0
   11.5965   44.1784  136.4312 O   0  0  0  0  0  0  0  0  0  0  0  0
   12.8259   45.5184  135.0762 O   0  0  0  0  0  0  0  0  0  0  0  0
   13.1818   46.2464  135.6902 H   0  0  0  0  0  0  0  0  0  0  0  0
   11.4158   43.1315  130.7756 S   0  0  0  0  0  0  0  0  0  0  0  0
   12.7841   43.7461  130.8056 O   0  0  0  0  0  0  0  0  0  0  0  0
   11.4398   41.7109  131.2207 O   0  0  0  0  0  0  0  0  0  0  0  0
   10.6529   43.4147  129.2469 C   0  0  0  0  0  0  0  0  0  0  0  0
   11.4435   43.8326  128.2131 C   0  0  0  0  0  0  0  0  0  0  0  0
   10.8809   44.0484  126.9739 C   0  0  0  0  0  0  0  0  0  0  0  0
    9.5420   43.8527  126.7512 C   0  0  0  0  0  0  0  0  0  0  0  0
    8.7832   43.4325  127.8141 C   0  0  0  0  0  0  0  0  0  0  0  0
    9.3040   43.1984  129.0955 C   0  0  0  0  0  0  0  0  0  0  0  0
    8.4027   42.7537  130.1582 C   0  0  0  0  0  0  0  0  0  0  0  0
    8.8911   41.7704  130.9876 F   0  0  0  0  0  0  0  0  0  0  0  0
    7.1160   42.4899  129.7339 F   0  0  0  0  0  0  0  0  0  0  0  0
    8.2215   43.8391  131.0330 F   0  0  0  0  0  0  0  0  0  0  0  0
 12 13  3  0  0  0
 13  6  1  0  0  0
  6  7  2  0  0  0
  7  8  1  0  0  0
  8  9  2  0  0  0
  9 10  1  0  0  0
 10  1  1  0  0  0
  1  2  1  0  0  0
  2  3  1  0  0  0
  3 18  1  0  0  0
 18 19  2  0  0  0
 18 20  2  0  0  0
 18 21  1  0  0  0
 21 22  2  0  0  0
 22 23  1  0  0  0
 23 24  2  0  0  0
 24 25  1  0  0  0
 25 26  2  0  0  0
 26 27  1  0  0  0
 27 28  1  0  0  0
 27 29  1  0  0  0
 27 30  1  0  0  0
  3  4  1  0  0  0
  4  5  1  0  0  0
  5 14  1  0  0  0
 14 15  2  0  0  0
 14 16  1  0  0  0
 10 11  2  0  0  0
 11  6  1  0  0  0
  5  1  1  0  0  0
 26 21  1  0  0  0
 16 17  1  0  0  0
M  END
> <minimizedAffinity>
14.15015

> <CNNscore>
0.4327057600

> <CNNaffinity>
6.9640769958

> <CNN_VS>
3.0133962631

> <CNNaffinity_variance>
2.5889649391

$$$$
[H]OC(=O)[C@@]1([H])N(c2nc(C#N)nc([H])c2[H])C([H])([H])[C@@]([H])(S(=O)(=O)c2c([H])c([H])c([H])c([H])c2C(F)(F)F)C1([H])[H]


 30 32  0  0  0  0  0  0  0  0999 V2000
    9.5115   46.3053  129.4957 N   0  0  0  0  0  0  0  0  0  0  0  0
    9.9394   46.1702  130.8716 C   0  0  0  0  0  0  0  0  0  0  0  0
   11.4520   45.8896  130.6539 C   0  0  0  0  0  0  0  0  0  0  0  0
   11.3758   44.8504  129.6143 C   0  0  0  0  0  0  0  0  0  0  0  0
   10.1729   45.2824  128.7537 C   0  0  0  0  0  0  0  0  0  0  0  0
    7.3798   49.2785  129.3447 C   0  0  0  0  0  0  0  0  0  0  0  0
    6.8447   49.1891  128.1142 N   0  0  0  0  0  0  0  0  0  0  0  0
    7.1512   48.1623  127.2810 C   0  0  0  0  0  0  0  0  0  0  0  0
    8.0374   47.2247  127.7695 C   0  0  0  0  0  0  0  0  0  0  0  0
    8.6020   47.2899  129.0260 C   0  0  0  0  0  0  0  0  0  0  0  0
    8.2413   48.3454  129.7889 N   0  0  0  0  0  0  0  0  0  0  0  0
    6.7104   51.2874  130.8655 N   0  0  0  0  0  0  0  0  0  0  0  0
    7.0171   50.3872  130.1790 C   0  0  0  0  0  0  0  0  0  0  0  0
    9.3196   44.1271  128.4395 C   0  0  0  0  0  0  0  0  0  0  0  0
    8.6933   43.5510  129.3513 O   0  0  0  0  0  0  0  0  0  0  0  0
    9.2031   43.6714  127.1449 O   0  0  0  0  0  0  0  0  0  0  0  0
    9.3713   42.7077  126.8678 H   0  0  0  0  0  0  0  0  0  0  0  0
   12.1257   45.3104  132.2299 S   0  0  0  0  0  0  0  0  0  0  0  0
   12.3317   43.8383  132.0259 O   0  0  0  0  0  0  0  0  0  0  0  0
   13.4200   46.0369  132.3478 O   0  0  0  0  0  0  0  0  0  0  0  0
   10.9973   45.5969  133.5119 C   0  0  0  0  0  0  0  0  0  0  0  0
   11.0109   46.8292  134.1031 C   0  0  0  0  0  0  0  0  0  0  0  0
   10.1147   47.1068  135.1122 C   0  0  0  0  0  0  0  0  0  0  0  0
    9.2052   46.1735  135.5393 C   0  0  0  0  0  0  0  0  0  0  0  0
    9.2234   44.9494  134.9202 C   0  0  0  0  0  0  0  0  0  0  0  0
   10.1137   44.6140  133.8892 C   0  0  0  0  0  0  0  0  0  0  0  0
   10.0472   43.2767  133.3003 C   0  0  0  0  0  0  0  0  0  0  0  0
    9.5045   43.2026  132.0380 F   0  0  0  0  0  0  0  0  0  0  0  0
    9.5393   42.3116  134.1465 F   0  0  0  0  0  0  0  0  0  0  0  0
   11.3692   42.8435  133.0984 F   0  0  0  0  0  0  0  0  0  0  0  0
 12 13  3  0  0  0
 13  6  1  0  0  0
  6  7  2  0  0  0
  7  8  1  0  0  0
  8  9  2  0  0  0
  9 10  1  0  0  0
 10  1  1  0  0  0
  1  2  1  0  0  0
  2  3  1  0  0  0
  3 18  1  0  0  0
 18 19  2  0  0  0
 18 20  2  0  0  0
 18 21  1  0  0  0
 21 22  2  0  0  0
 22 23  1  0  0  0
 23 24  2  0  0  0
 24 25  1  0  0  0
 25 26  2  0  0  0
 26 27  1  0  0  0
 27 28  1  0  0  0
 27 29  1  0  0  0
 27 30  1  0  0  0
  3  4  1  0  0  0
  4  5  1  0  0  0
  5 14  1  0  0  0
 14 15  2  0  0  0
 14 16  1  0  0  0
 10 11  2  0  0  0
 11  6  1  0  0  0
  5  1  1  0  0  0
 26 21  1  0  0  0
 16 17  1  0  0  0
M  END
> <minimizedAffinity>
0.76153

> <CNNscore>
0.4189846814

> <CNNaffinity>
7.4797945023

> <CNN_VS>
3.1339192390

> <CNNaffinity_variance>
0.9583381414

$$$$
[H]OC(=O)[C@@]1([H])N(c2nc(C#N)nc([H])c2[H])C([H])([H])[C@@]([H])(S(=O)(=O)c2c([H])c([H])c([H])c([H])c2C(F)(F)F)C1([H])[H]


 30 32  0  0  0  0  0  0  0  0999 V2000
    8.8631   45.3583  130.1409 N   0  0  0  0  0  0  0  0  0  0  0  0
    9.4483   45.2625  131.4610 C   0  0  0  0  0  0  0  0  0  0  0  0
    8.2020   44.8138  132.2731 C   0  0  0  0  0  0  0  0  0  0  0  0
    7.2096   45.7833  131.7815 C   0  0  0  0  0  0  0  0  0  0  0  0
    7.5834   45.9682  130.2981 C   0  0  0  0  0  0  0  0  0  0  0  0
   10.1661   45.2797  126.7200 C   0  0  0  0  0  0  0  0  0  0  0  0
   10.6979   44.0471  126.6407 N   0  0  0  0  0  0  0  0  0  0  0  0
   10.6572   43.1888  127.6916 C   0  0  0  0  0  0  0  0  0  0  0  0
   10.0424   43.6545  128.8354 C   0  0  0  0  0  0  0  0  0  0  0  0
    9.4886   44.9126  128.9462 C   0  0  0  0  0  0  0  0  0  0  0  0
    9.5737   45.7012  127.8521 N   0  0  0  0  0  0  0  0  0  0  0  0
   10.3128   46.8418  124.6378 N   0  0  0  0  0  0  0  0  0  0  0  0
   10.2402   46.1411  125.5756 C   0  0  0  0  0  0  0  0  0  0  0  0
    7.5515   47.3912  129.9297 C   0  0  0  0  0  0  0  0  0  0  0  0
    8.4991   48.1368  130.2485 O   0  0  0  0  0  0  0  0  0  0  0  0
    6.4834   47.9127  129.2337 O   0  0  0  0  0  0  0  0  0  0  0  0
    5.9509   48.7229  129.5399 H   0  0  0  0  0  0  0  0  0  0  0  0
    8.6067   44.9954  134.0271 S   0  0  0  0  0  0  0  0  0  0  0  0
    7.4027   45.6686  134.6172 O   0  0  0  0  0  0  0  0  0  0  0  0
    8.7424   43.5915  134.5042 O   0  0  0  0  0  0  0  0  0  0  0  0
   10.0157   45.9828  134.2236 C   0  0  0  0  0  0  0  0  0  0  0  0
    9.8340   47.3349  134.3074 C   0  0  0  0  0  0  0  0  0  0  0  0
   10.9261   48.1558  134.4864 C   0  0  0  0  0  0  0  0  0  0  0  0
   12.1961   47.6475  134.5836 C   0  0  0  0  0  0  0  0  0  0  0  0
   12.3360   46.2856  134.4953 C   0  0  0  0  0  0  0  0  0  0  0  0
   11.2595   45.4047  134.3129 C   0  0  0  0  0  0  0  0  0  0  0  0
   11.5232   43.9683  134.2300 C   0  0  0  0  0  0  0  0  0  0  0  0
   10.9966   43.3233  133.1345 F   0  0  0  0  0  0  0  0  0  0  0  0
   11.2890   43.2824  135.4046 F   0  0  0  0  0  0  0  0  0  0  0  0
   12.9084   43.8081  134.0513 F   0  0  0  0  0  0  0  0  0  0  0  0
 12 13  3  0  0  0
 13  6  1  0  0  0
  6  7  2  0  0  0
  7  8  1  0  0  0
  8  9  2  0  0  0
  9 10  1  0  0  0
 10  1  1  0  0  0
  1  2  1  0  0  0
  2  3  1  0  0  0
  3 18  1  0  0  0
 18 19  2  0  0  0
 18 20  2  0  0  0
 18 21  1  0  0  0
 21 22  2  0  0  0
 22 23  1  0  0  0
 23 24  2  0  0  0
 24 25  1  0  0  0
 25 26  2  0  0  0
 26 27  1  0  0  0
 27 28  1  0  0  0
 27 29  1  0  0  0
 27 30  1  0  0  0
  3  4  1  0  0  0
  4  5  1  0  0  0
  5 14  1  0  0  0
 14 15  2  0  0  0
 14 16  1  0  0  0
 10 11  2  0  0  0
 11  6  1  0  0  0
  5  1  1  0  0  0
 26 21  1  0  0  0
 16 17  1  0  0  0
M  END
> <minimizedAffinity>
8.99517

> <CNNscore>
0.4065382481

> <CNNaffinity>
7.0780153275

> <CNN_VS>
2.8774838448

> <CNNaffinity_variance>
1.9905564785

$$$$
[H]OC(=O)[C@@]1([H])N(c2nc(C#N)nc([H])c2[H])C([H])([H])[C@@]([H])(S(=O)(=O)c2c([H])c([H])c([H])c([H])c2C(F)(F)F)C1([H])[H]


 30 32  0  0  0  0  0  0  0  0999 V2000
    8.8374   45.8942  130.1675 N   0  0  0  0  0  0  0  0  0  0  0  0
    9.3685   45.7706  131.5080 C   0  0  0  0  0  0  0  0  0  0  0  0
    8.0519   45.5205  132.2943 C   0  0  0  0  0  0  0  0  0  0  0  0
    7.2111   46.5938  131.7398 C   0  0  0  0  0  0  0  0  0  0  0  0
    7.6464   46.6731  130.2638 C   0  0  0  0  0  0  0  0  0  0  0  0
    9.9998   43.4529  127.6987 C   0  0  0  0  0  0  0  0  0  0  0  0
   10.5769   44.2339  126.7683 N   0  0  0  0  0  0  0  0  0  0  0  0
   10.6142   45.5843  126.9008 C   0  0  0  0  0  0  0  0  0  0  0  0
   10.0291   46.1016  128.0380 C   0  0  0  0  0  0  0  0  0  0  0  0
    9.4303   45.3262  129.0086 C   0  0  0  0  0  0  0  0  0  0  0  0
    9.4384   43.9917  128.7962 N   0  0  0  0  0  0  0  0  0  0  0  0
    9.9836   40.8687  127.3544 N   0  0  0  0  0  0  0  0  0  0  0  0
    9.9920   42.0322  127.5025 C   0  0  0  0  0  0  0  0  0  0  0  0
    7.8142   48.0733  129.8481 C   0  0  0  0  0  0  0  0  0  0  0  0
    6.9130   48.6410  129.1992 O   0  0  0  0  0  0  0  0  0  0  0  0
    8.9595   48.7684  130.1680 O   0  0  0  0  0  0  0  0  0  0  0  0
    9.5370   49.2511  129.4844 H   0  0  0  0  0  0  0  0  0  0  0  0
    8.4293   45.7113  134.0534 S   0  0  0  0  0  0  0  0  0  0  0  0
    8.1398   47.1554  134.3397 O   0  0  0  0  0  0  0  0  0  0  0  0
    7.4516   44.8099  134.7230 O   0  0  0  0  0  0  0  0  0  0  0  0
   10.0958   45.3511  134.3570 C   0  0  0  0  0  0  0  0  0  0  0  0
   10.4096   44.0729  134.7260 C   0  0  0  0  0  0  0  0  0  0  0  0
   11.7262   43.7377  134.9557 C   0  0  0  0  0  0  0  0  0  0  0  0
   12.7337   44.6585  134.8220 C   0  0  0  0  0  0  0  0  0  0  0  0
   12.3773   45.9299  134.4496 C   0  0  0  0  0  0  0  0  0  0  0  0
   11.0538   46.3248  134.2040 C   0  0  0  0  0  0  0  0  0  0  0  0
   10.7861   47.7089  133.8138 C   0  0  0  0  0  0  0  0  0  0  0  0
   11.5116   48.6711  134.4780 F   0  0  0  0  0  0  0  0  0  0  0  0
    9.4446   48.0245  133.7365 F   0  0  0  0  0  0  0  0  0  0  0  0
   11.2142   47.8574  132.4831 F   0  0  0  0  0  0  0  0  0  0  0  0
 12 13  3  0  0  0
 13  6  1  0  0  0
  6  7  2  0  0  0
  7  8  1  0  0  0
  8  9  2  0  0  0
  9 10  1  0  0  0
 10  1  1  0  0  0
  1  2  1  0  0  0
  2  3  1  0  0  0
  3 18  1  0  0  0
 18 19  2  0  0  0
 18 20  2  0  0  0
 18 21  1  0  0  0
 21 22  2  0  0  0
 22 23  1  0  0  0
 23 24  2  0  0  0
 24 25  1  0  0  0
 25 26  2  0  0  0
 26 27  1  0  0  0
 27 28  1  0  0  0
 27 29  1  0  0  0
 27 30  1  0  0  0
  3  4  1  0  0  0
  4  5  1  0  0  0
  5 14  1  0  0  0
 14 15  2  0  0  0
 14 16  1  0  0  0
 10 11  2  0  0  0
 11  6  1  0  0  0
  5  1  1  0  0  0
 26 21  1  0  0  0
 16 17  1  0  0  0
M  END
> <minimizedAffinity>
6.21318

> <CNNscore>
0.4057238698

> <CNNaffinity>
7.0739722252

> <CNN_VS>
2.8700792789

> <CNNaffinity_variance>
2.2410767078

$$$$
[H]OC(=O)[C@@]1([H])N(c2nc(C#N)nc([H])c2[H])C([H])([H])[C@@]([H])(S(=O)(=O)c2c([H])c([H])c([H])c([H])c2C(F)(F)F)C1([H])[H]


 30 32  0  0  0  0  0  0  0  0999 V2000
    9.0526   47.9817  131.0338 N   0  0  0  0  0  0  0  0  0  0  0  0
    8.9455   47.2747  132.2920 C   0  0  0  0  0  0  0  0  0  0  0  0
   10.4521   47.1102  132.6344 C   0  0  0  0  0  0  0  0  0  0  0  0
   10.9576   46.6105  131.3455 C   0  0  0  0  0  0  0  0  0  0  0  0
   10.1135   47.3690  130.3033 C   0  0  0  0  0  0  0  0  0  0  0  0
    6.1921   49.9247  129.8302 C   0  0  0  0  0  0  0  0  0  0  0  0
    6.6470   51.1879  129.9070 N   0  0  0  0  0  0  0  0  0  0  0  0
    7.8993   51.4643  130.3517 C   0  0  0  0  0  0  0  0  0  0  0  0
    8.6697   50.3798  130.7168 C   0  0  0  0  0  0  0  0  0  0  0  0
    8.2307   49.0742  130.6490 C   0  0  0  0  0  0  0  0  0  0  0  0
    6.9713   48.8903  130.1949 N   0  0  0  0  0  0  0  0  0  0  0  0
    3.7649   49.5145  128.9716 N   0  0  0  0  0  0  0  0  0  0  0  0
    4.8594   49.6961  129.3521 C   0  0  0  0  0  0  0  0  0  0  0  0
    9.6589   46.4578  129.2429 C   0  0  0  0  0  0  0  0  0  0  0  0
   10.4830   45.9836  128.4356 O   0  0  0  0  0  0  0  0  0  0  0  0
    8.3283   46.1199  129.1298 O   0  0  0  0  0  0  0  0  0  0  0  0
    7.7895   46.2247  128.2740 H   0  0  0  0  0  0  0  0  0  0  0  0
   10.5706   45.9157  133.9880 S   0  0  0  0  0  0  0  0  0  0  0  0
   12.0307   45.8898  134.3323 O   0  0  0  0  0  0  0  0  0  0  0  0
    9.7592   46.5322  135.0736 O   0  0  0  0  0  0  0  0  0  0  0  0
   10.0393   44.3529  133.4640 C   0  0  0  0  0  0  0  0  0  0  0  0
    8.6972   44.0962  133.4997 C   0  0  0  0  0  0  0  0  0  0  0  0
    8.2295   42.8732  133.0707 C   0  0  0  0  0  0  0  0  0  0  0  0
    9.0807   41.9035  132.6062 C   0  0  0  0  0  0  0  0  0  0  0  0
   10.4199   42.2006  132.5857 C   0  0  0  0  0  0  0  0  0  0  0  0
   10.9495   43.4281  133.0108 C   0  0  0  0  0  0  0  0  0  0  0  0
   12.3958   43.6377  132.9478 C   0  0  0  0  0  0  0  0  0  0  0  0
   13.0484   43.6895  134.1581 F   0  0  0  0  0  0  0  0  0  0  0  0
   12.7823   44.6561  132.1001 F   0  0  0  0  0  0  0  0  0  0  0  0
   12.9560   42.5014  132.3387 F   0  0  0  0  0  0  0  0  0  0  0  0
 12 13  3  0  0  0
 13  6  1  0  0  0
  6  7  2  0  0  0
  7  8  1  0  0  0
  8  9  2  0  0  0
  9 10  1  0  0  0
 10  1  1  0  0  0
  1  2  1  0  0  0
  2  3  1  0  0  0
  3 18  1  0  0  0
 18 19  2  0  0  0
 18 20  2  0  0  0
 18 21  1  0  0  0
 21 22  2  0  0  0
 22 23  1  0  0  0
 23 24  2  0  0  0
 24 25  1  0  0  0
 25 26  2  0  0  0
 26 27  1  0  0  0
 27 28  1  0  0  0
 27 29  1  0  0  0
 27 30  1  0  0  0
  3  4  1  0  0  0
  4  5  1  0  0  0
  5 14  1  0  0  0
 14 15  2  0  0  0
 14 16  1  0  0  0
 10 11  2  0  0  0
 11  6  1  0  0  0
  5  1  1  0  0  0
 26 21  1  0  0  0
 16 17  1  0  0  0
M  END
> <minimizedAffinity>
-1.25936

> <CNNscore>
0.3845005333

> <CNNaffinity>
6.9468774796

> <CNN_VS>
2.6710782051

> <CNNaffinity_variance>
0.4010646939

$$$$
[H]OC(=O)[C@@]1([H])N(c2nc(C#N)nc([H])c2[H])C([H])([H])[C@@]([H])(S(=O)(=O)c2c([H])c([H])c([H])c([H])c2C(F)(F)F)C1([H])[H]


 30 32  0  0  0  0  0  0  0  0999 V2000
    9.4566   46.8689  130.0133 N   0  0  0  0  0  0  0  0  0  0  0  0
   10.3987   46.1579  130.8508 C   0  0  0  0  0  0  0  0  0  0  0  0
   11.2565   45.4638  129.7570 C   0  0  0  0  0  0  0  0  0  0  0  0
   10.1915   44.9096  128.9053 C   0  0  0  0  0  0  0  0  0  0  0  0
    9.0851   45.9807  128.9610 C   0  0  0  0  0  0  0  0  0  0  0  0
    9.0326   50.1787  131.5207 C   0  0  0  0  0  0  0  0  0  0  0  0
    8.1692   50.7724  130.6778 N   0  0  0  0  0  0  0  0  0  0  0  0
    7.6874   50.1264  129.5855 C   0  0  0  0  0  0  0  0  0  0  0  0
    8.1339   48.8352  129.3948 C   0  0  0  0  0  0  0  0  0  0  0  0
    9.0185   48.2005  130.2415 C   0  0  0  0  0  0  0  0  0  0  0  0
    9.4471   48.9172  131.3038 N   0  0  0  0  0  0  0  0  0  0  0  0
    9.8883   51.5239  133.5834 N   0  0  0  0  0  0  0  0  0  0  0  0
    9.5063   50.9129  132.6579 C   0  0  0  0  0  0  0  0  0  0  0  0
    7.7676   45.3548  129.1460 C   0  0  0  0  0  0  0  0  0  0  0  0
    6.7346   46.0505  129.0799 O   0  0  0  0  0  0  0  0  0  0  0  0
    7.6602   44.0039  129.3922 O   0  0  0  0  0  0  0  0  0  0  0  0
    7.1550   43.6121  130.1828 H   0  0  0  0  0  0  0  0  0  0  0  0
   12.2708   44.2121  130.5802 S   0  0  0  0  0  0  0  0  0  0  0  0
   11.7371   42.9070  130.0675 O   0  0  0  0  0  0  0  0  0  0  0  0
   13.6444   44.4831  130.0735 O   0  0  0  0  0  0  0  0  0  0  0  0
   12.0827   44.3156  132.2987 C   0  0  0  0  0  0  0  0  0  0  0  0
   12.8099   45.2663  132.9586 C   0  0  0  0  0  0  0  0  0  0  0  0
   12.6736   45.3976  134.3234 C   0  0  0  0  0  0  0  0  0  0  0  0
   11.8222   44.5951  135.0388 C   0  0  0  0  0  0  0  0  0  0  0  0
   11.1100   43.6540  134.3395 C   0  0  0  0  0  0  0  0  0  0  0  0
   11.2107   43.4773  132.9515 C   0  0  0  0  0  0  0  0  0  0  0  0
   10.4053   42.4401  132.3071 C   0  0  0  0  0  0  0  0  0  0  0  0
   11.0945   41.3375  131.8571 F   0  0  0  0  0  0  0  0  0  0  0  0
    9.5132   42.9193  131.3691 F   0  0  0  0  0  0  0  0  0  0  0  0
    9.5575   41.8996  133.2896 F   0  0  0  0  0  0  0  0  0  0  0  0
 12 13  3  0  0  0
 13  6  1  0  0  0
  6  7  2  0  0  0
  7  8  1  0  0  0
  8  9  2  0  0  0
  9 10  1  0  0  0
 10  1  1  0  0  0
  1  2  1  0  0  0
  2  3  1  0  0  0
  3 18  1  0  0  0
 18 19  2  0  0  0
 18 20  2  0  0  0
 18 21  1  0  0  0
 21 22  2  0  0  0
 22 23  1  0  0  0
 23 24  2  0  0  0
 24 25  1  0  0  0
 25 26  2  0  0  0
 26 27  1  0  0  0
 27 28  1  0  0  0
 27 29  1  0  0  0
 27 30  1  0  0  0
  3  4  1  0  0  0
  4  5  1  0  0  0
  5 14  1  0  0  0
 14 15  2  0  0  0
 14 16  1  0  0  0
 10 11  2  0  0  0
 11  6  1  0  0  0
  5  1  1  0  0  0
 26 21  1  0  0  0
 16 17  1  0  0  0
M  END
> <minimizedAffinity>
-0.84269

> <CNNscore>
0.3718747199

> <CNNaffinity>
7.1162657738

> <CNN_VS>
2.6463594437

> <CNNaffinity_variance>
0.6364012957

$$$$
[H]OC(=O)[C@@]1([H])N(c2nc(C#N)nc([H])c2[H])C([H])([H])[C@@]([H])(S(=O)(=O)c2c([H])c([H])c([H])c([H])c2C(F)(F)F)C1([H])[H]


 30 32  0  0  0  0  0  0  0  0999 V2000
    8.6585   47.4587  130.4805 N   0  0  0  0  0  0  0  0  0  0  0  0
    8.6443   46.8617  131.7987 C   0  0  0  0  0  0  0  0  0  0  0  0
   10.0887   47.2006  132.2602 C   0  0  0  0  0  0  0  0  0  0  0  0
   10.8468   46.7753  131.0725 C   0  0  0  0  0  0  0  0  0  0  0  0
    9.9217   47.1452  129.8970 C   0  0  0  0  0  0  0  0  0  0  0  0
    6.7028   50.2304  129.1022 C   0  0  0  0  0  0  0  0  0  0  0  0
    5.5187   49.6483  128.8420 N   0  0  0  0  0  0  0  0  0  0  0  0
    5.3031   48.3335  129.1017 C   0  0  0  0  0  0  0  0  0  0  0  0
    6.3635   47.6375  129.6441 C   0  0  0  0  0  0  0  0  0  0  0  0
    7.5885   48.2071  129.9215 C   0  0  0  0  0  0  0  0  0  0  0  0
    7.7158   49.5208  129.6317 N   0  0  0  0  0  0  0  0  0  0  0  0
    7.0063   52.7656  128.5757 N   0  0  0  0  0  0  0  0  0  0  0  0
    6.8698   51.6236  128.8057 C   0  0  0  0  0  0  0  0  0  0  0  0
    9.8702   46.0523  128.9150 C   0  0  0  0  0  0  0  0  0  0  0  0
   10.7293   45.9863  128.0132 O   0  0  0  0  0  0  0  0  0  0  0  0
    8.8807   45.0963  128.9792 O   0  0  0  0  0  0  0  0  0  0  0  0
    8.2732   44.8586  128.1993 H   0  0  0  0  0  0  0  0  0  0  0  0
   10.4257   46.2195  133.7425 S   0  0  0  0  0  0  0  0  0  0  0  0
   11.9095   46.3343  133.9332 O   0  0  0  0  0  0  0  0  0  0  0  0
    9.6757   46.9312  134.8139 O   0  0  0  0  0  0  0  0  0  0  0  0
    9.9686   44.5681  133.4917 C   0  0  0  0  0  0  0  0  0  0  0  0
    8.6419   44.2562  133.5954 C   0  0  0  0  0  0  0  0  0  0  0  0
    8.2320   42.9582  133.3815 C   0  0  0  0  0  0  0  0  0  0  0  0
    9.1261   41.9676  133.0652 C   0  0  0  0  0  0  0  0  0  0  0  0
   10.4481   42.3216  132.9701 C   0  0  0  0  0  0  0  0  0  0  0  0
   10.9194   43.6264  133.1781 C   0  0  0  0  0  0  0  0  0  0  0  0
   12.3523   43.8924  133.0533 C   0  0  0  0  0  0  0  0  0  0  0  0
   13.0230   44.1348  134.2301 F   0  0  0  0  0  0  0  0  0  0  0  0
   12.6735   44.8057  132.0694 F   0  0  0  0  0  0  0  0  0  0  0  0
   12.9567   42.7122  132.5862 F   0  0  0  0  0  0  0  0  0  0  0  0
 12 13  3  0  0  0
 13  6  1  0  0  0
  6  7  2  0  0  0
  7  8  1  0  0  0
  8  9  2  0  0  0
  9 10  1  0  0  0
 10  1  1  0  0  0
  1  2  1  0  0  0
  2  3  1  0  0  0
  3 18  1  0  0  0
 18 19  2  0  0  0
 18 20  2  0  0  0
 18 21  1  0  0  0
 21 22  2  0  0  0
 22 23  1  0  0  0
 23 24  2  0  0  0
 24 25  1  0  0  0
 25 26  2  0  0  0
 26 27  1  0  0  0
 27 28  1  0  0  0
 27 29  1  0  0  0
 27 30  1  0  0  0
  3  4  1  0  0  0
  4  5  1  0  0  0
  5 14  1  0  0  0
 14 15  2  0  0  0
 14 16  1  0  0  0
 10 11  2  0  0  0
 11  6  1  0  0  0
  5  1  1  0  0  0
 26 21  1  0  0  0
 16 17  1  0  0  0
M  END
> <minimizedAffinity>
-3.88358

> <CNNscore>
0.3671174049

> <CNNaffinity>
7.0301146507

> <CNN_VS>
2.5808775425

> <CNNaffinity_variance>
0.2476887703

$$$$
[H]OC(=O)[C@@]1([H])N(c2nc(C#N)nc([H])c2[H])C([H])([H])[C@@]([H])(S(=O)(=O)c2c([H])c([H])c([H])c([H])c2C(F)(F)F)C1([H])[H]


 30 32  0  0  0  0  0  0  0  0999 V2000
    8.9282   45.8782  129.8542 N   0  0  0  0  0  0  0  0  0  0  0  0
    9.5703   45.7099  131.1402 C   0  0  0  0  0  0  0  0  0  0  0  0
   11.0601   45.7384  130.7000 C   0  0  0  0  0  0  0  0  0  0  0  0
   11.0148   44.7953  129.5709 C   0  0  0  0  0  0  0  0  0  0  0  0
    9.6419   45.0646  128.9251 C   0  0  0  0  0  0  0  0  0  0  0  0
    6.8604   48.8352  129.2324 C   0  0  0  0  0  0  0  0  0  0  0  0
    5.6233   48.3133  129.1583 N   0  0  0  0  0  0  0  0  0  0  0  0
    5.4059   46.9816  129.3065 C   0  0  0  0  0  0  0  0  0  0  0  0
    6.5218   46.2037  129.5358 C   0  0  0  0  0  0  0  0  0  0  0  0
    7.8020   46.7103  129.6167 C   0  0  0  0  0  0  0  0  0  0  0  0
    7.9269   48.0463  129.4573 N   0  0  0  0  0  0  0  0  0  0  0  0
    7.1530   51.4074  128.9237 N   0  0  0  0  0  0  0  0  0  0  0  0
    7.0264   50.2502  129.0674 C   0  0  0  0  0  0  0  0  0  0  0  0
    8.9667   43.8002  128.5980 C   0  0  0  0  0  0  0  0  0  0  0  0
    9.1307   43.2804  127.4762 O   0  0  0  0  0  0  0  0  0  0  0  0
    8.1520   43.1803  129.5195 O   0  0  0  0  0  0  0  0  0  0  0  0
    7.1913   42.9063  129.3303 H   0  0  0  0  0  0  0  0  0  0  0  0
   12.0483   45.1648  132.1028 S   0  0  0  0  0  0  0  0  0  0  0  0
   12.2983   43.7144  131.8113 O   0  0  0  0  0  0  0  0  0  0  0  0
   13.2971   45.9697  132.0062 O   0  0  0  0  0  0  0  0  0  0  0  0
   11.1636   45.3466  133.5805 C   0  0  0  0  0  0  0  0  0  0  0  0
   11.1189   44.2744  134.4270 C   0  0  0  0  0  0  0  0  0  0  0  0
   10.4445   44.3833  135.6236 C   0  0  0  0  0  0  0  0  0  0  0  0
    9.8151   45.5459  135.9880 C   0  0  0  0  0  0  0  0  0  0  0  0
    9.8839   46.5988  135.1112 C   0  0  0  0  0  0  0  0  0  0  0  0
   10.5557   46.5422  133.8810 C   0  0  0  0  0  0  0  0  0  0  0  0
   10.5640   47.7253  133.0210 C   0  0  0  0  0  0  0  0  0  0  0  0
    9.3805   48.0098  132.3795 F   0  0  0  0  0  0  0  0  0  0  0  0
   11.6507   47.7995  132.1730 F   0  0  0  0  0  0  0  0  0  0  0  0
   10.7460   48.8442  133.8524 F   0  0  0  0  0  0  0  0  0  0  0  0
 12 13  3  0  0  0
 13  6  1  0  0  0
  6  7  2  0  0  0
  7  8  1  0  0  0
  8  9  2  0  0  0
  9 10  1  0  0  0
 10  1  1  0  0  0
  1  2  1  0  0  0
  2  3  1  0  0  0
  3 18  1  0  0  0
 18 19  2  0  0  0
 18 20  2  0  0  0
 18 21  1  0  0  0
 21 22  2  0  0  0
 22 23  1  0  0  0
 23 24  2  0  0  0
 24 25  1  0  0  0
 25 26  2  0  0  0
 26 27  1  0  0  0
 27 28  1  0  0  0
 27 29  1  0  0  0
 27 30  1  0  0  0
  3  4  1  0  0  0
  4  5  1  0  0  0
  5 14  1  0  0  0
 14 15  2  0  0  0
 14 16  1  0  0  0
 10 11  2  0  0  0
 11  6  1  0  0  0
  5  1  1  0  0  0
 26 21  1  0  0  0
 16 17  1  0  0  0
M  END
> <minimizedAffinity>
-4.54095

> <CNNscore>
0.3641903102

> <CNNaffinity>
7.4513907433

> <CNN_VS>
2.7137243748

> <CNNaffinity_variance>
0.4720563293

$$$$
[H]c1c([H])c([H])c(C([H])([H])n2c([H])nc(-c3c([H])c([H])c(F)c([H])c3[H])c2-c2nn3c([H])c(N([H])C(=O)C(C([H])([H])[H])(C([H])([H])[H])C([H])([H])[H])nc3c([H])c2[H])c([H])c1[H]


 36 40  0  0  0  0  0  0  0  0999 V2000
    9.0722   45.5874  132.2004 C   0  0  0  0  0  0  0  0  0  0  0  0
    9.7254   44.4380  131.8101 C   0  0  0  0  0  0  0  0  0  0  0  0
   10.2968   43.9321  132.9422 N   0  0  0  0  0  0  0  0  0  0  0  0
   10.0307   44.6984  133.9792 C   0  0  0  0  0  0  0  0  0  0  0  0
    9.2662   45.7285  133.5059 N   0  0  0  0  0  0  0  0  0  0  0  0
    7.4797   49.8493  128.4208 C   0  0  0  0  0  0  0  0  0  0  0  0
    8.5498   49.4123  129.1676 C   0  0  0  0  0  0  0  0  0  0  0  0
    8.1828   48.2879  129.8538 N   0  0  0  0  0  0  0  0  0  0  0  0
    8.8544   47.5223  130.6868 N   0  0  0  0  0  0  0  0  0  0  0  0
    8.3248   46.4391  131.2790 C   0  0  0  0  0  0  0  0  0  0  0  0
    7.0150   46.1596  130.9674 C   0  0  0  0  0  0  0  0  0  0  0  0
    6.2855   46.9556  130.0888 C   0  0  0  0  0  0  0  0  0  0  0  0
    6.9077   48.0366  129.5350 C   0  0  0  0  0  0  0  0  0  0  0  0
    6.4863   48.9739  128.6750 N   0  0  0  0  0  0  0  0  0  0  0  0
    7.1272   52.2627  128.0672 C   0  0  0  0  0  0  0  0  0  0  0  0
    6.8925   52.3907  129.3170 O   0  0  0  0  0  0  0  0  0  0  0  0
    7.4339   50.9710  127.5713 N   0  0  0  0  0  0  0  0  0  0  0  0
    7.6256   50.8582  126.5620 H   0  0  0  0  0  0  0  0  0  0  0  0
    7.8478   53.1962  125.9735 C   0  0  0  0  0  0  0  0  0  0  0  0
    7.0604   53.4678  127.2383 C   0  0  0  0  0  0  0  0  0  0  0  0
    5.6395   53.7507  126.8544 C   0  0  0  0  0  0  0  0  0  0  0  0
    7.7005   54.6607  127.9137 C   0  0  0  0  0  0  0  0  0  0  0  0
    9.8650   43.7980  130.5170 C   0  0  0  0  0  0  0  0  0  0  0  0
   10.6445   44.3810  129.5467 C   0  0  0  0  0  0  0  0  0  0  0  0
   10.8134   43.8010  128.2912 C   0  0  0  0  0  0  0  0  0  0  0  0
   10.1902   42.6067  127.9901 C   0  0  0  0  0  0  0  0  0  0  0  0
   10.3572   42.0423  126.7618 F   0  0  0  0  0  0  0  0  0  0  0  0
    9.4091   42.0174  128.9550 C   0  0  0  0  0  0  0  0  0  0  0  0
    9.2521   42.6101  130.2009 C   0  0  0  0  0  0  0  0  0  0  0  0
    8.7573   46.8039  134.3419 C   0  0  0  0  0  0  0  0  0  0  0  0
    9.0759   48.1306  133.7865 C   0  0  0  0  0  0  0  0  0  0  0  0
    8.1157   48.9873  133.3142 C   0  0  0  0  0  0  0  0  0  0  0  0
    8.3917   50.2250  132.7979 C   0  0  0  0  0  0  0  0  0  0  0  0
    9.7114   50.6312  132.7512 C   0  0  0  0  0  0  0  0  0  0  0  0
   10.7009   49.7867  133.2208 C   0  0  0  0  0  0  0  0  0  0  0  0
   10.4010   48.5533  133.7328 C   0  0  0  0  0  0  0  0  0  0  0  0
 19 20  1  0  0  0
 20 21  1  0  0  0
 20 22  1  0  0  0
 20 15  1  0  0  0
 15 16  2  0  0  0
 15 17  1  0  0  0
 17  6  1  0  0  0
  6  7  2  0  0  0
  7  8  1  0  0  0
  8  9  1  0  0  0
  9 10  2  0  0  0
 10  1  1  0  0  0
  1  2  2  0  0  0
  2 23  1  0  0  0
 23 24  2  0  0  0
 24 25  1  0  0  0
 25 26  2  0  0  0
 26 27  1  0  0  0
 26 28  1  0  0  0
 28 29  2  0  0  0
  2  3  1  0  0  0
  3  4  2  0  0  0
  4  5  1  0  0  0
  5 30  1  0  0  0
 30 31  1  0  0  0
 31 32  2  0  0  0
 32 33  1  0  0  0
 33 34  2  0  0  0
 34 35  1  0  0  0
 35 36  2  0  0  0
 10 11  1  0  0  0
 11 12  2  0  0  0
 12 13  1  0  0  0
 13 14  2  0  0  0
 14  6  1  0  0  0
 13  8  1  0  0  0
  5  1  1  0  0  0
 36 31  1  0  0  0
 29 23  1  0  0  0
 17 18  1  0  0  0
M  END
> <minimizedAffinity>
10.60790

> <CNNscore>
0.4092916548

> <CNNaffinity>
7.8323631287

> <CNN_VS>
3.2057209015

> <CNNaffinity_variance>
0.4642881453

$$$$
[H]c1c([H])c([H])c(C([H])([H])n2c([H])nc(-c3c([H])c([H])c(F)c([H])c3[H])c2-c2nn3c([H])c(N([H])C(=O)C(C([H])([H])[H])(C([H])([H])[H])C([H])([H])[H])nc3c([H])c2[H])c([H])c1[H]


 36 40  0  0  0  0  0  0  0  0999 V2000
   10.8350   43.9396  132.5323 C   0  0  0  0  0  0  0  0  0  0  0  0
   11.2147   44.2728  133.8148 C   0  0  0  0  0  0  0  0  0  0  0  0
   12.2969   43.4899  134.0977 N   0  0  0  0  0  0  0  0  0  0  0  0
   12.5887   42.7137  133.0751 C   0  0  0  0  0  0  0  0  0  0  0  0
   11.6708   43.0017  132.1036 N   0  0  0  0  0  0  0  0  0  0  0  0
    7.2325   47.7601  129.8099 C   0  0  0  0  0  0  0  0  0  0  0  0
    8.4716   47.6788  130.4031 C   0  0  0  0  0  0  0  0  0  0  0  0
    8.6672   46.4012  130.8496 N   0  0  0  0  0  0  0  0  0  0  0  0
    9.6843   45.8466  131.4734 N   0  0  0  0  0  0  0  0  0  0  0  0
    9.7040   44.5555  131.8435 C   0  0  0  0  0  0  0  0  0  0  0  0
    8.5840   43.8206  131.5330 C   0  0  0  0  0  0  0  0  0  0  0  0
    7.4966   44.3864  130.8735 C   0  0  0  0  0  0  0  0  0  0  0  0
    7.5668   45.7071  130.5367 C   0  0  0  0  0  0  0  0  0  0  0  0
    6.7061   46.5230  129.9128 N   0  0  0  0  0  0  0  0  0  0  0  0
    7.0282   50.2063  129.5904 C   0  0  0  0  0  0  0  0  0  0  0  0
    7.9361   50.3413  130.4797 O   0  0  0  0  0  0  0  0  0  0  0  0
    6.6421   48.8938  129.2202 N   0  0  0  0  0  0  0  0  0  0  0  0
    5.9089   48.7750  128.5015 H   0  0  0  0  0  0  0  0  0  0  0  0
    5.0278   51.1109  128.6135 C   0  0  0  0  0  0  0  0  0  0  0  0
    6.4526   51.4252  129.0189 C   0  0  0  0  0  0  0  0  0  0  0  0
    6.4176   52.5112  130.0513 C   0  0  0  0  0  0  0  0  0  0  0  0
    7.1829   51.8699  127.7707 C   0  0  0  0  0  0  0  0  0  0  0  0
   10.6698   45.2186  134.7686 C   0  0  0  0  0  0  0  0  0  0  0  0
   10.4026   46.5083  134.3754 C   0  0  0  0  0  0  0  0  0  0  0  0
    9.8735   47.4511  135.2543 C   0  0  0  0  0  0  0  0  0  0  0  0
    9.6015   47.1034  136.5622 C   0  0  0  0  0  0  0  0  0  0  0  0
    9.0845   48.0274  137.4189 F   0  0  0  0  0  0  0  0  0  0  0  0
    9.8660   45.8158  136.9630 C   0  0  0  0  0  0  0  0  0  0  0  0
   10.3934   44.8894  136.0731 C   0  0  0  0  0  0  0  0  0  0  0  0
   11.6460   42.3545  130.8018 C   0  0  0  0  0  0  0  0  0  0  0  0
   11.2483   43.2855  129.7317 C   0  0  0  0  0  0  0  0  0  0  0  0
   11.9063   44.4636  129.4908 C   0  0  0  0  0  0  0  0  0  0  0  0
   11.5541   45.3398  128.4993 C   0  0  0  0  0  0  0  0  0  0  0  0
   10.4755   45.0169  127.6985 C   0  0  0  0  0  0  0  0  0  0  0  0
    9.7930   43.8344  127.9194 C   0  0  0  0  0  0  0  0  0  0  0  0
   10.1636   42.9738  128.9170 C   0  0  0  0  0  0  0  0  0  0  0  0
 19 20  1  0  0  0
 20 21  1  0  0  0
 20 22  1  0  0  0
 20 15  1  0  0  0
 15 16  2  0  0  0
 15 17  1  0  0  0
 17  6  1  0  0  0
  6  7  2  0  0  0
  7  8  1  0  0  0
  8  9  1  0  0  0
  9 10  2  0  0  0
 10  1  1  0  0  0
  1  2  2  0  0  0
  2 23  1  0  0  0
 23 24  2  0  0  0
 24 25  1  0  0  0
 25 26  2  0  0  0
 26 27  1  0  0  0
 26 28  1  0  0  0
 28 29  2  0  0  0
  2  3  1  0  0  0
  3  4  2  0  0  0
  4  5  1  0  0  0
  5 30  1  0  0  0
 30 31  1  0  0  0
 31 32  2  0  0  0
 32 33  1  0  0  0
 33 34  2  0  0  0
 34 35  1  0  0  0
 35 36  2  0  0  0
 10 11  1  0  0  0
 11 12  2  0  0  0
 12 13  1  0  0  0
 13 14  2  0  0  0
 14  6  1  0  0  0
 13  8  1  0  0  0
  5  1  1  0  0  0
 36 31  1  0  0  0
 29 23  1  0  0  0
 17 18  1  0  0  0
M  END
> <minimizedAffinity>
10.39743

> <CNNscore>
0.2956375480

> <CNNaffinity>
7.7955236435

> <CNN_VS>
2.3046495914

> <CNNaffinity_variance>
0.5597290993

$$$$
[H]c1c([H])c([H])c(C([H])([H])n2c([H])nc(-c3c([H])c([H])c(F)c([H])c3[H])c2-c2nn3c([H])c(N([H])C(=O)C(C([H])([H])[H])(C([H])([H])[H])C([H])([H])[H])nc3c([H])c2[H])c([H])c1[H]


 36 40  0  0  0  0  0  0  0  0999 V2000
   10.6156   46.3434  131.3401 C   0  0  0  0  0  0  0  0  0  0  0  0
   10.6385   46.2755  132.7166 C   0  0  0  0  0  0  0  0  0  0  0  0
   11.6968   45.4724  133.0319 N   0  0  0  0  0  0  0  0  0  0  0  0
   12.3057   45.0569  131.9411 C   0  0  0  0  0  0  0  0  0  0  0  0
   11.6235   45.6057  130.8909 N   0  0  0  0  0  0  0  0  0  0  0  0
    7.4832   50.7205  128.8875 C   0  0  0  0  0  0  0  0  0  0  0  0
    8.5735   50.4941  129.6961 C   0  0  0  0  0  0  0  0  0  0  0  0
    8.7322   49.1459  129.8603 N   0  0  0  0  0  0  0  0  0  0  0  0
    9.6218   48.4537  130.5389 N   0  0  0  0  0  0  0  0  0  0  0  0
    9.6254   47.1113  130.5899 C   0  0  0  0  0  0  0  0  0  0  0  0
    8.6313   46.4771  129.8826 C   0  0  0  0  0  0  0  0  0  0  0  0
    7.6799   47.1891  129.1577 C   0  0  0  0  0  0  0  0  0  0  0  0
    7.7558   48.5518  129.1645 C   0  0  0  0  0  0  0  0  0  0  0  0
    7.0066   49.4971  128.5809 N   0  0  0  0  0  0  0  0  0  0  0  0
    7.4025   52.5698  127.2604 C   0  0  0  0  0  0  0  0  0  0  0  0
    8.2664   51.9536  126.5481 O   0  0  0  0  0  0  0  0  0  0  0  0
    6.9756   51.9651  128.4690 N   0  0  0  0  0  0  0  0  0  0  0  0
    6.2769   52.4560  129.0512 H   0  0  0  0  0  0  0  0  0  0  0  0
    8.1223   54.6615  126.3218 C   0  0  0  0  0  0  0  0  0  0  0  0
    6.9173   53.8614  126.7704 C   0  0  0  0  0  0  0  0  0  0  0  0
    6.0213   53.6592  125.5861 C   0  0  0  0  0  0  0  0  0  0  0  0
    6.2305   54.6614  127.8554 C   0  0  0  0  0  0  0  0  0  0  0  0
    9.7842   46.8669  133.7274 C   0  0  0  0  0  0  0  0  0  0  0  0
    9.3377   48.1578  133.5745 C   0  0  0  0  0  0  0  0  0  0  0  0
    8.5106   48.7669  134.5159 C   0  0  0  0  0  0  0  0  0  0  0  0
    8.1150   48.0741  135.6423 C   0  0  0  0  0  0  0  0  0  0  0  0
    7.3066   48.6724  136.5607 F   0  0  0  0  0  0  0  0  0  0  0  0
    8.5573   46.7829  135.8024 C   0  0  0  0  0  0  0  0  0  0  0  0
    9.3813   46.1919  134.8537 C   0  0  0  0  0  0  0  0  0  0  0  0
   11.9805   45.3903  129.4980 C   0  0  0  0  0  0  0  0  0  0  0  0
   11.0066   44.5273  128.8073 C   0  0  0  0  0  0  0  0  0  0  0  0
   10.4997   44.8241  127.5688 C   0  0  0  0  0  0  0  0  0  0  0  0
    9.5971   44.0332  126.9097 C   0  0  0  0  0  0  0  0  0  0  0  0
    9.1750   42.8724  127.5287 C   0  0  0  0  0  0  0  0  0  0  0  0
    9.6701   42.5484  128.7788 C   0  0  0  0  0  0  0  0  0  0  0  0
   10.5720   43.3547  129.4186 C   0  0  0  0  0  0  0  0  0  0  0  0
 19 20  1  0  0  0
 20 21  1  0  0  0
 20 22  1  0  0  0
 20 15  1  0  0  0
 15 16  2  0  0  0
 15 17  1  0  0  0
 17  6  1  0  0  0
  6  7  2  0  0  0
  7  8  1  0  0  0
  8  9  1  0  0  0
  9 10  2  0  0  0
 10  1  1  0  0  0
  1  2  2  0  0  0
  2 23  1  0  0  0
 23 24  2  0  0  0
 24 25  1  0  0  0
 25 26  2  0  0  0
 26 27  1  0  0  0
 26 28  1  0  0  0
 28 29  2  0  0  0
  2  3  1  0  0  0
  3  4  2  0  0  0
  4  5  1  0  0  0
  5 30  1  0  0  0
 30 31  1  0  0  0
 31 32  2  0  0  0
 32 33  1  0  0  0
 33 34  2  0  0  0
 34 35  1  0  0  0
 35 36  2  0  0  0
 10 11  1  0  0  0
 11 12  2  0  0  0
 12 13  1  0  0  0
 13 14  2  0  0  0
 14  6  1  0  0  0
 13  8  1  0  0  0
  5  1  1  0  0  0
 36 31  1  0  0  0
 29 23  1  0  0  0
 17 18  1  0  0  0
M  END
> <minimizedAffinity>
11.32329

> <CNNscore>
0.2905429304

> <CNNaffinity>
7.4430480003

> <CNN_VS>
2.1625249386

> <CNNaffinity_variance>
0.4649675488

$$$$
[H]c1c([H])c([H])c(C([H])([H])n2c([H])nc(-c3c([H])c([H])c(F)c([H])c3[H])c2-c2nn3c([H])c(N([H])C(=O)C(C([H])([H])[H])(C([H])([H])[H])C([H])([H])[H])nc3c([H])c2[H])c([H])c1[H]


 36 40  0  0  0  0  0  0  0  0999 V2000
    9.8182   47.1724  131.2096 C   0  0  0  0  0  0  0  0  0  0  0  0
   10.2440   47.1706  132.5206 C   0  0  0  0  0  0  0  0  0  0  0  0
   10.2420   48.4780  132.9143 N   0  0  0  0  0  0  0  0  0  0  0  0
    9.8456   49.2585  131.9310 C   0  0  0  0  0  0  0  0  0  0  0  0
    9.5836   48.4345  130.8718 N   0  0  0  0  0  0  0  0  0  0  0  0
   10.7844   42.6643  127.5043 C   0  0  0  0  0  0  0  0  0  0  0  0
   11.3853   43.7941  128.0110 C   0  0  0  0  0  0  0  0  0  0  0  0
   10.5225   44.4048  128.8784 N   0  0  0  0  0  0  0  0  0  0  0  0
   10.6461   45.4996  129.5976 N   0  0  0  0  0  0  0  0  0  0  0  0
    9.6788   45.9593  130.4084 C   0  0  0  0  0  0  0  0  0  0  0  0
    8.5236   45.2148  130.4538 C   0  0  0  0  0  0  0  0  0  0  0  0
    8.3711   44.0534  129.7017 C   0  0  0  0  0  0  0  0  0  0  0  0
    9.4087   43.6637  128.9055 C   0  0  0  0  0  0  0  0  0  0  0  0
    9.5664   42.6194  128.0808 N   0  0  0  0  0  0  0  0  0  0  0  0
   11.0632   40.3609  126.6734 C   0  0  0  0  0  0  0  0  0  0  0  0
   10.3101   39.9499  127.6207 O   0  0  0  0  0  0  0  0  0  0  0  0
   11.3277   41.7503  126.5818 N   0  0  0  0  0  0  0  0  0  0  0  0
   11.9353   42.0918  125.8186 H   0  0  0  0  0  0  0  0  0  0  0  0
   12.6760   40.0291  124.9233 C   0  0  0  0  0  0  0  0  0  0  0  0
   11.5985   39.3588  125.7498 C   0  0  0  0  0  0  0  0  0  0  0  0
   12.2270   38.2351  126.5171 C   0  0  0  0  0  0  0  0  0  0  0  0
   10.5480   38.8529  124.7858 C   0  0  0  0  0  0  0  0  0  0  0  0
   10.6465   46.0941  133.4041 C   0  0  0  0  0  0  0  0  0  0  0  0
    9.8733   45.7818  134.4967 C   0  0  0  0  0  0  0  0  0  0  0  0
   10.2160   44.7524  135.3709 C   0  0  0  0  0  0  0  0  0  0  0  0
   11.3601   44.0111  135.1541 C   0  0  0  0  0  0  0  0  0  0  0  0
   11.6924   43.0057  136.0105 F   0  0  0  0  0  0  0  0  0  0  0  0
   12.1385   44.3173  134.0638 C   0  0  0  0  0  0  0  0  0  0  0  0
   11.7813   45.3469  133.2030 C   0  0  0  0  0  0  0  0  0  0  0  0
    9.1166   48.9084  129.5790 C   0  0  0  0  0  0  0  0  0  0  0  0
    7.6461   48.9044  129.4898 C   0  0  0  0  0  0  0  0  0  0  0  0
    6.9389   47.8659  128.9420 C   0  0  0  0  0  0  0  0  0  0  0  0
    5.5728   47.8423  128.8534 C   0  0  0  0  0  0  0  0  0  0  0  0
    4.8700   48.9261  129.3437 C   0  0  0  0  0  0  0  0  0  0  0  0
    5.5583   49.9882  129.9016 C   0  0  0  0  0  0  0  0  0  0  0  0
    6.9247   49.9895  129.9793 C   0  0  0  0  0  0  0  0  0  0  0  0
 19 20  1  0  0  0
 20 21  1  0  0  0
 20 22  1  0  0  0
 20 15  1  0  0  0
 15 16  2  0  0  0
 15 17  1  0  0  0
 17  6  1  0  0  0
  6  7  2  0  0  0
  7  8  1  0  0  0
  8  9  1  0  0  0
  9 10  2  0  0  0
 10  1  1  0  0  0
  1  2  2  0  0  0
  2 23  1  0  0  0
 23 24  2  0  0  0
 24 25  1  0  0  0
 25 26  2  0  0  0
 26 27  1  0  0  0
 26 28  1  0  0  0
 28 29  2  0  0  0
  2  3  1  0  0  0
  3  4  2  0  0  0
  4  5  1  0  0  0
  5 30  1  0  0  0
 30 31  1  0  0  0
 31 32  2  0  0  0
 32 33  1  0  0  0
 33 34  2  0  0  0
 34 35  1  0  0  0
 35 36  2  0  0  0
 10 11  1  0  0  0
 11 12  2  0  0  0
 12 13  1  0  0  0
 13 14  2  0  0  0
 14  6  1  0  0  0
 13  8  1  0  0  0
  5  1  1  0  0  0
 36 31  1  0  0  0
 29 23  1  0  0  0
 17 18  1  0  0  0
M  END
> <minimizedAffinity>
8.82010

> <CNNscore>
0.2385983765

> <CNNaffinity>
7.8542761803

> <CNN_VS>
1.8740175962

> <CNNaffinity_variance>
0.7323355079

$$$$
[H]c1c([H])c([H])c(C([H])([H])n2c([H])nc(-c3c([H])c([H])c(F)c([H])c3[H])c2-c2nn3c([H])c(N([H])C(=O)C(C([H])([H])[H])(C([H])([H])[H])C([H])([H])[H])nc3c([H])c2[H])c([H])c1[H]


 36 40  0  0  0  0  0  0  0  0999 V2000
   10.7834   44.0387  132.4521 C   0  0  0  0  0  0  0  0  0  0  0  0
   10.8525   43.2078  131.3544 C   0  0  0  0  0  0  0  0  0  0  0  0
   11.0230   41.9477  131.8518 N   0  0  0  0  0  0  0  0  0  0  0  0
   11.0606   41.9689  133.1677 C   0  0  0  0  0  0  0  0  0  0  0  0
   10.9104   43.2781  133.5325 N   0  0  0  0  0  0  0  0  0  0  0  0
    8.7233   49.4386  131.1936 C   0  0  0  0  0  0  0  0  0  0  0  0
    8.4518   48.1046  130.9916 C   0  0  0  0  0  0  0  0  0  0  0  0
    9.4149   47.3568  131.6105 N   0  0  0  0  0  0  0  0  0  0  0  0
    9.5805   46.0543  131.6951 N   0  0  0  0  0  0  0  0  0  0  0  0
   10.6024   45.4847  132.3551 C   0  0  0  0  0  0  0  0  0  0  0  0
   11.4908   46.3469  132.9536 C   0  0  0  0  0  0  0  0  0  0  0  0
   11.3352   47.7280  132.8772 C   0  0  0  0  0  0  0  0  0  0  0  0
   10.2654   48.2158  132.1842 C   0  0  0  0  0  0  0  0  0  0  0  0
    9.8500   49.4649  131.9337 N   0  0  0  0  0  0  0  0  0  0  0  0
    7.3864   50.5406  129.4409 C   0  0  0  0  0  0  0  0  0  0  0  0
    7.5378   49.5072  128.7043 O   0  0  0  0  0  0  0  0  0  0  0  0
    7.9809   50.5400  130.7275 N   0  0  0  0  0  0  0  0  0  0  0  0
    7.8632   51.3713  131.3302 H   0  0  0  0  0  0  0  0  0  0  0  0
    5.2132   51.1342  128.6049 C   0  0  0  0  0  0  0  0  0  0  0  0
    6.6059   51.6530  128.8957 C   0  0  0  0  0  0  0  0  0  0  0  0
    6.4951   52.7504  129.9106 C   0  0  0  0  0  0  0  0  0  0  0  0
    7.1736   52.1614  127.5887 C   0  0  0  0  0  0  0  0  0  0  0  0
   10.7842   43.4786  129.9321 C   0  0  0  0  0  0  0  0  0  0  0  0
   11.6861   44.3416  129.3568 C   0  0  0  0  0  0  0  0  0  0  0  0
   11.6637   44.6287  127.9936 C   0  0  0  0  0  0  0  0  0  0  0  0
   10.7181   44.0416  127.1772 C   0  0  0  0  0  0  0  0  0  0  0  0
   10.6987   44.3244  125.8451 F   0  0  0  0  0  0  0  0  0  0  0  0
    9.8128   43.1775  127.7449 C   0  0  0  0  0  0  0  0  0  0  0  0
    9.8501   42.9033  129.1057 C   0  0  0  0  0  0  0  0  0  0  0  0
   10.8962   43.7327  134.9135 C   0  0  0  0  0  0  0  0  0  0  0  0
    9.9924   44.8801  135.1059 C   0  0  0  0  0  0  0  0  0  0  0  0
   10.3428   45.9862  135.8357 C   0  0  0  0  0  0  0  0  0  0  0  0
    9.5185   47.0633  136.0228 C   0  0  0  0  0  0  0  0  0  0  0  0
    8.2647   47.0317  135.4432 C   0  0  0  0  0  0  0  0  0  0  0  0
    7.8848   45.9278  134.7015 C   0  0  0  0  0  0  0  0  0  0  0  0
    8.7261   44.8624  134.5282 C   0  0  0  0  0  0  0  0  0  0  0  0
 19 20  1  0  0  0
 20 21  1  0  0  0
 20 22  1  0  0  0
 20 15  1  0  0  0
 15 16  2  0  0  0
 15 17  1  0  0  0
 17  6  1  0  0  0
  6  7  2  0  0  0
  7  8  1  0  0  0
  8  9  1  0  0  0
  9 10  2  0  0  0
 10  1  1  0  0  0
  1  2  2  0  0  0
  2 23  1  0  0  0
 23 24  2  0  0  0
 24 25  1  0  0  0
 25 26  2  0  0  0
 26 27  1  0  0  0
 26 28  1  0  0  0
 28 29  2  0  0  0
  2  3  1  0  0  0
  3  4  2  0  0  0
  4  5  1  0  0  0
  5 30  1  0  0  0
 30 31  1  0  0  0
 31 32  2  0  0  0
 32 33  1  0  0  0
 33 34  2  0  0  0
 34 35  1  0  0  0
 35 36  2  0  0  0
 10 11  1  0  0  0
 11 12  2  0  0  0
 12 13  1  0  0  0
 13 14  2  0  0  0
 14  6  1  0  0  0
 13  8  1  0  0  0
  5  1  1  0  0  0
 36 31  1  0  0  0
 29 23  1  0  0  0
 17 18  1  0  0  0
M  END
> <minimizedAffinity>
9.94785

> <CNNscore>
0.2176692188

> <CNNaffinity>
7.6947007179

> <CNN_VS>
1.6748994589

> <CNNaffinity_variance>
0.4894525409

$$$$
[H]c1c([H])c([H])c(C([H])([H])n2c([H])nc(-c3c([H])c([H])c(F)c([H])c3[H])c2-c2nn3c([H])c(N([H])C(=O)C(C([H])([H])[H])(C([H])([H])[H])C([H])([H])[H])nc3c([H])c2[H])c([H])c1[H]


 36 40  0  0  0  0  0  0  0  0999 V2000
    9.8548   46.9031  131.6387 C   0  0  0  0  0  0  0  0  0  0  0  0
    9.0590   48.0281  131.6051 C   0  0  0  0  0  0  0  0  0  0  0  0
    9.5395   48.8529  132.5813 N   0  0  0  0  0  0  0  0  0  0  0  0
   10.5647   48.2993  133.1942 C   0  0  0  0  0  0  0  0  0  0  0  0
   10.7534   47.0829  132.5989 N   0  0  0  0  0  0  0  0  0  0  0  0
   10.6658   42.6688  127.5890 C   0  0  0  0  0  0  0  0  0  0  0  0
   11.3067   43.7313  128.1843 C   0  0  0  0  0  0  0  0  0  0  0  0
   10.4640   44.3038  129.0963 N   0  0  0  0  0  0  0  0  0  0  0  0
   10.6257   45.3328  129.9002 N   0  0  0  0  0  0  0  0  0  0  0  0
    9.6731   45.7634  130.7437 C   0  0  0  0  0  0  0  0  0  0  0  0
    8.4905   45.0619  130.7285 C   0  0  0  0  0  0  0  0  0  0  0  0
    8.2973   43.9704  129.8866 C   0  0  0  0  0  0  0  0  0  0  0  0
    9.3229   43.6057  129.0633 C   0  0  0  0  0  0  0  0  0  0  0  0
    9.4445   42.6247  128.1587 N   0  0  0  0  0  0  0  0  0  0  0  0
   11.0202   40.4048  126.6823 C   0  0  0  0  0  0  0  0  0  0  0  0
   10.3934   39.9261  127.6880 O   0  0  0  0  0  0  0  0  0  0  0  0
   11.1781   41.8107  126.5977 N   0  0  0  0  0  0  0  0  0  0  0  0
   11.6832   42.2067  125.7876 H   0  0  0  0  0  0  0  0  0  0  0  0
   12.1232   38.2838  126.4389 C   0  0  0  0  0  0  0  0  0  0  0  0
   11.5305   39.4582  125.6886 C   0  0  0  0  0  0  0  0  0  0  0  0
   10.4070   38.9511  124.8359 C   0  0  0  0  0  0  0  0  0  0  0  0
   12.6385   40.0550  124.8489 C   0  0  0  0  0  0  0  0  0  0  0  0
    7.9242   48.3842  130.7765 C   0  0  0  0  0  0  0  0  0  0  0  0
    7.5412   49.7000  130.6715 C   0  0  0  0  0  0  0  0  0  0  0  0
    6.4610   50.0916  129.8833 C   0  0  0  0  0  0  0  0  0  0  0  0
    5.7399   49.1490  129.1783 C   0  0  0  0  0  0  0  0  0  0  0  0
    4.6845   49.5350  128.4089 F   0  0  0  0  0  0  0  0  0  0  0  0
    6.1166   47.8313  129.2781 C   0  0  0  0  0  0  0  0  0  0  0  0
    7.1960   47.4594  130.0687 C   0  0  0  0  0  0  0  0  0  0  0  0
   11.7981   46.1494  132.9879 C   0  0  0  0  0  0  0  0  0  0  0  0
   11.3416   44.7506  132.9144 C   0  0  0  0  0  0  0  0  0  0  0  0
   10.2407   44.2930  133.5908 C   0  0  0  0  0  0  0  0  0  0  0  0
    9.7989   42.9983  133.5323 C   0  0  0  0  0  0  0  0  0  0  0  0
   10.5030   42.1053  132.7477 C   0  0  0  0  0  0  0  0  0  0  0  0
   11.6180   42.5400  132.0543 C   0  0  0  0  0  0  0  0  0  0  0  0
   12.0409   43.8395  132.1281 C   0  0  0  0  0  0  0  0  0  0  0  0
 19 20  1  0  0  0
 20 21  1  0  0  0
 20 22  1  0  0  0
 20 15  1  0  0  0
 15 16  2  0  0  0
 15 17  1  0  0  0
 17  6  1  0  0  0
  6  7  2  0  0  0
  7  8  1  0  0  0
  8  9  1  0  0  0
  9 10  2  0  0  0
 10  1  1  0  0  0
  1  2  2  0  0  0
  2 23  1  0  0  0
 23 24  2  0  0  0
 24 25  1  0  0  0
 25 26  2  0  0  0
 26 27  1  0  0  0
 26 28  1  0  0  0
 28 29  2  0  0  0
  2  3  1  0  0  0
  3  4  2  0  0  0
  4  5  1  0  0  0
  5 30  1  0  0  0
 30 31  1  0  0  0
 31 32  2  0  0  0
 32 33  1  0  0  0
 33 34  2  0  0  0
 34 35  1  0  0  0
 35 36  2  0  0  0
 10 11  1  0  0  0
 11 12  2  0  0  0
 12 13  1  0  0  0
 13 14  2  0  0  0
 14  6  1  0  0  0
 13  8  1  0  0  0
  5  1  1  0  0  0
 36 31  1  0  0  0
 29 23  1  0  0  0
 17 18  1  0  0  0
M  END
> <minimizedAffinity>
8.89952

> <CNNscore>
0.2001990676

> <CNNaffinity>
7.5294427872

> <CNN_VS>
1.5073873997

> <CNNaffinity_variance>
0.9437080622

$$$$
[H]c1nc(N([H])[H])c(OC([H])([H])C([H])([H])[H])c(N2C([H])([H])C([H])([H])N(C([H])(c3c([H])c([H])c(C(F)(F)F)c([H])c3[H])C([H])([H])N([H])[H])C([H])([H])C2([H])[H])n1


 33 35  0  0  0  0  0  0  0  0999 V2000
    9.2912   46.6939  129.5840 N   0  0  0  0  0  0  0  0  0  0  0  0
   10.2631   46.1613  128.6555 C   0  0  0  0  0  0  0  0  0  0  0  0
   11.0004   45.1214  129.4643 C   0  0  0  0  0  0  0  0  0  0  0  0
   10.2029   43.8674  129.4499 N   0  0  0  0  0  0  0  0  0  0  0  0
    8.8131   44.2970  129.6302 C   0  0  0  0  0  0  0  0  0  0  0  0
    8.6620   45.5755  130.3760 C   0  0  0  0  0  0  0  0  0  0  0  0
    7.9384   48.7655  129.1942 C   0  0  0  0  0  0  0  0  0  0  0  0
    7.7143   50.1169  129.5360 C   0  0  0  0  0  0  0  0  0  0  0  0
    6.7475   50.8865  128.8485 N   0  0  0  0  0  0  0  0  0  0  0  0
    8.4147   50.6759  130.5101 N   0  0  0  0  0  0  0  0  0  0  0  0
    9.3326   49.9290  131.1587 C   0  0  0  0  0  0  0  0  0  0  0  0
    9.5477   48.6544  130.8357 N   0  0  0  0  0  0  0  0  0  0  0  0
    8.8553   47.9997  129.8242 C   0  0  0  0  0  0  0  0  0  0  0  0
    6.0978   51.4994  129.4101 H   0  0  0  0  0  0  0  0  0  0  0  0
    6.6503   50.8827  127.7968 H   0  0  0  0  0  0  0  0  0  0  0  0
    7.1369   48.3006  128.1633 O   0  0  0  0  0  0  0  0  0  0  0  0
    5.6543   47.0369  129.5533 C   0  0  0  0  0  0  0  0  0  0  0  0
    5.7690   47.9882  128.3833 C   0  0  0  0  0  0  0  0  0  0  0  0
   10.5837   43.0785  130.6048 C   0  0  0  0  0  0  0  0  0  0  0  0
   10.4747   43.8368  131.8623 C   0  0  0  0  0  0  0  0  0  0  0  0
    9.3385   43.6885  132.6351 C   0  0  0  0  0  0  0  0  0  0  0  0
    9.1293   44.4579  133.7711 C   0  0  0  0  0  0  0  0  0  0  0  0
   10.0602   45.3992  134.1505 C   0  0  0  0  0  0  0  0  0  0  0  0
   11.2040   45.5712  133.4091 C   0  0  0  0  0  0  0  0  0  0  0  0
   11.3766   44.7737  132.2741 C   0  0  0  0  0  0  0  0  0  0  0  0
    9.8074   46.2621  135.3304 C   0  0  0  0  0  0  0  0  0  0  0  0
    8.4447   46.6334  135.2691 F   0  0  0  0  0  0  0  0  0  0  0  0
   10.5321   47.4284  135.3207 F   0  0  0  0  0  0  0  0  0  0  0  0
    9.9389   45.5665  136.5088 F   0  0  0  0  0  0  0  0  0  0  0  0
    9.5303   41.9553  130.7318 C   0  0  0  0  0  0  0  0  0  0  0  0
    8.3629   42.1804  129.9564 N   0  0  0  0  0  0  0  0  0  0  0  0
    7.6021   42.5944  130.5070 H   0  0  0  0  0  0  0  0  0  0  0  0
    8.1045   41.4024  129.3401 H   0  0  0  0  0  0  0  0  0  0  0  0
 17 18  1  0  0  0
 18 16  1  0  0  0
 16  7  1  0  0  0
  7  8  2  0  0  0
  8  9  1  0  0  0
  8 10  1  0  0  0
 10 11  2  0  0  0
 11 12  1  0  0  0
 12 13  2  0  0  0
 13  1  1  0  0  0
  1  2  1  0  0  0
  2  3  1  0  0  0
  3  4  1  0  0  0
  4 19  1  0  0  0
 19 30  1  0  0  0
 30 31  1  0  0  0
 19 20  1  0  0  0
 20 21  2  0  0  0
 21 22  1  0  0  0
 22 23  2  0  0  0
 23 26  1  0  0  0
 26 27  1  0  0  0
 26 28  1  0  0  0
 26 29  1  0  0  0
 23 24  1  0  0  0
 24 25  2  0  0  0
  4  5  1  0  0  0
  5  6  1  0  0  0
 13  7  1  0  0  0
  6  1  1  0  0  0
 25 20  1  0  0  0
  9 14  1  0  0  0
  9 15  1  0  0  0
 31 32  1  0  0  0
 31 33  1  0  0  0
M  END
> <minimizedAffinity>
-6.70179

> <CNNscore>
0.3775116205

> <CNNaffinity>
7.6805610657

> <CNN_VS>
2.8995010853

> <CNNaffinity_variance>
0.0635173693

$$$$
[H]c1nc(N([H])[H])c(OC([H])([H])C([H])([H])[H])c(N2C([H])([H])C([H])([H])N(C([H])(c3c([H])c([H])c(C(F)(F)F)c([H])c3[H])C([H])([H])N([H])[H])C([H])([H])C2([H])[H])n1


 33 35  0  0  0  0  0  0  0  0999 V2000
    8.4967   45.2692  130.3235 N   0  0  0  0  0  0  0  0  0  0  0  0
    7.1359   45.5247  129.9070 C   0  0  0  0  0  0  0  0  0  0  0  0
    6.8211   46.8708  130.5137 C   0  0  0  0  0  0  0  0  0  0  0  0
    7.3626   47.9249  129.6167 N   0  0  0  0  0  0  0  0  0  0  0  0
    8.6808   47.4345  129.2038 C   0  0  0  0  0  0  0  0  0  0  0  0
    9.3262   46.5209  130.1850 C   0  0  0  0  0  0  0  0  0  0  0  0
    9.4052   42.9409  130.1593 C   0  0  0  0  0  0  0  0  0  0  0  0
    9.9645   41.8360  130.8373 C   0  0  0  0  0  0  0  0  0  0  0  0
   10.2387   40.6297  130.1521 N   0  0  0  0  0  0  0  0  0  0  0  0
   10.2371   41.9239  132.1295 N   0  0  0  0  0  0  0  0  0  0  0  0
    9.9720   43.0816  132.7700 C   0  0  0  0  0  0  0  0  0  0  0  0
    9.4414   44.1246  132.1327 N   0  0  0  0  0  0  0  0  0  0  0  0
    9.1253   44.1075  130.7796 C   0  0  0  0  0  0  0  0  0  0  0  0
   11.1614   40.1486  130.3266 H   0  0  0  0  0  0  0  0  0  0  0  0
    9.5586   40.1826  129.4788 H   0  0  0  0  0  0  0  0  0  0  0  0
    9.1736   42.7210  128.8105 O   0  0  0  0  0  0  0  0  0  0  0  0
   10.7109   44.0933  127.5936 C   0  0  0  0  0  0  0  0  0  0  0  0
    9.2570   43.7827  127.8707 C   0  0  0  0  0  0  0  0  0  0  0  0
    7.5554   49.1283  130.4016 C   0  0  0  0  0  0  0  0  0  0  0  0
    8.3961   48.8950  131.5878 C   0  0  0  0  0  0  0  0  0  0  0  0
    9.7147   49.3085  131.5635 C   0  0  0  0  0  0  0  0  0  0  0  0
   10.5844   49.0184  132.6053 C   0  0  0  0  0  0  0  0  0  0  0  0
   10.1445   48.2989  133.6942 C   0  0  0  0  0  0  0  0  0  0  0  0
    8.8389   47.8753  133.7550 C   0  0  0  0  0  0  0  0  0  0  0  0
    7.9958   48.1915  132.6857 C   0  0  0  0  0  0  0  0  0  0  0  0
   11.0900   47.9380  134.7787 C   0  0  0  0  0  0  0  0  0  0  0  0
   12.0122   49.0050  134.8763 F   0  0  0  0  0  0  0  0  0  0  0  0
   11.8242   46.8087  134.5112 F   0  0  0  0  0  0  0  0  0  0  0  0
   10.4668   47.8869  136.0029 F   0  0  0  0  0  0  0  0  0  0  0  0
    8.3789   50.0952  129.5216 C   0  0  0  0  0  0  0  0  0  0  0  0
    9.4843   50.6762  130.1962 N   0  0  0  0  0  0  0  0  0  0  0  0
    9.2711   51.6111  130.5621 H   0  0  0  0  0  0  0  0  0  0  0  0
   10.3816   50.5739  129.7099 H   0  0  0  0  0  0  0  0  0  0  0  0
 17 18  1  0  0  0
 18 16  1  0  0  0
 16  7  1  0  0  0
  7  8  2  0  0  0
  8  9  1  0  0  0
  8 10  1  0  0  0
 10 11  2  0  0  0
 11 12  1  0  0  0
 12 13  2  0  0  0
 13  1  1  0  0  0
  1  2  1  0  0  0
  2  3  1  0  0  0
  3  4  1  0  0  0
  4 19  1  0  0  0
 19 30  1  0  0  0
 30 31  1  0  0  0
 19 20  1  0  0  0
 20 21  2  0  0  0
 21 22  1  0  0  0
 22 23  2  0  0  0
 23 26  1  0  0  0
 26 27  1  0  0  0
 26 28  1  0  0  0
 26 29  1  0  0  0
 23 24  1  0  0  0
 24 25  2  0  0  0
  4  5  1  0  0  0
  5  6  1  0  0  0
 13  7  1  0  0  0
  6  1  1  0  0  0
 25 20  1  0  0  0
  9 14  1  0  0  0
  9 15  1  0  0  0
 31 32  1  0  0  0
 31 33  1  0  0  0
M  END
> <minimizedAffinity>
3.23184

> <CNNscore>
0.3567146063

> <CNNaffinity>
7.2540297508

> <CNN_VS>
2.5876183510

> <CNNaffinity_variance>
0.6502866745

$$$$
[H]c1nc(N([H])[H])c(OC([H])([H])C([H])([H])[H])c(N2C([H])([H])C([H])([H])N(C([H])(c3c([H])c([H])c(C(F)(F)F)c([H])c3[H])C([H])([H])N([H])[H])C([H])([H])C2([H])[H])n1


 33 35  0  0  0  0  0  0  0  0999 V2000
    8.1989   46.6306  131.8075 N   0  0  0  0  0  0  0  0  0  0  0  0
    7.2376   45.7056  131.2504 C   0  0  0  0  0  0  0  0  0  0  0  0
    8.0360   44.4421  131.0378 C   0  0  0  0  0  0  0  0  0  0  0  0
    8.0954   43.7053  132.3271 N   0  0  0  0  0  0  0  0  0  0  0  0
    8.3336   44.7339  133.3439 C   0  0  0  0  0  0  0  0  0  0  0  0
    9.0514   45.9355  132.8390 C   0  0  0  0  0  0  0  0  0  0  0  0
    7.7899   48.8748  130.7731 C   0  0  0  0  0  0  0  0  0  0  0  0
    8.2456   50.1992  130.5954 C   0  0  0  0  0  0  0  0  0  0  0  0
    7.5537   51.0950  129.7477 N   0  0  0  0  0  0  0  0  0  0  0  0
    9.3330   50.6129  131.2265 N   0  0  0  0  0  0  0  0  0  0  0  0
    9.9820   49.7478  132.0336 C   0  0  0  0  0  0  0  0  0  0  0  0
    9.5552   48.4967  132.2004 N   0  0  0  0  0  0  0  0  0  0  0  0
    8.4254   47.9890  131.5703 C   0  0  0  0  0  0  0  0  0  0  0  0
    7.3825   52.0796  130.0860 H   0  0  0  0  0  0  0  0  0  0  0  0
    7.2068   50.8266  128.7869 H   0  0  0  0  0  0  0  0  0  0  0  0
    6.6395   48.5704  130.0621 O   0  0  0  0  0  0  0  0  0  0  0  0
    5.4619   47.0919  128.5944 C   0  0  0  0  0  0  0  0  0  0  0  0
    6.7089   47.9223  128.8002 C   0  0  0  0  0  0  0  0  0  0  0  0
    9.2506   42.8303  132.2926 C   0  0  0  0  0  0  0  0  0  0  0  0
   10.3333   43.3643  131.4495 C   0  0  0  0  0  0  0  0  0  0  0  0
   10.1692   43.3718  130.0772 C   0  0  0  0  0  0  0  0  0  0  0  0
   11.1955   43.7585  129.2268 C   0  0  0  0  0  0  0  0  0  0  0  0
   12.4139   44.1418  129.7419 C   0  0  0  0  0  0  0  0  0  0  0  0
   12.6120   44.1512  131.1015 C   0  0  0  0  0  0  0  0  0  0  0  0
   11.5511   43.7572  131.9221 C   0  0  0  0  0  0  0  0  0  0  0  0
   13.5286   44.4972  128.8300 C   0  0  0  0  0  0  0  0  0  0  0  0
   14.7234   44.2064  129.5274 F   0  0  0  0  0  0  0  0  0  0  0  0
   13.5735   45.8332  128.5156 F   0  0  0  0  0  0  0  0  0  0  0  0
   13.5549   43.6901  127.7176 F   0  0  0  0  0  0  0  0  0  0  0  0
    9.8347   42.8232  133.7230 C   0  0  0  0  0  0  0  0  0  0  0  0
    9.8559   41.5367  134.3222 N   0  0  0  0  0  0  0  0  0  0  0  0
    9.0482   41.3780  134.9353 H   0  0  0  0  0  0  0  0  0  0  0  0
   10.7693   41.2552  134.6943 H   0  0  0  0  0  0  0  0  0  0  0  0
 17 18  1  0  0  0
 18 16  1  0  0  0
 16  7  1  0  0  0
  7  8  2  0  0  0
  8  9  1  0  0  0
  8 10  1  0  0  0
 10 11  2  0  0  0
 11 12  1  0  0  0
 12 13  2  0  0  0
 13  1  1  0  0  0
  1  2  1  0  0  0
  2  3  1  0  0  0
  3  4  1  0  0  0
  4 19  1  0  0  0
 19 30  1  0  0  0
 30 31  1  0  0  0
 19 20  1  0  0  0
 20 21  2  0  0  0
 21 22  1  0  0  0
 22 23  2  0  0  0
 23 26  1  0  0  0
 26 27  1  0  0  0
 26 28  1  0  0  0
 26 29  1  0  0  0
 23 24  1  0  0  0
 24 25  2  0  0  0
  4  5  1  0  0  0
  5  6  1  0  0  0
 13  7  1  0  0  0
  6  1  1  0  0  0
 25 20  1  0  0  0
  9 14  1  0  0  0
  9 15  1  0  0  0
 31 32  1  0  0  0
 31 33  1  0  0  0
M  END
> <minimizedAffinity>
-1.16249

> <CNNscore>
0.2703667879

> <CNNaffinity>
7.2946715355

> <CNN_VS>
1.9722368717

> <CNNaffinity_variance>
0.5184966326

$$$$
[H]c1nc(N([H])[H])c(OC([H])([H])C([H])([H])[H])c(N2C([H])([H])C([H])([H])N(C([H])(c3c([H])c([H])c(C(F)(F)F)c([H])c3[H])C([H])([H])N([H])[H])C([H])([H])C2([H])[H])n1


 33 35  0  0  0  0  0  0  0  0999 V2000
    8.5179   47.0275  131.8833 N   0  0  0  0  0  0  0  0  0  0  0  0
    8.0835   46.6757  133.2167 C   0  0  0  0  0  0  0  0  0  0  0  0
    8.6050   45.2717  133.4059 C   0  0  0  0  0  0  0  0  0  0  0  0
   10.0295   45.3552  133.8216 N   0  0  0  0  0  0  0  0  0  0  0  0
   10.6126   46.4022  132.9776 C   0  0  0  0  0  0  0  0  0  0  0  0
    9.9380   46.5710  131.6622 C   0  0  0  0  0  0  0  0  0  0  0  0
    7.8129   49.0196  130.5387 C   0  0  0  0  0  0  0  0  0  0  0  0
    7.0107   49.5181  129.4893 C   0  0  0  0  0  0  0  0  0  0  0  0
    6.9719   50.9023  129.2029 N   0  0  0  0  0  0  0  0  0  0  0  0
    6.2838   48.6849  128.7618 N   0  0  0  0  0  0  0  0  0  0  0  0
    6.3320   47.3664  129.0452 C   0  0  0  0  0  0  0  0  0  0  0  0
    7.0862   46.8944  130.0371 N   0  0  0  0  0  0  0  0  0  0  0  0
    7.8731   47.7058  130.8455 C   0  0  0  0  0  0  0  0  0  0  0  0
    7.0282   51.2111  128.1955 H   0  0  0  0  0  0  0  0  0  0  0  0
    6.8808   51.6426  129.9507 H   0  0  0  0  0  0  0  0  0  0  0  0
    8.5280   49.9937  131.2180 O   0  0  0  0  0  0  0  0  0  0  0  0
   10.0790   49.8934  133.0377 C   0  0  0  0  0  0  0  0  0  0  0  0
    9.8987   49.8055  131.5388 C   0  0  0  0  0  0  0  0  0  0  0  0
   10.6703   44.0987  133.4875 C   0  0  0  0  0  0  0  0  0  0  0  0
   10.5068   43.7464  132.0671 C   0  0  0  0  0  0  0  0  0  0  0  0
   11.4874   44.1226  131.1687 C   0  0  0  0  0  0  0  0  0  0  0  0
   11.3376   43.9174  129.8044 C   0  0  0  0  0  0  0  0  0  0  0  0
   10.1913   43.3322  129.3143 C   0  0  0  0  0  0  0  0  0  0  0  0
    9.1970   42.9410  130.1781 C   0  0  0  0  0  0  0  0  0  0  0  0
    9.3897   43.1635  131.5447 C   0  0  0  0  0  0  0  0  0  0  0  0
   10.0065   43.1681  127.8517 C   0  0  0  0  0  0  0  0  0  0  0  0
   10.8593   44.1107  127.2330 F   0  0  0  0  0  0  0  0  0  0  0  0
    8.7326   43.4533  127.4256 F   0  0  0  0  0  0  0  0  0  0  0  0
   10.4485   41.9415  127.4160 F   0  0  0  0  0  0  0  0  0  0  0  0
   12.1888   44.3236  133.6633 C   0  0  0  0  0  0  0  0  0  0  0  0
   12.9623   43.1470  133.4846 N   0  0  0  0  0  0  0  0  0  0  0  0
   13.1940   42.6928  134.3753 H   0  0  0  0  0  0  0  0  0  0  0  0
   13.7297   43.2402  132.8106 H   0  0  0  0  0  0  0  0  0  0  0  0
 17 18  1  0  0  0
 18 16  1  0  0  0
 16  7  1  0  0  0
  7  8  2  0  0  0
  8  9  1  0  0  0
  8 10  1  0  0  0
 10 11  2  0  0  0
 11 12  1  0  0  0
 12 13  2  0  0  0
 13  1  1  0  0  0
  1  2  1  0  0  0
  2  3  1  0  0  0
  3  4  1  0  0  0
  4 19  1  0  0  0
 19 30  1  0  0  0
 30 31  1  0  0  0
 19 20  1  0  0  0
 20 21  2  0  0  0
 21 22  1  0  0  0
 22 23  2  0  0  0
 23 26  1  0  0  0
 26 27  1  0  0  0
 26 28  1  0  0  0
 26 29  1  0  0  0
 23 24  1  0  0  0
 24 25  2  0  0  0
  4  5  1  0  0  0
  5  6  1  0  0  0
 13  7  1  0  0  0
  6  1  1  0  0  0
 25 20  1  0  0  0
  9 14  1  0  0  0
  9 15  1  0  0  0
 31 32  1  0  0  0
 31 33  1  0  0  0
M  END
> <minimizedAffinity>
-7.27342

> <CNNscore>
0.2701601088

> <CNNaffinity>
7.5494523048

> <CNN_VS>
2.0395607948

> <CNNaffinity_variance>
0.0690133795

$$$$
[H]c1nc(N([H])[H])c(OC([H])([H])C([H])([H])[H])c(N2C([H])([H])C([H])([H])N(C([H])(c3c([H])c([H])c(C(F)(F)F)c([H])c3[H])C([H])([H])N([H])[H])C([H])([H])C2([H])[H])n1


 33 35  0  0  0  0  0  0  0  0999 V2000
    9.3394   46.5150  129.4356 N   0  0  0  0  0  0  0  0  0  0  0  0
   10.5545   45.9993  128.8458 C   0  0  0  0  0  0  0  0  0  0  0  0
   10.7740   44.6891  129.5628 C   0  0  0  0  0  0  0  0  0  0  0  0
    9.9373   43.6515  128.9054 N   0  0  0  0  0  0  0  0  0  0  0  0
    8.6515   44.3060  128.6463 C   0  0  0  0  0  0  0  0  0  0  0  0
    8.3271   45.4083  129.5916 C   0  0  0  0  0  0  0  0  0  0  0  0
    8.0718   48.6725  129.3272 C   0  0  0  0  0  0  0  0  0  0  0  0
    7.9244   49.9871  129.8207 C   0  0  0  0  0  0  0  0  0  0  0  0
    6.9696   50.8674  129.2610 N   0  0  0  0  0  0  0  0  0  0  0  0
    8.6863   50.4065  130.8184 N   0  0  0  0  0  0  0  0  0  0  0  0
    9.5918   49.5551  131.3440 C   0  0  0  0  0  0  0  0  0  0  0  0
    9.7345   48.3151  130.8777 N   0  0  0  0  0  0  0  0  0  0  0  0
    8.9747   47.8044  129.8323 C   0  0  0  0  0  0  0  0  0  0  0  0
    6.3709   51.4428  129.9119 H   0  0  0  0  0  0  0  0  0  0  0  0
    6.8330   50.9821  128.2199 H   0  0  0  0  0  0  0  0  0  0  0  0
    7.2112   48.3571  128.2873 O   0  0  0  0  0  0  0  0  0  0  0  0
    5.5501   47.0845  129.4486 C   0  0  0  0  0  0  0  0  0  0  0  0
    5.8128   48.2368  128.5052 C   0  0  0  0  0  0  0  0  0  0  0  0
    9.7143   42.5826  129.8588 C   0  0  0  0  0  0  0  0  0  0  0  0
   10.2493   42.9010  131.1932 C   0  0  0  0  0  0  0  0  0  0  0  0
    9.3903   43.3955  132.1564 C   0  0  0  0  0  0  0  0  0  0  0  0
    9.8550   43.8173  133.3942 C   0  0  0  0  0  0  0  0  0  0  0  0
   11.1993   43.7547  133.6867 C   0  0  0  0  0  0  0  0  0  0  0  0
   12.0824   43.2644  132.7553 C   0  0  0  0  0  0  0  0  0  0  0  0
   11.5719   42.8477  131.5225 C   0  0  0  0  0  0  0  0  0  0  0  0
   11.7021   44.2614  134.9870 C   0  0  0  0  0  0  0  0  0  0  0  0
   10.7366   45.1802  135.4581 F   0  0  0  0  0  0  0  0  0  0  0  0
   12.8841   44.9530  134.8848 F   0  0  0  0  0  0  0  0  0  0  0  0
   11.7496   43.2693  135.9374 F   0  0  0  0  0  0  0  0  0  0  0  0
    8.1853   42.4910  130.0610 C   0  0  0  0  0  0  0  0  0  0  0  0
    7.7412   41.2047  130.4648 N   0  0  0  0  0  0  0  0  0  0  0  0
    7.4047   40.6420  129.6752 H   0  0  0  0  0  0  0  0  0  0  0  0
    7.1543   41.2015  131.3059 H   0  0  0  0  0  0  0  0  0  0  0  0
 17 18  1  0  0  0
 18 16  1  0  0  0
 16  7  1  0  0  0
  7  8  2  0  0  0
  8  9  1  0  0  0
  8 10  1  0  0  0
 10 11  2  0  0  0
 11 12  1  0  0  0
 12 13  2  0  0  0
 13  1  1  0  0  0
  1  2  1  0  0  0
  2  3  1  0  0  0
  3  4  1  0  0  0
  4 19  1  0  0  0
 19 30  1  0  0  0
 30 31  1  0  0  0
 19 20  1  0  0  0
 20 21  2  0  0  0
 21 22  1  0  0  0
 22 23  2  0  0  0
 23 26  1  0  0  0
 26 27  1  0  0  0
 26 28  1  0  0  0
 26 29  1  0  0  0
 23 24  1  0  0  0
 24 25  2  0  0  0
  4  5  1  0  0  0
  5  6  1  0  0  0
 13  7  1  0  0  0
  6  1  1  0  0  0
 25 20  1  0  0  0
  9 14  1  0  0  0
  9 15  1  0  0  0
 31 32  1  0  0  0
 31 33  1  0  0  0
M  END
> <minimizedAffinity>
-6.15818

> <CNNscore>
0.2341994941

> <CNNaffinity>
7.4377112389

> <CNN_VS>
1.7419081926

> <CNNaffinity_variance>
0.0739027262

$$$$
[H]c1nc(N([H])[H])c(OC([H])([H])C([H])([H])[H])c(N2C([H])([H])C([H])([H])N(C([H])(c3c([H])c([H])c(C(F)(F)F)c([H])c3[H])C([H])([H])N([H])[H])C([H])([H])C2([H])[H])n1


 33 35  0  0  0  0  0  0  0  0999 V2000
    8.9693   46.2087  129.1704 N   0  0  0  0  0  0  0  0  0  0  0  0
   10.2432   46.0721  128.5004 C   0  0  0  0  0  0  0  0  0  0  0  0
   11.1394   45.4652  129.5527 C   0  0  0  0  0  0  0  0  0  0  0  0
   10.9151   43.9961  129.5658 N   0  0  0  0  0  0  0  0  0  0  0  0
    9.4635   43.8306  129.4470 C   0  0  0  0  0  0  0  0  0  0  0  0
    8.6740   44.9726  129.9821 C   0  0  0  0  0  0  0  0  0  0  0  0
    8.1157   48.5438  129.4737 C   0  0  0  0  0  0  0  0  0  0  0  0
    6.9960   49.4036  129.4934 C   0  0  0  0  0  0  0  0  0  0  0  0
    7.1381   50.7691  129.8327 N   0  0  0  0  0  0  0  0  0  0  0  0
    5.7966   48.9318  129.1924 N   0  0  0  0  0  0  0  0  0  0  0  0
    5.6762   47.6273  128.8688 C   0  0  0  0  0  0  0  0  0  0  0  0
    6.7312   46.8136  128.8524 N   0  0  0  0  0  0  0  0  0  0  0  0
    8.0197   47.2339  129.1593 C   0  0  0  0  0  0  0  0  0  0  0  0
    6.6397   51.4897  129.2448 H   0  0  0  0  0  0  0  0  0  0  0  0
    7.7140   51.1015  130.6533 H   0  0  0  0  0  0  0  0  0  0  0  0
    9.3119   49.1624  129.8019 O   0  0  0  0  0  0  0  0  0  0  0  0
    9.6398   49.8394  132.0737 C   0  0  0  0  0  0  0  0  0  0  0  0
    9.9999   48.8363  131.0009 C   0  0  0  0  0  0  0  0  0  0  0  0
   11.3214   43.4902  130.8621 C   0  0  0  0  0  0  0  0  0  0  0  0
   10.7899   44.2998  131.9713 C   0  0  0  0  0  0  0  0  0  0  0  0
    9.6123   43.9079  132.5795 C   0  0  0  0  0  0  0  0  0  0  0  0
    9.0050   44.6883  133.5533 C   0  0  0  0  0  0  0  0  0  0  0  0
    9.5699   45.8858  133.9323 C   0  0  0  0  0  0  0  0  0  0  0  0
   10.7428   46.3053  133.3526 C   0  0  0  0  0  0  0  0  0  0  0  0
   11.3226   45.4878  132.3782 C   0  0  0  0  0  0  0  0  0  0  0  0
    8.8887   46.7471  134.9295 C   0  0  0  0  0  0  0  0  0  0  0  0
    7.6510   46.1263  135.2146 F   0  0  0  0  0  0  0  0  0  0  0  0
    8.5975   48.0039  134.4590 F   0  0  0  0  0  0  0  0  0  0  0  0
    9.5633   46.7730  136.1269 F   0  0  0  0  0  0  0  0  0  0  0  0
   10.6437   42.1111  131.0235 C   0  0  0  0  0  0  0  0  0  0  0  0
   11.1929   41.3270  132.0716 N   0  0  0  0  0  0  0  0  0  0  0  0
   11.8868   40.6516  131.7316 H   0  0  0  0  0  0  0  0  0  0  0  0
   10.5038   40.9698  132.7421 H   0  0  0  0  0  0  0  0  0  0  0  0
 17 18  1  0  0  0
 18 16  1  0  0  0
 16  7  1  0  0  0
  7  8  2  0  0  0
  8  9  1  0  0  0
  8 10  1  0  0  0
 10 11  2  0  0  0
 11 12  1  0  0  0
 12 13  2  0  0  0
 13  1  1  0  0  0
  1  2  1  0  0  0
  2  3  1  0  0  0
  3  4  1  0  0  0
  4 19  1  0  0  0
 19 30  1  0  0  0
 30 31  1  0  0  0
 19 20  1  0  0  0
 20 21  2  0  0  0
 21 22  1  0  0  0
 22 23  2  0  0  0
 23 26  1  0  0  0
 26 27  1  0  0  0
 26 28  1  0  0  0
 26 29  1  0  0  0
 23 24  1  0  0  0
 24 25  2  0  0  0
  4  5  1  0  0  0
  5  6  1  0  0  0
 13  7  1  0  0  0
  6  1  1  0  0  0
 25 20  1  0  0  0
  9 14  1  0  0  0
  9 15  1  0  0  0
 31 32  1  0  0  0
 31 33  1  0  0  0
M  END
> <minimizedAffinity>
-7.34571

> <CNNscore>
0.2312525809

> <CNNaffinity>
7.4947204590

> <CNN_VS>
1.7331734896

> <CNNaffinity_variance>
0.0668385327

$$$$
[H]c1nc(N([H])[H])c(OC([H])([H])C([H])([H])[H])c(N2C([H])([H])C([H])([H])N(C([H])(c3c([H])c([H])c(C(F)(F)F)c([H])c3[H])C([H])([H])N([H])[H])C([H])([H])C2([H])[H])n1


 33 35  0  0  0  0  0  0  0  0999 V2000
    9.1921   47.1636  132.8550 N   0  0  0  0  0  0  0  0  0  0  0  0
    8.5106   46.4402  133.9051 C   0  0  0  0  0  0  0  0  0  0  0  0
    8.8756   44.9988  133.6438 C   0  0  0  0  0  0  0  0  0  0  0  0
   10.2109   44.7398  134.2426 N   0  0  0  0  0  0  0  0  0  0  0  0
   11.0126   45.9220  133.9136 C   0  0  0  0  0  0  0  0  0  0  0  0
   10.5868   46.6207  132.6708 C   0  0  0  0  0  0  0  0  0  0  0  0
    7.9505   48.2992  130.9997 C   0  0  0  0  0  0  0  0  0  0  0  0
    7.7542   49.4823  130.2546 C   0  0  0  0  0  0  0  0  0  0  0  0
    6.8689   49.5048  129.1522 N   0  0  0  0  0  0  0  0  0  0  0  0
    8.4042   50.5864  130.5867 N   0  0  0  0  0  0  0  0  0  0  0  0
    9.2444   50.5508  131.6420 C   0  0  0  0  0  0  0  0  0  0  0  0
    9.4332   49.4345  132.3446 N   0  0  0  0  0  0  0  0  0  0  0  0
    8.7903   48.2370  132.0555 C   0  0  0  0  0  0  0  0  0  0  0  0
    6.2047   50.3187  129.0548 H   0  0  0  0  0  0  0  0  0  0  0  0
    6.8469   48.7477  128.4160 H   0  0  0  0  0  0  0  0  0  0  0  0
    7.2073   47.2176  130.5531 O   0  0  0  0  0  0  0  0  0  0  0  0
    9.0315   46.6741  129.1025 C   0  0  0  0  0  0  0  0  0  0  0  0
    7.8203   46.1517  129.8423 C   0  0  0  0  0  0  0  0  0  0  0  0
   10.7939   43.5980  133.5659 C   0  0  0  0  0  0  0  0  0  0  0  0
   10.5664   43.6323  132.1114 C   0  0  0  0  0  0  0  0  0  0  0  0
    9.4424   43.0145  131.5966 C   0  0  0  0  0  0  0  0  0  0  0  0
    9.2314   42.9175  130.2284 C   0  0  0  0  0  0  0  0  0  0  0  0
   10.1534   43.4373  129.3473 C   0  0  0  0  0  0  0  0  0  0  0  0
   11.2806   44.0626  129.8229 C   0  0  0  0  0  0  0  0  0  0  0  0
   11.4527   44.1411  131.2079 C   0  0  0  0  0  0  0  0  0  0  0  0
    9.9564   43.2801  127.8855 C   0  0  0  0  0  0  0  0  0  0  0  0
   10.7388   44.2820  127.2669 F   0  0  0  0  0  0  0  0  0  0  0  0
    8.6607   43.4900  127.4822 F   0  0  0  0  0  0  0  0  0  0  0  0
   10.4675   42.0892  127.4270 F   0  0  0  0  0  0  0  0  0  0  0  0
   12.3248   43.7312  133.7265 C   0  0  0  0  0  0  0  0  0  0  0  0
   13.0623   42.8363  132.9080 N   0  0  0  0  0  0  0  0  0  0  0  0
   13.3483   41.9902  133.4136 H   0  0  0  0  0  0  0  0  0  0  0  0
   13.7817   43.2830  132.3293 H   0  0  0  0  0  0  0  0  0  0  0  0
 17 18  1  0  0  0
 18 16  1  0  0  0
 16  7  1  0  0  0
  7  8  2  0  0  0
  8  9  1  0  0  0
  8 10  1  0  0  0
 10 11  2  0  0  0
 11 12  1  0  0  0
 12 13  2  0  0  0
 13  1  1  0  0  0
  1  2  1  0  0  0
  2  3  1  0  0  0
  3  4  1  0  0  0
  4 19  1  0  0  0
 19 30  1  0  0  0
 30 31  1  0  0  0
 19 20  1  0  0  0
 20 21  2  0  0  0
 21 22  1  0  0  0
 22 23  2  0  0  0
 23 26  1  0  0  0
 26 27  1  0  0  0
 26 28  1  0  0  0
 26 29  1  0  0  0
 23 24  1  0  0  0
 24 25  2  0  0  0
  4  5  1  0  0  0
  5  6  1  0  0  0
 13  7  1  0  0  0
  6  1  1  0  0  0
 25 20  1  0  0  0
  9 14  1  0  0  0
  9 15  1  0  0  0
 31 32  1  0  0  0
 31 33  1  0  0  0
M  END
> <minimizedAffinity>
-7.48344

> <CNNscore>
0.2270436287

> <CNNaffinity>
7.5229263306

> <CNN_VS>
1.7080324888

> <CNNaffinity_variance>
0.0340755060

$$$$
[H]c1nc(N([H])[H])c(OC([H])([H])C([H])([H])[H])c(N2C([H])([H])C([H])([H])N(C([H])(c3c([H])c([H])c(C(F)(F)F)c([H])c3[H])C([H])([H])N([H])[H])C([H])([H])C2([H])[H])n1


 33 35  0  0  0  0  0  0  0  0999 V2000
    9.0273   47.0147  132.7603 N   0  0  0  0  0  0  0  0  0  0  0  0
    8.1947   46.0796  133.4834 C   0  0  0  0  0  0  0  0  0  0  0  0
    8.8431   44.7422  133.2190 C   0  0  0  0  0  0  0  0  0  0  0  0
    9.9715   44.5743  134.1715 N   0  0  0  0  0  0  0  0  0  0  0  0
   10.6363   45.8802  134.2096 C   0  0  0  0  0  0  0  0  0  0  0  0
   10.4833   46.6787  132.9635 C   0  0  0  0  0  0  0  0  0  0  0  0
    7.9444   48.2489  130.8689 C   0  0  0  0  0  0  0  0  0  0  0  0
    7.8308   49.4619  130.1555 C   0  0  0  0  0  0  0  0  0  0  0  0
    7.0225   49.5479  128.9983 N   0  0  0  0  0  0  0  0  0  0  0  0
    8.4866   50.5345  130.5694 N   0  0  0  0  0  0  0  0  0  0  0  0
    9.2527   50.4383  131.6761 C   0  0  0  0  0  0  0  0  0  0  0  0
    9.3635   49.2937  132.3490 N   0  0  0  0  0  0  0  0  0  0  0  0
    8.7093   48.1261  131.9751 C   0  0  0  0  0  0  0  0  0  0  0  0
    6.3885   50.3839  128.8865 H   0  0  0  0  0  0  0  0  0  0  0  0
    7.0295   48.8174  128.2355 H   0  0  0  0  0  0  0  0  0  0  0  0
    7.2040   47.2055  130.3354 O   0  0  0  0  0  0  0  0  0  0  0  0
    9.1495   46.5863  129.0869 C   0  0  0  0  0  0  0  0  0  0  0  0
    7.8391   46.1178  129.6790 C   0  0  0  0  0  0  0  0  0  0  0  0
   10.8983   43.6136  133.6065 C   0  0  0  0  0  0  0  0  0  0  0  0
   10.6988   43.4263  132.1596 C   0  0  0  0  0  0  0  0  0  0  0  0
   11.6119   43.9804  131.2824 C   0  0  0  0  0  0  0  0  0  0  0  0
   11.4182   43.9328  129.9090 C   0  0  0  0  0  0  0  0  0  0  0  0
   10.2949   43.3292  129.3890 C   0  0  0  0  0  0  0  0  0  0  0  0
    9.3677   42.7636  130.2306 C   0  0  0  0  0  0  0  0  0  0  0  0
    9.6030   42.8312  131.6068 C   0  0  0  0  0  0  0  0  0  0  0  0
   10.0594   43.3317  127.9245 C   0  0  0  0  0  0  0  0  0  0  0  0
    8.6828   43.5966  127.7416 F   0  0  0  0  0  0  0  0  0  0  0  0
   10.3078   42.1200  127.3281 F   0  0  0  0  0  0  0  0  0  0  0  0
   10.7119   44.3708  127.3046 F   0  0  0  0  0  0  0  0  0  0  0  0
   12.3051   44.2405  133.7303 C   0  0  0  0  0  0  0  0  0  0  0  0
   13.2958   43.3295  134.1814 N   0  0  0  0  0  0  0  0  0  0  0  0
   13.4631   43.4029  135.1913 H   0  0  0  0  0  0  0  0  0  0  0  0
   14.1299   43.2787  133.5866 H   0  0  0  0  0  0  0  0  0  0  0  0
 17 18  1  0  0  0
 18 16  1  0  0  0
 16  7  1  0  0  0
  7  8  2  0  0  0
  8  9  1  0  0  0
  8 10  1  0  0  0
 10 11  2  0  0  0
 11 12  1  0  0  0
 12 13  2  0  0  0
 13  1  1  0  0  0
  1  2  1  0  0  0
  2  3  1  0  0  0
  3  4  1  0  0  0
  4 19  1  0  0  0
 19 30  1  0  0  0
 30 31  1  0  0  0
 19 20  1  0  0  0
 20 21  2  0  0  0
 21 22  1  0  0  0
 22 23  2  0  0  0
 23 26  1  0  0  0
 26 27  1  0  0  0
 26 28  1  0  0  0
 26 29  1  0  0  0
 23 24  1  0  0  0
 24 25  2  0  0  0
  4  5  1  0  0  0
  5  6  1  0  0  0
 13  7  1  0  0  0
  6  1  1  0  0  0
 25 20  1  0  0  0
  9 14  1  0  0  0
  9 15  1  0  0  0
 31 32  1  0  0  0
 31 33  1  0  0  0
M  END
> <minimizedAffinity>
-6.99462

> <CNNscore>
0.1955171227

> <CNNaffinity>
7.4343795776

> <CNN_VS>
1.4535485506

> <CNNaffinity_variance>
0.0512916520

$$$$
[H]c1nc(N([H])[H])c(OC([H])([H])C([H])([H])[H])c(N2C([H])([H])C([H])([H])N(C([H])(c3c([H])c([H])c(C(F)(F)F)c([H])c3[H])C([H])([H])N([H])[H])C([H])([H])C2([H])[H])n1


 33 35  0  0  0  0  0  0  0  0999 V2000
    8.4516   45.2702  129.8718 N   0  0  0  0  0  0  0  0  0  0  0  0
    7.1630   45.5210  129.2661 C   0  0  0  0  0  0  0  0  0  0  0  0
    6.6951   46.7933  129.9304 C   0  0  0  0  0  0  0  0  0  0  0  0
    7.3217   47.9438  129.2285 N   0  0  0  0  0  0  0  0  0  0  0  0
    8.7096   47.5361  128.9914 C   0  0  0  0  0  0  0  0  0  0  0  0
    9.2340   46.5548  129.9792 C   0  0  0  0  0  0  0  0  0  0  0  0
   10.1517   43.8800  131.0761 C   0  0  0  0  0  0  0  0  0  0  0  0
   10.6585   42.5879  131.3349 C   0  0  0  0  0  0  0  0  0  0  0  0
   11.8147   42.4097  132.1294 N   0  0  0  0  0  0  0  0  0  0  0  0
   10.0489   41.5269  130.8302 N   0  0  0  0  0  0  0  0  0  0  0  0
    8.9456   41.7118  130.0755 C   0  0  0  0  0  0  0  0  0  0  0  0
    8.4676   42.9306  129.8276 N   0  0  0  0  0  0  0  0  0  0  0  0
    9.0534   44.0910  130.3190 C   0  0  0  0  0  0  0  0  0  0  0  0
   11.8101   41.6529  132.8646 H   0  0  0  0  0  0  0  0  0  0  0  0
   12.6869   42.9943  132.0158 H   0  0  0  0  0  0  0  0  0  0  0  0
   10.8775   44.9028  131.6665 O   0  0  0  0  0  0  0  0  0  0  0  0
   12.4635   44.8323  129.8758 C   0  0  0  0  0  0  0  0  0  0  0  0
   12.2459   45.1087  131.3465 C   0  0  0  0  0  0  0  0  0  0  0  0
    7.3332   49.0732  130.1371 C   0  0  0  0  0  0  0  0  0  0  0  0
    8.1477   48.8190  131.3372 C   0  0  0  0  0  0  0  0  0  0  0  0
    9.3382   49.5035  131.4935 C   0  0  0  0  0  0  0  0  0  0  0  0
   10.2007   49.2265  132.5449 C   0  0  0  0  0  0  0  0  0  0  0  0
    9.8839   48.2477  133.4604 C   0  0  0  0  0  0  0  0  0  0  0  0
    8.7067   47.5497  133.3394 C   0  0  0  0  0  0  0  0  0  0  0  0
    7.8655   47.8623  132.2676 C   0  0  0  0  0  0  0  0  0  0  0  0
   10.8341   47.9113  134.5487 C   0  0  0  0  0  0  0  0  0  0  0  0
   11.6496   46.8659  134.0582 F   0  0  0  0  0  0  0  0  0  0  0  0
   10.2221   47.4325  135.6809 F   0  0  0  0  0  0  0  0  0  0  0  0
   11.6970   48.9487  134.8114 F   0  0  0  0  0  0  0  0  0  0  0  0
    8.0662   50.2171  129.4010 C   0  0  0  0  0  0  0  0  0  0  0  0
    7.1916   51.1810  128.8346 N   0  0  0  0  0  0  0  0  0  0  0  0
    7.0136   51.0093  127.8385 H   0  0  0  0  0  0  0  0  0  0  0  0
    7.3990   52.1505  129.0971 H   0  0  0  0  0  0  0  0  0  0  0  0
 17 18  1  0  0  0
 18 16  1  0  0  0
 16  7  1  0  0  0
  7  8  2  0  0  0
  8  9  1  0  0  0
  8 10  1  0  0  0
 10 11  2  0  0  0
 11 12  1  0  0  0
 12 13  2  0  0  0
 13  1  1  0  0  0
  1  2  1  0  0  0
  2  3  1  0  0  0
  3  4  1  0  0  0
  4 19  1  0  0  0
 19 30  1  0  0  0
 30 31  1  0  0  0
 19 20  1  0  0  0
 20 21  2  0  0  0
 21 22  1  0  0  0
 22 23  2  0  0  0
 23 26  1  0  0  0
 26 27  1  0  0  0
 26 28  1  0  0  0
 26 29  1  0  0  0
 23 24  1  0  0  0
 24 25  2  0  0  0
  4  5  1  0  0  0
  5  6  1  0  0  0
 13  7  1  0  0  0
  6  1  1  0  0  0
 25 20  1  0  0  0
  9 14  1  0  0  0
  9 15  1  0  0  0
 31 32  1  0  0  0
 31 33  1  0  0  0
M  END
> <minimizedAffinity>
-2.93007

> <CNNscore>
0.1678360999

> <CNNaffinity>
7.1025404930

> <CNN_VS>
1.1920627356

> <CNNaffinity_variance>
0.2845591307

$$$$
[H]OC(=O)[C@@]([H])(Oc1c(Br)c([H])c(-c2c([H])c([H])c(-c3c(C([H])([H])c4c([H])c([H])c([H])c([H])c4[H])oc4c([H])c([H])c([H])c([H])c34)c([H])c2[H])c([H])c1Br)C([H])([H])c1c([H])c([H])c([H])c([H])c1[H]


 43 48  0  0  0  0  0  0  0  0999 V2000
    7.5397   50.9737  129.0719 C   0  0  0  0  0  0  0  0  0  0  0  0
    7.3404   52.3021  129.3941 C   0  0  0  0  0  0  0  0  0  0  0  0
    7.0448   53.1802  128.3839 C   0  0  0  0  0  0  0  0  0  0  0  0
    6.9288   52.8414  127.0572 C   0  0  0  0  0  0  0  0  0  0  0  0
    7.1376   51.4825  126.7726 C   0  0  0  0  0  0  0  0  0  0  0  0
    7.4335   50.5852  127.7572 C   0  0  0  0  0  0  0  0  0  0  0  0
    6.6466   53.7694  125.9791 C   0  0  0  0  0  0  0  0  0  0  0  0
    5.6007   54.5888  125.7618 C   0  0  0  0  0  0  0  0  0  0  0  0
    5.7802   55.2241  124.6012 O   0  0  0  0  0  0  0  0  0  0  0  0
    6.9028   54.8637  124.0355 C   0  0  0  0  0  0  0  0  0  0  0  0
    7.5230   55.2239  122.8596 C   0  0  0  0  0  0  0  0  0  0  0  0
    8.7345   54.6786  122.4916 C   0  0  0  0  0  0  0  0  0  0  0  0
    9.3049   53.7579  123.3448 C   0  0  0  0  0  0  0  0  0  0  0  0
    8.6863   53.3863  124.5358 C   0  0  0  0  0  0  0  0  0  0  0  0
    7.4955   53.9426  124.8652 C   0  0  0  0  0  0  0  0  0  0  0  0
    4.3991   54.8442  126.5835 C   0  0  0  0  0  0  0  0  0  0  0  0
    3.3225   53.8878  126.2636 C   0  0  0  0  0  0  0  0  0  0  0  0
    2.4248   53.3667  127.1425 C   0  0  0  0  0  0  0  0  0  0  0  0
    1.4333   52.4594  126.7358 C   0  0  0  0  0  0  0  0  0  0  0  0
    1.3367   52.0638  125.4246 C   0  0  0  0  0  0  0  0  0  0  0  0
    2.2354   52.5791  124.5175 C   0  0  0  0  0  0  0  0  0  0  0  0
    3.2061   53.4719  124.9295 C   0  0  0  0  0  0  0  0  0  0  0  0
    8.4472   47.9645  132.0014 C   0  0  0  0  0  0  0  0  0  0  0  0
    8.9936   49.2523  132.0830 C   0  0  0  0  0  0  0  0  0  0  0  0
   10.1408   49.6480  133.5463 Br  0  0  0  0  0  0  0  0  0  0  0  0
    8.7011   50.2165  131.1386 C   0  0  0  0  0  0  0  0  0  0  0  0
    7.8641   49.9680  130.0768 C   0  0  0  0  0  0  0  0  0  0  0  0
    7.3166   48.6972  129.9850 C   0  0  0  0  0  0  0  0  0  0  0  0
    7.6186   47.7212  130.9445 C   0  0  0  0  0  0  0  0  0  0  0  0
    6.8584   45.9786  130.6211 Br  0  0  0  0  0  0  0  0  0  0  0  0
    8.7385   47.0019  132.9309 O   0  0  0  0  0  0  0  0  0  0  0  0
    9.6262   45.9033  132.7761 C   0  0  0  0  0  0  0  0  0  0  0  0
   11.1891   44.8939  134.3345 O   0  0  0  0  0  0  0  0  0  0  0  0
   10.2275   45.6805  134.1093 C   0  0  0  0  0  0  0  0  0  0  0  0
    9.7505   46.3542  135.2274 O   0  0  0  0  0  0  0  0  0  0  0  0
    8.8788   46.2265  135.6715 H   0  0  0  0  0  0  0  0  0  0  0  0
   10.7132   46.1708  131.7484 C   0  0  0  0  0  0  0  0  0  0  0  0
   10.5813   45.3783  130.5117 C   0  0  0  0  0  0  0  0  0  0  0  0
   10.5842   46.0475  129.2728 C   0  0  0  0  0  0  0  0  0  0  0  0
   10.4939   45.3012  128.1140 C   0  0  0  0  0  0  0  0  0  0  0  0
   10.4007   43.9200  128.1341 C   0  0  0  0  0  0  0  0  0  0  0  0
   10.4019   43.3081  129.3746 C   0  0  0  0  0  0  0  0  0  0  0  0
   10.4903   44.0121  130.5500 C   0  0  0  0  0  0  0  0  0  0  0  0
 33 34  2  0  0  0
 34 35  1  0  0  0
 34 32  1  0  0  0
 32 37  1  0  0  0
 37 38  1  0  0  0
 38 39  2  0  0  0
 39 40  1  0  0  0
 40 41  2  0  0  0
 41 42  1  0  0  0
 42 43  2  0  0  0
 32 31  1  0  0  0
 31 23  1  0  0  0
 23 24  2  0  0  0
 24 25  1  0  0  0
 24 26  1  0  0  0
 26 27  2  0  0  0
 27  1  1  0  0  0
  1  2  2  0  0  0
  2  3  1  0  0  0
  3  4  2  0  0  0
  4  7  1  0  0  0
  7  8  2  0  0  0
  8 16  1  0  0  0
 16 17  1  0  0  0
 17 18  2  0  0  0
 18 19  1  0  0  0
 19 20  2  0  0  0
 20 21  1  0  0  0
 21 22  2  0  0  0
  8  9  1  0  0  0
  9 10  1  0  0  0
 10 11  2  0  0  0
 11 12  1  0  0  0
 12 13  2  0  0  0
 13 14  1  0  0  0
 14 15  2  0  0  0
  4  5  1  0  0  0
  5  6  2  0  0  0
 27 28  1  0  0  0
 28 29  2  0  0  0
 29 30  1  0  0  0
 43 38  1  0  0  0
 29 23  1  0  0  0
  6  1  1  0  0  0
 15  7  1  0  0  0
 22 17  1  0  0  0
 15 10  1  0  0  0
 35 36  1  0  0  0
M  END
> <minimizedAffinity>
11.44421

> <CNNscore>
0.2523831725

> <CNNaffinity>
7.4476675987

> <CNN_VS>
1.8796659708

> <CNNaffinity_variance>
0.6333974004

$$$$
[H]OC(=O)[C@@]([H])(Oc1c(Br)c([H])c(-c2c([H])c([H])c(-c3c(C([H])([H])c4c([H])c([H])c([H])c([H])c4[H])oc4c([H])c([H])c([H])c([H])c34)c([H])c2[H])c([H])c1Br)C([H])([H])c1c([H])c([H])c([H])c([H])c1[H]


 43 48  0  0  0  0  0  0  0  0999 V2000
    7.4559   50.4538  129.2725 C   0  0  0  0  0  0  0  0  0  0  0  0
    7.1586   49.1220  129.0584 C   0  0  0  0  0  0  0  0  0  0  0  0
    7.8278   48.1786  129.7941 C   0  0  0  0  0  0  0  0  0  0  0  0
    8.7844   48.4544  130.7413 C   0  0  0  0  0  0  0  0  0  0  0  0
    9.0560   49.8190  130.9290 C   0  0  0  0  0  0  0  0  0  0  0  0
    8.4060   50.7805  130.2112 C   0  0  0  0  0  0  0  0  0  0  0  0
    9.5184   47.4613  131.5018 C   0  0  0  0  0  0  0  0  0  0  0  0
   10.4553   46.5694  131.1289 C   0  0  0  0  0  0  0  0  0  0  0  0
   10.8070   45.8393  132.1901 O   0  0  0  0  0  0  0  0  0  0  0  0
   10.1448   46.2077  133.2558 C   0  0  0  0  0  0  0  0  0  0  0  0
   10.1483   45.7747  134.5634 C   0  0  0  0  0  0  0  0  0  0  0  0
    9.3305   46.3510  135.5119 C   0  0  0  0  0  0  0  0  0  0  0  0
    8.5071   47.3790  135.1042 C   0  0  0  0  0  0  0  0  0  0  0  0
    8.4952   47.8243  133.7848 C   0  0  0  0  0  0  0  0  0  0  0  0
    9.3123   47.2340  132.8792 C   0  0  0  0  0  0  0  0  0  0  0  0
   11.0811   46.3344  129.8108 C   0  0  0  0  0  0  0  0  0  0  0  0
   10.5460   45.1140  129.1778 C   0  0  0  0  0  0  0  0  0  0  0  0
   11.0775   44.4670  128.1059 C   0  0  0  0  0  0  0  0  0  0  0  0
   10.4895   43.3071  127.5765 C   0  0  0  0  0  0  0  0  0  0  0  0
    9.3468   42.7828  128.1282 C   0  0  0  0  0  0  0  0  0  0  0  0
    8.7916   43.4217  129.2142 C   0  0  0  0  0  0  0  0  0  0  0  0
    9.3799   44.5620  129.7270 C   0  0  0  0  0  0  0  0  0  0  0  0
    5.5861   53.6580  127.1048 C   0  0  0  0  0  0  0  0  0  0  0  0
    4.8836   52.4912  127.4350 C   0  0  0  0  0  0  0  0  0  0  0  0
    3.0594   52.3661  126.9149 Br  0  0  0  0  0  0  0  0  0  0  0  0
    5.4883   51.4627  128.1302 C   0  0  0  0  0  0  0  0  0  0  0  0
    6.8008   51.5272  128.5340 C   0  0  0  0  0  0  0  0  0  0  0  0
    7.5068   52.6769  128.2136 C   0  0  0  0  0  0  0  0  0  0  0  0
    6.8895   53.7170  127.5055 C   0  0  0  0  0  0  0  0  0  0  0  0
    8.0325   55.2025  127.0514 Br  0  0  0  0  0  0  0  0  0  0  0  0
    4.9943   54.6787  126.4097 O   0  0  0  0  0  0  0  0  0  0  0  0
    5.1231   54.9572  125.0224 C   0  0  0  0  0  0  0  0  0  0  0  0
    3.4352   55.0586  123.2815 O   0  0  0  0  0  0  0  0  0  0  0  0
    3.7421   55.0789  124.5061 C   0  0  0  0  0  0  0  0  0  0  0  0
    2.6670   55.2235  125.3749 O   0  0  0  0  0  0  0  0  0  0  0  0
    2.4569   56.0077  125.9354 H   0  0  0  0  0  0  0  0  0  0  0  0
    5.8686   53.8646  124.2741 C   0  0  0  0  0  0  0  0  0  0  0  0
    7.1352   54.3091  123.6633 C   0  0  0  0  0  0  0  0  0  0  0  0
    7.1299   54.7313  122.3200 C   0  0  0  0  0  0  0  0  0  0  0  0
    8.3103   55.1787  121.7592 C   0  0  0  0  0  0  0  0  0  0  0  0
    9.4942   55.2238  122.4756 C   0  0  0  0  0  0  0  0  0  0  0  0
    9.4492   54.7990  123.7911 C   0  0  0  0  0  0  0  0  0  0  0  0
    8.2976   54.3477  124.3869 C   0  0  0  0  0  0  0  0  0  0  0  0
 33 34  2  0  0  0
 34 35  1  0  0  0
 34 32  1  0  0  0
 32 37  1  0  0  0
 37 38  1  0  0  0
 38 39  2  0  0  0
 39 40  1  0  0  0
 40 41  2  0  0  0
 41 42  1  0  0  0
 42 43  2  0  0  0
 32 31  1  0  0  0
 31 23  1  0  0  0
 23 24  2  0  0  0
 24 25  1  0  0  0
 24 26  1  0  0  0
 26 27  2  0  0  0
 27  1  1  0  0  0
  1  2  2  0  0  0
  2  3  1  0  0  0
  3  4  2  0  0  0
  4  7  1  0  0  0
  7  8  2  0  0  0
  8 16  1  0  0  0
 16 17  1  0  0  0
 17 18  2  0  0  0
 18 19  1  0  0  0
 19 20  2  0  0  0
 20 21  1  0  0  0
 21 22  2  0  0  0
  8  9  1  0  0  0
  9 10  1  0  0  0
 10 11  2  0  0  0
 11 12  1  0  0  0
 12 13  2  0  0  0
 13 14  1  0  0  0
 14 15  2  0  0  0
  4  5  1  0  0  0
  5  6  2  0  0  0
 27 28  1  0  0  0
 28 29  2  0  0  0
 29 30  1  0  0  0
 43 38  1  0  0  0
 29 23  1  0  0  0
  6  1  1  0  0  0
 15  7  1  0  0  0
 22 17  1  0  0  0
 15 10  1  0  0  0
 35 36  1  0  0  0
M  END
> <minimizedAffinity>
13.44787

> <CNNscore>
0.1414795220

> <CNNaffinity>
7.1255555153

> <CNN_VS>
1.0081201792

> <CNNaffinity_variance>
0.2798198164

$$$$
[H]OC(=O)[C@@]([H])(Oc1c(Br)c([H])c(-c2c([H])c([H])c(-c3c(C([H])([H])c4c([H])c([H])c([H])c([H])c4[H])oc4c([H])c([H])c([H])c([H])c34)c([H])c2[H])c([H])c1Br)C([H])([H])c1c([H])c([H])c([H])c([H])c1[H]


 43 48  0  0  0  0  0  0  0  0999 V2000
   14.1591   44.9772  126.9633 C   0  0  0  0  0  0  0  0  0  0  0  0
   14.5163   44.7101  125.6560 C   0  0  0  0  0  0  0  0  0  0  0  0
   14.7597   45.7673  124.8181 C   0  0  0  0  0  0  0  0  0  0  0  0
   14.6762   47.0908  125.1785 C   0  0  0  0  0  0  0  0  0  0  0  0
   14.3117   47.3188  126.5150 C   0  0  0  0  0  0  0  0  0  0  0  0
   14.0630   46.2865  127.3721 C   0  0  0  0  0  0  0  0  0  0  0  0
   14.9024   48.2147  124.2903 C   0  0  0  0  0  0  0  0  0  0  0  0
   15.3870   48.2734  123.0357 C   0  0  0  0  0  0  0  0  0  0  0  0
   15.4428   49.5507  122.6507 O   0  0  0  0  0  0  0  0  0  0  0  0
   15.0143   50.3467  123.5956 C   0  0  0  0  0  0  0  0  0  0  0  0
   14.8777   51.7145  123.6850 C   0  0  0  0  0  0  0  0  0  0  0  0
   14.3869   52.3131  124.8257 C   0  0  0  0  0  0  0  0  0  0  0  0
   14.0364   51.4920  125.8764 C   0  0  0  0  0  0  0  0  0  0  0  0
   14.1708   50.1083  125.7969 C   0  0  0  0  0  0  0  0  0  0  0  0
   14.6573   49.5544  124.6600 C   0  0  0  0  0  0  0  0  0  0  0  0
   15.8157   47.1917  122.1245 C   0  0  0  0  0  0  0  0  0  0  0  0
   15.3433   45.8773  122.5995 C   0  0  0  0  0  0  0  0  0  0  0  0
   16.0954   44.9325  123.2253 C   0  0  0  0  0  0  0  0  0  0  0  0
   15.5483   43.7078  123.6405 C   0  0  0  0  0  0  0  0  0  0  0  0
   14.2230   43.4203  123.4256 C   0  0  0  0  0  0  0  0  0  0  0  0
   13.4429   44.3627  122.7936 C   0  0  0  0  0  0  0  0  0  0  0  0
   13.9925   45.5647  122.3906 C   0  0  0  0  0  0  0  0  0  0  0  0
   13.3645   41.8938  129.8481 C   0  0  0  0  0  0  0  0  0  0  0  0
   12.9062   41.7949  128.5275 C   0  0  0  0  0  0  0  0  0  0  0  0
   11.9328   40.2393  128.0309 Br  0  0  0  0  0  0  0  0  0  0  0  0
   13.1619   42.7887  127.6035 C   0  0  0  0  0  0  0  0  0  0  0  0
   13.8751   43.9189  127.9256 C   0  0  0  0  0  0  0  0  0  0  0  0
   14.3344   44.0286  129.2294 C   0  0  0  0  0  0  0  0  0  0  0  0
   14.0700   43.0184  130.1644 C   0  0  0  0  0  0  0  0  0  0  0  0
   14.6901   43.3662  131.9572 Br  0  0  0  0  0  0  0  0  0  0  0  0
   13.1085   40.9149  130.7711 O   0  0  0  0  0  0  0  0  0  0  0  0
   14.0605   40.1033  131.4445 C   0  0  0  0  0  0  0  0  0  0  0  0
   15.4827   41.9439  132.1371 O   0  0  0  0  0  0  0  0  0  0  0  0
   14.7146   40.9869  132.4344 C   0  0  0  0  0  0  0  0  0  0  0  0
   14.5074   40.8066  133.7968 O   0  0  0  0  0  0  0  0  0  0  0  0
   14.8266   40.0565  134.3526 H   0  0  0  0  0  0  0  0  0  0  0  0
   15.0966   39.5139  130.5019 C   0  0  0  0  0  0  0  0  0  0  0  0
   15.7592   40.5080  129.6373 C   0  0  0  0  0  0  0  0  0  0  0  0
   16.4072   40.0663  128.4677 C   0  0  0  0  0  0  0  0  0  0  0  0
   16.9988   41.0021  127.6419 C   0  0  0  0  0  0  0  0  0  0  0  0
   16.9743   42.3564  127.9287 C   0  0  0  0  0  0  0  0  0  0  0  0
   16.3260   42.7415  129.0882 C   0  0  0  0  0  0  0  0  0  0  0  0
   15.7249   41.8443  129.9361 C   0  0  0  0  0  0  0  0  0  0  0  0
 33 34  2  0  0  0
 34 35  1  0  0  0
 34 32  1  0  0  0
 32 37  1  0  0  0
 37 38  1  0  0  0
 38 39  2  0  0  0
 39 40  1  0  0  0
 40 41  2  0  0  0
 41 42  1  0  0  0
 42 43  2  0  0  0
 32 31  1  0  0  0
 31 23  1  0  0  0
 23 24  2  0  0  0
 24 25  1  0  0  0
 24 26  1  0  0  0
 26 27  2  0  0  0
 27  1  1  0  0  0
  1  2  2  0  0  0
  2  3  1  0  0  0
  3  4  2  0  0  0
  4  7  1  0  0  0
  7  8  2  0  0  0
  8 16  1  0  0  0
 16 17  1  0  0  0
 17 18  2  0  0  0
 18 19  1  0  0  0
 19 20  2  0  0  0
 20 21  1  0  0  0
 21 22  2  0  0  0
  8  9  1  0  0  0
  9 10  1  0  0  0
 10 11  2  0  0  0
 11 12  1  0  0  0
 12 13  2  0  0  0
 13 14  1  0  0  0
 14 15  2  0  0  0
  4  5  1  0  0  0
  5  6  2  0  0  0
 27 28  1  0  0  0
 28 29  2  0  0  0
 29 30  1  0  0  0
 43 38  1  0  0  0
 29 23  1  0  0  0
  6  1  1  0  0  0
 15  7  1  0  0  0
 22 17  1  0  0  0
 15 10  1  0  0  0
 35 36  1  0  0  0
M  END
> <minimizedAffinity>
415.65448

> <CNNscore>
0.0043914523

> <CNNaffinity>
4.3006620407

> <CNN_VS>
0.0188861527

> <CNNaffinity_variance>
4.3653106689

$$$$
[H]OC(=O)[C@@]([H])(Oc1c(Br)c([H])c(-c2c([H])c([H])c(-c3c(C([H])([H])c4c([H])c([H])c([H])c([H])c4[H])oc4c([H])c([H])c([H])c([H])c34)c([H])c2[H])c([H])c1Br)C([H])([H])c1c([H])c([H])c([H])c([H])c1[H]


 43 48  0  0  0  0  0  0  0  0999 V2000
    7.7587   45.1916  129.5763 C   0  0  0  0  0  0  0  0  0  0  0  0
    7.0781   46.3616  129.8518 C   0  0  0  0  0  0  0  0  0  0  0  0
    7.7069   47.3194  130.6043 C   0  0  0  0  0  0  0  0  0  0  0  0
    8.9782   47.2085  131.1142 C   0  0  0  0  0  0  0  0  0  0  0  0
    9.6353   46.0055  130.8107 C   0  0  0  0  0  0  0  0  0  0  0  0
    9.0346   45.0339  130.0641 C   0  0  0  0  0  0  0  0  0  0  0  0
    9.6387   48.2040  131.9364 C   0  0  0  0  0  0  0  0  0  0  0  0
    9.2816   48.7732  133.1030 C   0  0  0  0  0  0  0  0  0  0  0  0
   10.2077   49.6702  133.4502 O   0  0  0  0  0  0  0  0  0  0  0  0
   11.1685   49.7225  132.5646 C   0  0  0  0  0  0  0  0  0  0  0  0
   12.3227   50.4683  132.4700 C   0  0  0  0  0  0  0  0  0  0  0  0
   13.1847   50.3232  131.4040 C   0  0  0  0  0  0  0  0  0  0  0  0
   12.8500   49.4025  130.4339 C   0  0  0  0  0  0  0  0  0  0  0  0
   11.6856   48.6437  130.5194 C   0  0  0  0  0  0  0  0  0  0  0  0
   10.8611   48.8131  131.5814 C   0  0  0  0  0  0  0  0  0  0  0  0
    8.1016   48.5367  133.9607 C   0  0  0  0  0  0  0  0  0  0  0  0
    6.9496   48.0724  133.1647 C   0  0  0  0  0  0  0  0  0  0  0  0
    5.6870   48.5760  133.2111 C   0  0  0  0  0  0  0  0  0  0  0  0
    4.6560   48.0616  132.4086 C   0  0  0  0  0  0  0  0  0  0  0  0
    4.8904   47.0224  131.5425 C   0  0  0  0  0  0  0  0  0  0  0  0
    6.1617   46.4970  131.4793 C   0  0  0  0  0  0  0  0  0  0  0  0
    7.1683   47.0123  132.2733 C   0  0  0  0  0  0  0  0  0  0  0  0
    6.0897   42.0045  127.2272 C   0  0  0  0  0  0  0  0  0  0  0  0
    5.2852   42.8062  128.0481 C   0  0  0  0  0  0  0  0  0  0  0  0
    3.4160   42.4615  128.0827 Br  0  0  0  0  0  0  0  0  0  0  0  0
    5.8253   43.8286  128.8031 C   0  0  0  0  0  0  0  0  0  0  0  0
    7.1700   44.1140  128.7897 C   0  0  0  0  0  0  0  0  0  0  0  0
    7.9769   43.3278  127.9811 C   0  0  0  0  0  0  0  0  0  0  0  0
    7.4244   42.2896  127.2187 C   0  0  0  0  0  0  0  0  0  0  0  0
    8.6906   41.2270  126.2252 Br  0  0  0  0  0  0  0  0  0  0  0  0
    5.5613   40.9849  126.4813 O   0  0  0  0  0  0  0  0  0  0  0  0
    6.0391   39.6495  126.3966 C   0  0  0  0  0  0  0  0  0  0  0  0
    7.4693   40.4108  128.2035 O   0  0  0  0  0  0  0  0  0  0  0  0
    6.9296   39.4656  127.5635 C   0  0  0  0  0  0  0  0  0  0  0  0
    7.2279   38.1940  128.0386 O   0  0  0  0  0  0  0  0  0  0  0  0
    7.7778   37.5068  127.5930 H   0  0  0  0  0  0  0  0  0  0  0  0
    6.8000   39.3819  125.1086 C   0  0  0  0  0  0  0  0  0  0  0  0
    6.6022   40.4076  124.0677 C   0  0  0  0  0  0  0  0  0  0  0  0
    5.8576   41.5604  124.3832 C   0  0  0  0  0  0  0  0  0  0  0  0
    5.7011   42.5355  123.4175 C   0  0  0  0  0  0  0  0  0  0  0  0
    6.2520   42.4137  122.1532 C   0  0  0  0  0  0  0  0  0  0  0  0
    6.9747   41.2640  121.8908 C   0  0  0  0  0  0  0  0  0  0  0  0
    7.1547   40.2711  122.8218 C   0  0  0  0  0  0  0  0  0  0  0  0
 33 34  2  0  0  0
 34 35  1  0  0  0
 34 32  1  0  0  0
 32 37  1  0  0  0
 37 38  1  0  0  0
 38 39  2  0  0  0
 39 40  1  0  0  0
 40 41  2  0  0  0
 41 42  1  0  0  0
 42 43  2  0  0  0
 32 31  1  0  0  0
 31 23  1  0  0  0
 23 24  2  0  0  0
 24 25  1  0  0  0
 24 26  1  0  0  0
 26 27  2  0  0  0
 27  1  1  0  0  0
  1  2  2  0  0  0
  2  3  1  0  0  0
  3  4  2  0  0  0
  4  7  1  0  0  0
  7  8  2  0  0  0
  8 16  1  0  0  0
 16 17  1  0  0  0
 17 18  2  0  0  0
 18 19  1  0  0  0
 19 20  2  0  0  0
 20 21  1  0  0  0
 21 22  2  0  0  0
  8  9  1  0  0  0
  9 10  1  0  0  0
 10 11  2  0  0  0
 11 12  1  0  0  0
 12 13  2  0  0  0
 13 14  1  0  0  0
 14 15  2  0  0  0
  4  5  1  0  0  0
  5  6  2  0  0  0
 27 28  1  0  0  0
 28 29  2  0  0  0
 29 30  1  0  0  0
 43 38  1  0  0  0
 29 23  1  0  0  0
  6  1  1  0  0  0
 15  7  1  0  0  0
 22 17  1  0  0  0
 15 10  1  0  0  0
 35 36  1  0  0  0
M  END
> <minimizedAffinity>
266.70016

> <CNNscore>
0.0000404888

> <CNNaffinity>
5.1935729980

> <CNN_VS>
0.0002102815

> <CNNaffinity_variance>
0.9389321208

$$$$
[H]c1c(F)c(C(=O)N([H])S(=O)(=O)C2([H])C([H])([H])C2([H])[H])c([H])c(C2([H])C([H])([H])C2([H])[H])c1OC([H])([H])C1([H])C([H])([H])C([H])([H])C([H])(C(F)(F)F)C([H])([H])C1([H])[H]


 32 35  0  0  0  0  0  0  0  0999 V2000
    7.3593   50.3264  129.2541 C   0  0  0  0  0  0  0  0  0  0  0  0
    6.3705   49.3933  128.9230 C   0  0  0  0  0  0  0  0  0  0  0  0
    6.3834   48.1026  129.3452 C   0  0  0  0  0  0  0  0  0  0  0  0
    7.4354   47.6198  130.1705 C   0  0  0  0  0  0  0  0  0  0  0  0
    8.4013   48.5545  130.4876 C   0  0  0  0  0  0  0  0  0  0  0  0
    8.3647   49.8734  130.0409 C   0  0  0  0  0  0  0  0  0  0  0  0
    9.3614   50.6873  130.4012 F   0  0  0  0  0  0  0  0  0  0  0  0
    6.8076   52.5787  129.5564 O   0  0  0  0  0  0  0  0  0  0  0  0
    7.1966   51.6672  128.7357 C   0  0  0  0  0  0  0  0  0  0  0  0
    7.4160   52.1039  127.4278 N   0  0  0  0  0  0  0  0  0  0  0  0
    7.7399   51.4787  126.6855 H   0  0  0  0  0  0  0  0  0  0  0  0
    7.1663   53.7496  126.9841 S   0  0  0  0  0  0  0  0  0  0  0  0
    7.5440   54.6616  128.1266 O   0  0  0  0  0  0  0  0  0  0  0  0
    5.7306   54.0198  126.6501 O   0  0  0  0  0  0  0  0  0  0  0  0
    8.1979   54.1707  125.5706 C   0  0  0  0  0  0  0  0  0  0  0  0
    8.0830   53.3548  124.3244 C   0  0  0  0  0  0  0  0  0  0  0  0
    7.3856   54.6563  124.3834 C   0  0  0  0  0  0  0  0  0  0  0  0
    5.3235   47.1136  128.9654 C   0  0  0  0  0  0  0  0  0  0  0  0
    4.5327   46.3985  129.9725 C   0  0  0  0  0  0  0  0  0  0  0  0
    3.9013   47.5678  129.3136 C   0  0  0  0  0  0  0  0  0  0  0  0
    7.3933   46.3541  130.5563 O   0  0  0  0  0  0  0  0  0  0  0  0
    7.9458   45.1759  130.4244 C   0  0  0  0  0  0  0  0  0  0  0  0
    8.9065   44.5784  131.3778 C   0  0  0  0  0  0  0  0  0  0  0  0
    8.7252   45.0329  132.8137 C   0  0  0  0  0  0  0  0  0  0  0  0
   10.0934   45.0133  133.4349 C   0  0  0  0  0  0  0  0  0  0  0  0
   10.7360   43.6874  133.3326 C   0  0  0  0  0  0  0  0  0  0  0  0
   10.2498   42.7076  132.3467 C   0  0  0  0  0  0  0  0  0  0  0  0
    9.1780   43.1390  131.3878 C   0  0  0  0  0  0  0  0  0  0  0  0
   12.2768   43.8291  133.2388 C   0  0  0  0  0  0  0  0  0  0  0  0
   12.8308   42.8653  132.4550 F   0  0  0  0  0  0  0  0  0  0  0  0
   12.5868   45.0561  132.6681 F   0  0  0  0  0  0  0  0  0  0  0  0
   12.8274   43.8351  134.4951 F   0  0  0  0  0  0  0  0  0  0  0  0
  8  9  2  0  0  0
  9 10  1  0  0  0
 10 12  1  0  0  0
 12 13  2  0  0  0
 12 14  2  0  0  0
 12 15  1  0  0  0
 15 16  1  0  0  0
 16 17  1  0  0  0
  9  1  1  0  0  0
  1  2  2  0  0  0
  2  3  1  0  0  0
  3 18  1  0  0  0
 18 19  1  0  0  0
 19 20  1  0  0  0
  3  4  2  0  0  0
  4 21  1  0  0  0
 21 22  1  0  0  0
 22 23  1  0  0  0
 23 24  1  0  0  0
 24 25  1  0  0  0
 25 26  1  0  0  0
 26 29  1  0  0  0
 29 30  1  0  0  0
 29 31  1  0  0  0
 29 32  1  0  0  0
 26 27  1  0  0  0
 27 28  1  0  0  0
  4  5  1  0  0  0
  5  6  2  0  0  0
  6  7  1  0  0  0
 17 15  1  0  0  0
  6  1  1  0  0  0
 20 18  1  0  0  0
 28 23  1  0  0  0
 10 11  1  0  0  0
M  END
> <minimizedAffinity>
-0.91040

> <CNNscore>
0.6293670535

> <CNNaffinity>
7.6333136559

> <CNN_VS>
4.8041563034

> <CNNaffinity_variance>
0.7580159307

$$$$
[H]c1c(F)c(C(=O)N([H])S(=O)(=O)C2([H])C([H])([H])C2([H])[H])c([H])c(C2([H])C([H])([H])C2([H])[H])c1OC([H])([H])C1([H])C([H])([H])C([H])([H])C([H])(C(F)(F)F)C([H])([H])C1([H])[H]


 32 35  0  0  0  0  0  0  0  0999 V2000
    7.4310   50.5042  129.7251 C   0  0  0  0  0  0  0  0  0  0  0  0
    6.7275   49.3665  129.3141 C   0  0  0  0  0  0  0  0  0  0  0  0
    6.8261   48.1593  129.9281 C   0  0  0  0  0  0  0  0  0  0  0  0
    7.6758   47.9854  131.0544 C   0  0  0  0  0  0  0  0  0  0  0  0
    8.3610   49.1186  131.4462 C   0  0  0  0  0  0  0  0  0  0  0  0
    8.2423   50.3460  130.7984 C   0  0  0  0  0  0  0  0  0  0  0  0
    8.9639   51.3723  131.2585 F   0  0  0  0  0  0  0  0  0  0  0  0
    6.6931   52.7197  129.6000 O   0  0  0  0  0  0  0  0  0  0  0  0
    7.2086   51.7205  128.9742 C   0  0  0  0  0  0  0  0  0  0  0  0
    7.4919   51.9497  127.6264 N   0  0  0  0  0  0  0  0  0  0  0  0
    7.9157   51.2392  127.0242 H   0  0  0  0  0  0  0  0  0  0  0  0
    7.1548   53.4705  126.8909 S   0  0  0  0  0  0  0  0  0  0  0  0
    7.8000   54.5857  127.6781 O   0  0  0  0  0  0  0  0  0  0  0  0
    5.6828   53.7474  126.8445 O   0  0  0  0  0  0  0  0  0  0  0  0
    7.8229   53.5093  125.2200 C   0  0  0  0  0  0  0  0  0  0  0  0
    7.4765   54.6585  124.3305 C   0  0  0  0  0  0  0  0  0  0  0  0
    8.7897   54.6606  125.0082 C   0  0  0  0  0  0  0  0  0  0  0  0
    6.0770   46.9479  129.4619 C   0  0  0  0  0  0  0  0  0  0  0  0
    4.6576   46.7466  129.7712 C   0  0  0  0  0  0  0  0  0  0  0  0
    4.9958   47.2535  128.4189 C   0  0  0  0  0  0  0  0  0  0  0  0
    7.7281   46.7876  131.6160 O   0  0  0  0  0  0  0  0  0  0  0  0
    8.4875   45.9397  132.2602 C   0  0  0  0  0  0  0  0  0  0  0  0
    9.6916   45.2860  131.7018 C   0  0  0  0  0  0  0  0  0  0  0  0
   10.9859   45.6638  132.3970 C   0  0  0  0  0  0  0  0  0  0  0  0
   12.0587   45.6026  131.3464 C   0  0  0  0  0  0  0  0  0  0  0  0
   12.1270   44.2802  130.6920 C   0  0  0  0  0  0  0  0  0  0  0  0
   10.9821   43.3578  130.7746 C   0  0  0  0  0  0  0  0  0  0  0  0
    9.7241   43.8465  131.4323 C   0  0  0  0  0  0  0  0  0  0  0  0
   12.6054   44.4174  129.2240 C   0  0  0  0  0  0  0  0  0  0  0  0
   11.8939   43.6234  128.3794 F   0  0  0  0  0  0  0  0  0  0  0  0
   12.4264   45.7298  128.8081 F   0  0  0  0  0  0  0  0  0  0  0  0
   13.9508   44.1639  129.1405 F   0  0  0  0  0  0  0  0  0  0  0  0
  8  9  2  0  0  0
  9 10  1  0  0  0
 10 12  1  0  0  0
 12 13  2  0  0  0
 12 14  2  0  0  0
 12 15  1  0  0  0
 15 16  1  0  0  0
 16 17  1  0  0  0
  9  1  1  0  0  0
  1  2  2  0  0  0
  2  3  1  0  0  0
  3 18  1  0  0  0
 18 19  1  0  0  0
 19 20  1  0  0  0
  3  4  2  0  0  0
  4 21  1  0  0  0
 21 22  1  0  0  0
 22 23  1  0  0  0
 23 24  1  0  0  0
 24 25  1  0  0  0
 25 26  1  0  0  0
 26 29  1  0  0  0
 29 30  1  0  0  0
 29 31  1  0  0  0
 29 32  1  0  0  0
 26 27  1  0  0  0
 27 28  1  0  0  0
  4  5  1  0  0  0
  5  6  2  0  0  0
  6  7  1  0  0  0
 17 15  1  0  0  0
  6  1  1  0  0  0
 20 18  1  0  0  0
 28 23  1  0  0  0
 10 11  1  0  0  0
M  END
> <minimizedAffinity>
-0.52721

> <CNNscore>
0.5886609554

> <CNNaffinity>
7.4280104637

> <CNN_VS>
4.3725795746

> <CNNaffinity_variance>
0.6239302754

$$$$
[H]c1c(F)c(C(=O)N([H])S(=O)(=O)C2([H])C([H])([H])C2([H])[H])c([H])c(C2([H])C([H])([H])C2([H])[H])c1OC([H])([H])C1([H])C([H])([H])C([H])([H])C([H])(C(F)(F)F)C([H])([H])C1([H])[H]


 32 35  0  0  0  0  0  0  0  0999 V2000
    7.5211   50.9668  129.2966 C   0  0  0  0  0  0  0  0  0  0  0  0
    7.0384   49.7438  128.8175 C   0  0  0  0  0  0  0  0  0  0  0  0
    7.1383   48.5758  129.5031 C   0  0  0  0  0  0  0  0  0  0  0  0
    7.7579   48.5359  130.7819 C   0  0  0  0  0  0  0  0  0  0  0  0
    8.2271   49.7518  131.2388 C   0  0  0  0  0  0  0  0  0  0  0  0
    8.1122   50.9364  130.5151 C   0  0  0  0  0  0  0  0  0  0  0  0
    8.6144   52.0524  131.0518 F   0  0  0  0  0  0  0  0  0  0  0  0
    6.8526   53.1881  129.0008 O   0  0  0  0  0  0  0  0  0  0  0  0
    7.3271   52.1253  128.4522 C   0  0  0  0  0  0  0  0  0  0  0  0
    7.5985   52.2356  127.0871 N   0  0  0  0  0  0  0  0  0  0  0  0
    7.9908   51.4653  126.5397 H   0  0  0  0  0  0  0  0  0  0  0  0
    7.2999   53.7024  126.2347 S   0  0  0  0  0  0  0  0  0  0  0  0
    8.4501   54.6615  126.4269 O   0  0  0  0  0  0  0  0  0  0  0  0
    6.0598   54.3847  126.7270 O   0  0  0  0  0  0  0  0  0  0  0  0
    7.1398   53.3705  124.4729 C   0  0  0  0  0  0  0  0  0  0  0  0
    6.8644   54.5092  123.5458 C   0  0  0  0  0  0  0  0  0  0  0  0
    8.2505   54.0095  123.6587 C   0  0  0  0  0  0  0  0  0  0  0  0
    6.6301   47.2727  128.9650 C   0  0  0  0  0  0  0  0  0  0  0  0
    5.8390   46.3500  129.7857 C   0  0  0  0  0  0  0  0  0  0  0  0
    5.1043   47.2133  128.8292 C   0  0  0  0  0  0  0  0  0  0  0  0
    7.8223   47.3704  131.4066 O   0  0  0  0  0  0  0  0  0  0  0  0
    8.3496   46.7234  132.4135 C   0  0  0  0  0  0  0  0  0  0  0  0
    8.8439   45.3299  132.3605 C   0  0  0  0  0  0  0  0  0  0  0  0
    9.0274   44.6808  133.7192 C   0  0  0  0  0  0  0  0  0  0  0  0
   10.1688   43.7145  133.5708 C   0  0  0  0  0  0  0  0  0  0  0  0
    9.9332   42.7303  132.4950 C   0  0  0  0  0  0  0  0  0  0  0  0
    8.9256   43.0021  131.4561 C   0  0  0  0  0  0  0  0  0  0  0  0
    8.2452   44.3404  131.4614 C   0  0  0  0  0  0  0  0  0  0  0  0
   11.2719   42.2925  131.8478 C   0  0  0  0  0  0  0  0  0  0  0  0
   11.3903   40.9389  131.7865 F   0  0  0  0  0  0  0  0  0  0  0  0
   11.3263   42.7724  130.5462 F   0  0  0  0  0  0  0  0  0  0  0  0
   12.3269   42.8609  132.5153 F   0  0  0  0  0  0  0  0  0  0  0  0
  8  9  2  0  0  0
  9 10  1  0  0  0
 10 12  1  0  0  0
 12 13  2  0  0  0
 12 14  2  0  0  0
 12 15  1  0  0  0
 15 16  1  0  0  0
 16 17  1  0  0  0
  9  1  1  0  0  0
  1  2  2  0  0  0
  2  3  1  0  0  0
  3 18  1  0  0  0
 18 19  1  0  0  0
 19 20  1  0  0  0
  3  4  2  0  0  0
  4 21  1  0  0  0
 21 22  1  0  0  0
 22 23  1  0  0  0
 23 24  1  0  0  0
 24 25  1  0  0  0
 25 26  1  0  0  0
 26 29  1  0  0  0
 29 30  1  0  0  0
 29 31  1  0  0  0
 29 32  1  0  0  0
 26 27  1  0  0  0
 27 28  1  0  0  0
  4  5  1  0  0  0
  5  6  2  0  0  0
  6  7  1  0  0  0
 17 15  1  0  0  0
  6  1  1  0  0  0
 20 18  1  0  0  0
 28 23  1  0  0  0
 10 11  1  0  0  0
M  END
> <minimizedAffinity>
-0.22696

> <CNNscore>
0.5693811178

> <CNNaffinity>
7.1796045303

> <CNN_VS>
4.0879311562

> <CNNaffinity_variance>
0.4799501896

$$$$
[H]c1c(F)c(C(=O)N([H])S(=O)(=O)C2([H])C([H])([H])C2([H])[H])c([H])c(C2([H])C([H])([H])C2([H])[H])c1OC([H])([H])C1([H])C([H])([H])C([H])([H])C([H])(C(F)(F)F)C([H])([H])C1([H])[H]


 32 35  0  0  0  0  0  0  0  0999 V2000
    6.9713   50.3265  129.0868 C   0  0  0  0  0  0  0  0  0  0  0  0
    8.1734   49.8409  129.6135 C   0  0  0  0  0  0  0  0  0  0  0  0
    8.3345   48.5736  130.0743 C   0  0  0  0  0  0  0  0  0  0  0  0
    7.2560   47.6480  130.0439 C   0  0  0  0  0  0  0  0  0  0  0  0
    6.0784   48.1444  129.5202 C   0  0  0  0  0  0  0  0  0  0  0  0
    5.9393   49.4496  129.0542 C   0  0  0  0  0  0  0  0  0  0  0  0
    4.7477   49.8242  128.5793 F   0  0  0  0  0  0  0  0  0  0  0  0
    6.6319   52.6079  129.4725 O   0  0  0  0  0  0  0  0  0  0  0  0
    6.9632   51.6976  128.6255 C   0  0  0  0  0  0  0  0  0  0  0  0
    7.2790   52.1654  127.3484 N   0  0  0  0  0  0  0  0  0  0  0  0
    7.5705   51.5429  126.5905 H   0  0  0  0  0  0  0  0  0  0  0  0
    7.2113   53.8451  126.9725 S   0  0  0  0  0  0  0  0  0  0  0  0
    7.7270   54.6612  128.1335 O   0  0  0  0  0  0  0  0  0  0  0  0
    5.8081   54.2933  126.6973 O   0  0  0  0  0  0  0  0  0  0  0  0
    8.2431   54.1989  125.5409 C   0  0  0  0  0  0  0  0  0  0  0  0
    8.1054   53.3447  124.3229 C   0  0  0  0  0  0  0  0  0  0  0  0
    7.4339   54.6609  124.3422 C   0  0  0  0  0  0  0  0  0  0  0  0
    9.6258   48.0775  130.6507 C   0  0  0  0  0  0  0  0  0  0  0  0
   10.6763   48.9949  131.1043 C   0  0  0  0  0  0  0  0  0  0  0  0
    9.8001   48.3955  132.1402 C   0  0  0  0  0  0  0  0  0  0  0  0
    7.4722   46.4247  130.5014 O   0  0  0  0  0  0  0  0  0  0  0  0
    7.3568   45.6329  131.5361 C   0  0  0  0  0  0  0  0  0  0  0  0
    8.4783   44.9233  132.1900 C   0  0  0  0  0  0  0  0  0  0  0  0
    8.6461   45.2447  133.6630 C   0  0  0  0  0  0  0  0  0  0  0  0
   10.1165   45.1311  133.9514 C   0  0  0  0  0  0  0  0  0  0  0  0
   10.6571   43.8045  133.5914 C   0  0  0  0  0  0  0  0  0  0  0  0
    9.9163   42.9352  132.6619 C   0  0  0  0  0  0  0  0  0  0  0  0
    8.6777   43.4828  132.0137 C   0  0  0  0  0  0  0  0  0  0  0  0
   12.1421   43.9144  133.1610 C   0  0  0  0  0  0  0  0  0  0  0  0
   12.4475   43.0494  132.1567 F   0  0  0  0  0  0  0  0  0  0  0  0
   12.3855   45.1978  132.6907 F   0  0  0  0  0  0  0  0  0  0  0  0
   12.9622   43.7367  134.2460 F   0  0  0  0  0  0  0  0  0  0  0  0
  8  9  2  0  0  0
  9 10  1  0  0  0
 10 12  1  0  0  0
 12 13  2  0  0  0
 12 14  2  0  0  0
 12 15  1  0  0  0
 15 16  1  0  0  0
 16 17  1  0  0  0
  9  1  1  0  0  0
  1  2  2  0  0  0
  2  3  1  0  0  0
  3 18  1  0  0  0
 18 19  1  0  0  0
 19 20  1  0  0  0
  3  4  2  0  0  0
  4 21  1  0  0  0
 21 22  1  0  0  0
 22 23  1  0  0  0
 23 24  1  0  0  0
 24 25  1  0  0  0
 25 26  1  0  0  0
 26 29  1  0  0  0
 29 30  1  0  0  0
 29 31  1  0  0  0
 29 32  1  0  0  0
 26 27  1  0  0  0
 27 28  1  0  0  0
  4  5  1  0  0  0
  5  6  2  0  0  0
  6  7  1  0  0  0
 17 15  1  0  0  0
  6  1  1  0  0  0
 20 18  1  0  0  0
 28 23  1  0  0  0
 10 11  1  0  0  0
M  END
> <minimizedAffinity>
-4.18807

> <CNNscore>
0.5672130585

> <CNNaffinity>
7.5407433510

> <CNN_VS>
4.2772083282

> <CNNaffinity_variance>
0.2970172763

$$$$
[H]c1c(F)c(C(=O)N([H])S(=O)(=O)C2([H])C([H])([H])C2([H])[H])c([H])c(C2([H])C([H])([H])C2([H])[H])c1OC([H])([H])C1([H])C([H])([H])C([H])([H])C([H])(C(F)(F)F)C([H])([H])C1([H])[H]


 32 35  0  0  0  0  0  0  0  0999 V2000
   10.1619   46.0446  131.0736 C   0  0  0  0  0  0  0  0  0  0  0  0
   10.4309   45.2566  132.1983 C   0  0  0  0  0  0  0  0  0  0  0  0
   10.2842   45.6946  133.4753 C   0  0  0  0  0  0  0  0  0  0  0  0
    9.8362   47.0172  133.7418 C   0  0  0  0  0  0  0  0  0  0  0  0
    9.5750   47.7796  132.6203 C   0  0  0  0  0  0  0  0  0  0  0  0
    9.7340   47.3061  131.3200 C   0  0  0  0  0  0  0  0  0  0  0  0
    9.4624   48.1380  130.3101 F   0  0  0  0  0  0  0  0  0  0  0  0
   10.9117   46.1378  128.8605 O   0  0  0  0  0  0  0  0  0  0  0  0
   10.3557   45.4287  129.7790 C   0  0  0  0  0  0  0  0  0  0  0  0
   10.0082   44.1319  129.3955 N   0  0  0  0  0  0  0  0  0  0  0  0
    9.5724   43.4657  130.0383 H   0  0  0  0  0  0  0  0  0  0  0  0
   10.3126   43.5631  127.7982 S   0  0  0  0  0  0  0  0  0  0  0  0
    9.7332   42.1807  127.6170 O   0  0  0  0  0  0  0  0  0  0  0  0
   11.7812   43.4749  127.5138 O   0  0  0  0  0  0  0  0  0  0  0  0
    9.5358   44.6547  126.5963 C   0  0  0  0  0  0  0  0  0  0  0  0
    9.7195   46.1307  126.7370 C   0  0  0  0  0  0  0  0  0  0  0  0
   10.5509   45.4059  125.7535 C   0  0  0  0  0  0  0  0  0  0  0  0
   10.5940   44.8404  134.6671 C   0  0  0  0  0  0  0  0  0  0  0  0
   10.6011   43.3758  134.5912 C   0  0  0  0  0  0  0  0  0  0  0  0
   11.9124   44.0675  134.5473 C   0  0  0  0  0  0  0  0  0  0  0  0
    9.7066   47.3879  135.0061 O   0  0  0  0  0  0  0  0  0  0  0  0
   10.3443   47.7965  136.0725 C   0  0  0  0  0  0  0  0  0  0  0  0
   11.8037   48.0262  136.1517 C   0  0  0  0  0  0  0  0  0  0  0  0
   12.5771   47.5513  134.9362 C   0  0  0  0  0  0  0  0  0  0  0  0
   13.9302   47.1325  135.4383 C   0  0  0  0  0  0  0  0  0  0  0  0
   14.6189   48.2187  136.1646 C   0  0  0  0  0  0  0  0  0  0  0  0
   13.8480   49.3594  136.6870 C   0  0  0  0  0  0  0  0  0  0  0  0
   12.3524   49.3210  136.5619 C   0  0  0  0  0  0  0  0  0  0  0  0
   15.5446   47.6424  137.2663 C   0  0  0  0  0  0  0  0  0  0  0  0
   15.8500   46.3357  137.0438 F   0  0  0  0  0  0  0  0  0  0  0  0
   16.7383   48.3513  137.2740 F   0  0  0  0  0  0  0  0  0  0  0  0
   14.9773   47.8240  138.5019 F   0  0  0  0  0  0  0  0  0  0  0  0
  8  9  2  0  0  0
  9 10  1  0  0  0
 10 12  1  0  0  0
 12 13  2  0  0  0
 12 14  2  0  0  0
 12 15  1  0  0  0
 15 16  1  0  0  0
 16 17  1  0  0  0
  9  1  1  0  0  0
  1  2  2  0  0  0
  2  3  1  0  0  0
  3 18  1  0  0  0
 18 19  1  0  0  0
 19 20  1  0  0  0
  3  4  2  0  0  0
  4 21  1  0  0  0
 21 22  1  0  0  0
 22 23  1  0  0  0
 23 24  1  0  0  0
 24 25  1  0  0  0
 25 26  1  0  0  0
 26 29  1  0  0  0
 29 30  1  0  0  0
 29 31  1  0  0  0
 29 32  1  0  0  0
 26 27  1  0  0  0
 27 28  1  0  0  0
  4  5  1  0  0  0
  5  6  2  0  0  0
  6  7  1  0  0  0
 17 15  1  0  0  0
  6  1  1  0  0  0
 20 18  1  0  0  0
 28 23  1  0  0  0
 10 11  1  0  0  0
M  END
> <minimizedAffinity>
24.34856

> <CNNscore>
0.5226362348

> <CNNaffinity>
7.1088142395

> <CNN_VS>
3.7153239250

> <CNNaffinity_variance>
1.4855422974

$$$$
[H]c1c(F)c(C(=O)N([H])S(=O)(=O)C2([H])C([H])([H])C2([H])[H])c([H])c(C2([H])C([H])([H])C2([H])[H])c1OC([H])([H])C1([H])C([H])([H])C([H])([H])C([H])(C(F)(F)F)C([H])([H])C1([H])[H]


 32 35  0  0  0  0  0  0  0  0999 V2000
    8.5122   46.2638  131.6279 C   0  0  0  0  0  0  0  0  0  0  0  0
    9.3929   45.4032  130.9631 C   0  0  0  0  0  0  0  0  0  0  0  0
   10.3557   44.6808  131.5919 C   0  0  0  0  0  0  0  0  0  0  0  0
   10.5224   44.7656  133.0011 C   0  0  0  0  0  0  0  0  0  0  0  0
    9.6443   45.6187  133.6401 C   0  0  0  0  0  0  0  0  0  0  0  0
    8.6649   46.3492  132.9712 C   0  0  0  0  0  0  0  0  0  0  0  0
    7.8781   47.1536  133.6921 F   0  0  0  0  0  0  0  0  0  0  0  0
    7.7714   48.1819  130.5140 O   0  0  0  0  0  0  0  0  0  0  0  0
    7.5327   46.9546  130.8178 C   0  0  0  0  0  0  0  0  0  0  0  0
    6.3360   46.4427  130.3125 N   0  0  0  0  0  0  0  0  0  0  0  0
    6.0392   45.4766  130.4725 H   0  0  0  0  0  0  0  0  0  0  0  0
    5.2806   47.4173  129.3618 S   0  0  0  0  0  0  0  0  0  0  0  0
    3.8714   46.8795  129.4288 O   0  0  0  0  0  0  0  0  0  0  0  0
    5.6885   47.4287  127.9200 O   0  0  0  0  0  0  0  0  0  0  0  0
    5.2639   49.1035  129.9913 C   0  0  0  0  0  0  0  0  0  0  0  0
    6.0536   50.1496  129.2744 C   0  0  0  0  0  0  0  0  0  0  0  0
    4.5978   50.0742  129.0326 C   0  0  0  0  0  0  0  0  0  0  0  0
   11.3008   43.7772  130.8596 C   0  0  0  0  0  0  0  0  0  0  0  0
   11.4761   43.8521  129.4055 C   0  0  0  0  0  0  0  0  0  0  0  0
   12.5049   44.5050  130.2511 C   0  0  0  0  0  0  0  0  0  0  0  0
   11.4738   44.0347  133.5607 O   0  0  0  0  0  0  0  0  0  0  0  0
   12.5850   44.0699  134.2497 C   0  0  0  0  0  0  0  0  0  0  0  0
   13.2954   45.3042  134.6506 C   0  0  0  0  0  0  0  0  0  0  0  0
   14.5949   45.0625  135.3950 C   0  0  0  0  0  0  0  0  0  0  0  0
   14.7544   46.2167  136.3442 C   0  0  0  0  0  0  0  0  0  0  0  0
   14.7279   47.5203  135.6503 C   0  0  0  0  0  0  0  0  0  0  0  0
   14.1582   47.6222  134.2962 C   0  0  0  0  0  0  0  0  0  0  0  0
   13.5105   46.4030  133.7061 C   0  0  0  0  0  0  0  0  0  0  0  0
   14.1370   48.6200  136.5690 C   0  0  0  0  0  0  0  0  0  0  0  0
   14.7397   48.6441  137.7882 F   0  0  0  0  0  0  0  0  0  0  0  0
   14.3408   49.8614  135.9816 F   0  0  0  0  0  0  0  0  0  0  0  0
   12.7791   48.4619  136.6811 F   0  0  0  0  0  0  0  0  0  0  0  0
  8  9  2  0  0  0
  9 10  1  0  0  0
 10 12  1  0  0  0
 12 13  2  0  0  0
 12 14  2  0  0  0
 12 15  1  0  0  0
 15 16  1  0  0  0
 16 17  1  0  0  0
  9  1  1  0  0  0
  1  2  2  0  0  0
  2  3  1  0  0  0
  3 18  1  0  0  0
 18 19  1  0  0  0
 19 20  1  0  0  0
  3  4  2  0  0  0
  4 21  1  0  0  0
 21 22  1  0  0  0
 22 23  1  0  0  0
 23 24  1  0  0  0
 24 25  1  0  0  0
 25 26  1  0  0  0
 26 29  1  0  0  0
 29 30  1  0  0  0
 29 31  1  0  0  0
 29 32  1  0  0  0
 26 27  1  0  0  0
 27 28  1  0  0  0
  4  5  1  0  0  0
  5  6  2  0  0  0
  6  7  1  0  0  0
 17 15  1  0  0  0
  6  1  1  0  0  0
 20 18  1  0  0  0
 28 23  1  0  0  0
 10 11  1  0  0  0
M  END
> <minimizedAffinity>
18.40915

> <CNNscore>
0.4662013352

> <CNNaffinity>
7.2049050331

> <CNN_VS>
3.3589363098

> <CNNaffinity_variance>
1.4023996592

$$$$
[H]c1c(F)c(C(=O)N([H])S(=O)(=O)C2([H])C([H])([H])C2([H])[H])c([H])c(C2([H])C([H])([H])C2([H])[H])c1OC([H])([H])C1([H])C([H])([H])C([H])([H])C([H])(C(F)(F)F)C([H])([H])C1([H])[H]


 32 35  0  0  0  0  0  0  0  0999 V2000
    9.3262   48.6457  130.7552 C   0  0  0  0  0  0  0  0  0  0  0  0
    9.6660   47.4174  130.1772 C   0  0  0  0  0  0  0  0  0  0  0  0
   10.6761   46.6290  130.6269 C   0  0  0  0  0  0  0  0  0  0  0  0
   11.4636   47.0246  131.7424 C   0  0  0  0  0  0  0  0  0  0  0  0
   11.1133   48.2384  132.3001 C   0  0  0  0  0  0  0  0  0  0  0  0
   10.0721   49.0287  131.8191 C   0  0  0  0  0  0  0  0  0  0  0  0
    9.8308   50.1918  132.4313 F   0  0  0  0  0  0  0  0  0  0  0  0
    8.3061   49.6842  128.9250 O   0  0  0  0  0  0  0  0  0  0  0  0
    8.2155   49.3627  130.1676 C   0  0  0  0  0  0  0  0  0  0  0  0
    7.0317   49.7556  130.7950 N   0  0  0  0  0  0  0  0  0  0  0  0
    6.8337   49.5475  131.7771 H   0  0  0  0  0  0  0  0  0  0  0  0
    5.8093   50.6123  129.9353 S   0  0  0  0  0  0  0  0  0  0  0  0
    6.4337   51.6604  129.0456 O   0  0  0  0  0  0  0  0  0  0  0  0
    4.8695   51.3162  130.8663 O   0  0  0  0  0  0  0  0  0  0  0  0
    4.8790   49.4784  128.8920 C   0  0  0  0  0  0  0  0  0  0  0  0
    5.5938   48.3304  128.2570 C   0  0  0  0  0  0  0  0  0  0  0  0
    4.8018   48.0804  129.4792 C   0  0  0  0  0  0  0  0  0  0  0  0
   11.0357   45.3243  129.9832 C   0  0  0  0  0  0  0  0  0  0  0  0
   10.0415   44.5047  129.2827 C   0  0  0  0  0  0  0  0  0  0  0  0
   10.9408   45.3433  128.4532 C   0  0  0  0  0  0  0  0  0  0  0  0
   12.4316   46.2137  132.1402 O   0  0  0  0  0  0  0  0  0  0  0  0
   12.7022   45.0462  132.6640 C   0  0  0  0  0  0  0  0  0  0  0  0
   11.6960   44.0179  133.0092 C   0  0  0  0  0  0  0  0  0  0  0  0
   11.8396   42.7202  132.2368 C   0  0  0  0  0  0  0  0  0  0  0  0
   10.4511   42.1642  132.0908 C   0  0  0  0  0  0  0  0  0  0  0  0
    9.7809   41.9816  133.3943 C   0  0  0  0  0  0  0  0  0  0  0  0
   10.2766   42.6949  134.5833 C   0  0  0  0  0  0  0  0  0  0  0  0
   11.3900   43.6857  134.4027 C   0  0  0  0  0  0  0  0  0  0  0  0
    8.2480   42.1646  133.2545 C   0  0  0  0  0  0  0  0  0  0  0  0
    7.5573   41.3173  134.0639 F   0  0  0  0  0  0  0  0  0  0  0  0
    7.9089   43.4592  133.6241 F   0  0  0  0  0  0  0  0  0  0  0  0
    7.8738   42.0250  131.9423 F   0  0  0  0  0  0  0  0  0  0  0  0
  8  9  2  0  0  0
  9 10  1  0  0  0
 10 12  1  0  0  0
 12 13  2  0  0  0
 12 14  2  0  0  0
 12 15  1  0  0  0
 15 16  1  0  0  0
 16 17  1  0  0  0
  9  1  1  0  0  0
  1  2  2  0  0  0
  2  3  1  0  0  0
  3 18  1  0  0  0
 18 19  1  0  0  0
 19 20  1  0  0  0
  3  4  2  0  0  0
  4 21  1  0  0  0
 21 22  1  0  0  0
 22 23  1  0  0  0
 23 24  1  0  0  0
 24 25  1  0  0  0
 25 26  1  0  0  0
 26 29  1  0  0  0
 29 30  1  0  0  0
 29 31  1  0  0  0
 29 32  1  0  0  0
 26 27  1  0  0  0
 27 28  1  0  0  0
  4  5  1  0  0  0
  5  6  2  0  0  0
  6  7  1  0  0  0
 17 15  1  0  0  0
  6  1  1  0  0  0
 20 18  1  0  0  0
 28 23  1  0  0  0
 10 11  1  0  0  0
M  END
> <minimizedAffinity>
1.23255

> <CNNscore>
0.4488238394

> <CNNaffinity>
7.7484612465

> <CNN_VS>
3.4776940346

> <CNNaffinity_variance>
1.1392980814

$$$$
[H]c1c(F)c(C(=O)N([H])S(=O)(=O)C2([H])C([H])([H])C2([H])[H])c([H])c(C2([H])C([H])([H])C2([H])[H])c1OC([H])([H])C1([H])C([H])([H])C([H])([H])C([H])(C(F)(F)F)C([H])([H])C1([H])[H]


 32 35  0  0  0  0  0  0  0  0999 V2000
    7.5073   50.7504  129.6511 C   0  0  0  0  0  0  0  0  0  0  0  0
    6.9213   49.5452  129.2482 C   0  0  0  0  0  0  0  0  0  0  0  0
    7.0376   48.3839  129.9426 C   0  0  0  0  0  0  0  0  0  0  0  0
    7.7841   48.3330  131.1513 C   0  0  0  0  0  0  0  0  0  0  0  0
    8.3541   49.5314  131.5336 C   0  0  0  0  0  0  0  0  0  0  0  0
    8.2197   50.7095  130.8026 C   0  0  0  0  0  0  0  0  0  0  0  0
    8.8260   51.8078  131.2627 F   0  0  0  0  0  0  0  0  0  0  0  0
    6.7078   52.9261  129.3413 O   0  0  0  0  0  0  0  0  0  0  0  0
    7.2805   51.9044  128.8086 C   0  0  0  0  0  0  0  0  0  0  0  0
    7.6152   52.0503  127.4609 N   0  0  0  0  0  0  0  0  0  0  0  0
    8.0864   51.3150  126.9279 H   0  0  0  0  0  0  0  0  0  0  0  0
    7.2639   53.5051  126.6079 S   0  0  0  0  0  0  0  0  0  0  0  0
    8.0247   54.6611  127.2117 O   0  0  0  0  0  0  0  0  0  0  0  0
    5.8059   53.8449  126.6725 O   0  0  0  0  0  0  0  0  0  0  0  0
    7.7648   53.3470  124.8864 C   0  0  0  0  0  0  0  0  0  0  0  0
    6.9778   54.0621  123.8369 C   0  0  0  0  0  0  0  0  0  0  0  0
    8.2470   54.6615  124.2992 C   0  0  0  0  0  0  0  0  0  0  0  0
    6.4165   47.0990  129.4853 C   0  0  0  0  0  0  0  0  0  0  0  0
    4.9988   46.7990  129.7111 C   0  0  0  0  0  0  0  0  0  0  0  0
    5.3887   47.2751  128.3615 C   0  0  0  0  0  0  0  0  0  0  0  0
    7.8589   47.1750  131.7887 O   0  0  0  0  0  0  0  0  0  0  0  0
    8.6477   46.1876  132.1255 C   0  0  0  0  0  0  0  0  0  0  0  0
    9.1035   45.1169  131.2118 C   0  0  0  0  0  0  0  0  0  0  0  0
   10.5676   44.7495  131.3623 C   0  0  0  0  0  0  0  0  0  0  0  0
   11.0332   44.3185  130.0000 C   0  0  0  0  0  0  0  0  0  0  0  0
   10.2202   43.2127  129.4542 C   0  0  0  0  0  0  0  0  0  0  0  0
    8.8836   42.9386  130.0080 C   0  0  0  0  0  0  0  0  0  0  0  0
    8.3392   43.8786  131.0444 C   0  0  0  0  0  0  0  0  0  0  0  0
   10.1591   43.2871  127.9072 C   0  0  0  0  0  0  0  0  0  0  0  0
   10.5736   42.1302  127.3241 F   0  0  0  0  0  0  0  0  0  0  0  0
    8.8452   43.5017  127.5136 F   0  0  0  0  0  0  0  0  0  0  0  0
   10.8797   44.3642  127.4577 F   0  0  0  0  0  0  0  0  0  0  0  0
  8  9  2  0  0  0
  9 10  1  0  0  0
 10 12  1  0  0  0
 12 13  2  0  0  0
 12 14  2  0  0  0
 12 15  1  0  0  0
 15 16  1  0  0  0
 16 17  1  0  0  0
  9  1  1  0  0  0
  1  2  2  0  0  0
  2  3  1  0  0  0
  3 18  1  0  0  0
 18 19  1  0  0  0
 19 20  1  0  0  0
  3  4  2  0  0  0
  4 21  1  0  0  0
 21 22  1  0  0  0
 22 23  1  0  0  0
 23 24  1  0  0  0
 24 25  1  0  0  0
 25 26  1  0  0  0
 26 29  1  0  0  0
 29 30  1  0  0  0
 29 31  1  0  0  0
 29 32  1  0  0  0
 26 27  1  0  0  0
 27 28  1  0  0  0
  4  5  1  0  0  0
  5  6  2  0  0  0
  6  7  1  0  0  0
 17 15  1  0  0  0
  6  1  1  0  0  0
 20 18  1  0  0  0
 28 23  1  0  0  0
 10 11  1  0  0  0
M  END
> <minimizedAffinity>
0.13391

> <CNNscore>
0.4362681806

> <CNNaffinity>
7.1292023659

> <CNN_VS>
3.1102440357

> <CNNaffinity_variance>
0.3171442449

$$$$
[H]c1c(F)c(C(=O)N([H])S(=O)(=O)C2([H])C([H])([H])C2([H])[H])c([H])c(C2([H])C([H])([H])C2([H])[H])c1OC([H])([H])C1([H])C([H])([H])C([H])([H])C([H])(C(F)(F)F)C([H])([H])C1([H])[H]


 32 35  0  0  0  0  0  0  0  0999 V2000
    9.4963   44.7540  131.8519 C   0  0  0  0  0  0  0  0  0  0  0  0
    9.6709   44.6500  130.4673 C   0  0  0  0  0  0  0  0  0  0  0  0
    8.7706   45.1081  129.5597 C   0  0  0  0  0  0  0  0  0  0  0  0
    7.5677   45.7356  129.9841 C   0  0  0  0  0  0  0  0  0  0  0  0
    7.4130   45.8301  131.3532 C   0  0  0  0  0  0  0  0  0  0  0  0
    8.3523   45.3515  132.2636 C   0  0  0  0  0  0  0  0  0  0  0  0
    8.0907   45.4869  133.5670 F   0  0  0  0  0  0  0  0  0  0  0  0
   10.6172   42.9513  132.8329 O   0  0  0  0  0  0  0  0  0  0  0  0
   10.5532   44.2283  132.6882 C   0  0  0  0  0  0  0  0  0  0  0  0
   11.5342   44.9503  133.3705 N   0  0  0  0  0  0  0  0  0  0  0  0
   11.5988   45.9704  133.3248 H   0  0  0  0  0  0  0  0  0  0  0  0
   12.7215   44.1531  134.3307 S   0  0  0  0  0  0  0  0  0  0  0  0
   13.8276   45.1133  134.6970 O   0  0  0  0  0  0  0  0  0  0  0  0
   13.3475   43.0069  133.5959 O   0  0  0  0  0  0  0  0  0  0  0  0
   11.9789   43.5509  135.8556 C   0  0  0  0  0  0  0  0  0  0  0  0
   10.8024   44.2771  136.4216 C   0  0  0  0  0  0  0  0  0  0  0  0
   10.5642   43.0397  135.6498 C   0  0  0  0  0  0  0  0  0  0  0  0
    8.9682   44.9718  128.0805 C   0  0  0  0  0  0  0  0  0  0  0  0
   10.2816   44.6800  127.4967 C   0  0  0  0  0  0  0  0  0  0  0  0
    9.3299   43.5507  127.6337 C   0  0  0  0  0  0  0  0  0  0  0  0
    6.7292   46.1674  129.0550 O   0  0  0  0  0  0  0  0  0  0  0  0
    6.0100   47.1821  128.6505 C   0  0  0  0  0  0  0  0  0  0  0  0
    6.3370   48.6042  128.8949 C   0  0  0  0  0  0  0  0  0  0  0  0
    5.3301   49.3359  129.7620 C   0  0  0  0  0  0  0  0  0  0  0  0
    5.3349   50.7642  129.2946 C   0  0  0  0  0  0  0  0  0  0  0  0
    6.6820   51.3675  129.3509 C   0  0  0  0  0  0  0  0  0  0  0  0
    7.8731   50.5042  129.4178 C   0  0  0  0  0  0  0  0  0  0  0  0
    7.6795   49.0194  129.3085 C   0  0  0  0  0  0  0  0  0  0  0  0
    6.8518   52.4373  128.2421 C   0  0  0  0  0  0  0  0  0  0  0  0
    5.6658   52.7618  127.6605 F   0  0  0  0  0  0  0  0  0  0  0  0
    7.3686   53.5968  128.8042 F   0  0  0  0  0  0  0  0  0  0  0  0
    7.7689   52.0137  127.3142 F   0  0  0  0  0  0  0  0  0  0  0  0
  8  9  2  0  0  0
  9 10  1  0  0  0
 10 12  1  0  0  0
 12 13  2  0  0  0
 12 14  2  0  0  0
 12 15  1  0  0  0
 15 16  1  0  0  0
 16 17  1  0  0  0
  9  1  1  0  0  0
  1  2  2  0  0  0
  2  3  1  0  0  0
  3 18  1  0  0  0
 18 19  1  0  0  0
 19 20  1  0  0  0
  3  4  2  0  0  0
  4 21  1  0  0  0
 21 22  1  0  0  0
 22 23  1  0  0  0
 23 24  1  0  0  0
 24 25  1  0  0  0
 25 26  1  0  0  0
 26 29  1  0  0  0
 29 30  1  0  0  0
 29 31  1  0  0  0
 29 32  1  0  0  0
 26 27  1  0  0  0
 27 28  1  0  0  0
  4  5  1  0  0  0
  5  6  2  0  0  0
  6  7  1  0  0  0
 17 15  1  0  0  0
  6  1  1  0  0  0
 20 18  1  0  0  0
 28 23  1  0  0  0
 10 11  1  0  0  0
M  END
> <minimizedAffinity>
8.91476

> <CNNscore>
0.4321365952

> <CNNaffinity>
7.4687185287

> <CNN_VS>
3.2275066376

> <CNNaffinity_variance>
1.7919223309

$$$$
[H]OC(=O)C1=C([H])[C@@]([H])(O[C@@]([H])(C([H])([H])C([H])([H])[H])C([H])([H])C([H])([H])C([H])([H])C([H])([H])C([H])([H])C([H])([H])C([H])([H])[H])[C@]([H])(N([H])C(=O)C([H])([H])[H])[C@@]([H])(N([H])[H])C1([H])[H]


 29 29  0  0  0  0  0  0  0  0999 V2000
    8.5837   47.1913  130.7811 C   0  0  0  0  0  0  0  0  0  0  0  0
    7.8870   48.5294  130.9361 C   0  0  0  0  0  0  0  0  0  0  0  0
    7.4719   49.1423  129.8270 C   0  0  0  0  0  0  0  0  0  0  0  0
    7.7639   48.3563  128.5690 C   0  0  0  0  0  0  0  0  0  0  0  0
    7.0636   47.0382  128.7773 C   0  0  0  0  0  0  0  0  0  0  0  0
    5.6189   47.2457  128.8040 N   0  0  0  0  0  0  0  0  0  0  0  0
    7.5498   46.3757  130.0368 C   0  0  0  0  0  0  0  0  0  0  0  0
    5.3684   48.2024  128.4706 H   0  0  0  0  0  0  0  0  0  0  0  0
    5.1630   46.5371  128.1537 H   0  0  0  0  0  0  0  0  0  0  0  0
    8.0017   45.0617  129.6407 N   0  0  0  0  0  0  0  0  0  0  0  0
    9.2583   44.8314  129.0415 C   0  0  0  0  0  0  0  0  0  0  0  0
    9.7295   43.4877  128.6322 C   0  0  0  0  0  0  0  0  0  0  0  0
   10.0184   45.8103  128.8431 O   0  0  0  0  0  0  0  0  0  0  0  0
    7.3650   44.2560  129.8089 H   0  0  0  0  0  0  0  0  0  0  0  0
    6.7993   50.4038  129.7559 C   0  0  0  0  0  0  0  0  0  0  0  0
    5.9299   50.7759  130.5931 O   0  0  0  0  0  0  0  0  0  0  0  0
    7.1176   51.2719  128.7083 O   0  0  0  0  0  0  0  0  0  0  0  0
    7.1429   52.2679  128.9464 H   0  0  0  0  0  0  0  0  0  0  0  0
    8.8808   46.7262  132.0160 O   0  0  0  0  0  0  0  0  0  0  0  0
   10.1426   47.0208  132.5426 C   0  0  0  0  0  0  0  0  0  0  0  0
   10.1915   47.2828  133.9953 C   0  0  0  0  0  0  0  0  0  0  0  0
    9.1480   46.4459  134.7377 C   0  0  0  0  0  0  0  0  0  0  0  0
   11.1951   46.1201  132.0650 C   0  0  0  0  0  0  0  0  0  0  0  0
   12.2344   45.5208  132.9026 C   0  0  0  0  0  0  0  0  0  0  0  0
   12.2436   44.0573  133.0237 C   0  0  0  0  0  0  0  0  0  0  0  0
   11.8985   43.4205  131.6319 C   0  0  0  0  0  0  0  0  0  0  0  0
   10.8970   42.3308  131.9572 C   0  0  0  0  0  0  0  0  0  0  0  0
    8.6803   43.1479  132.5409 C   0  0  0  0  0  0  0  0  0  0  0  0
    9.9996   42.7086  133.0977 C   0  0  0  0  0  0  0  0  0  0  0  0
 28 29  1  0  0  0
 29 27  1  0  0  0
 27 26  1  0  0  0
 26 25  1  0  0  0
 25 24  1  0  0  0
 24 23  1  0  0  0
 23 20  1  0  0  0
 20 21  1  0  0  0
 21 22  1  0  0  0
 20 19  1  0  0  0
 19  1  1  0  0  0
  1  2  1  0  0  0
  2  3  2  0  0  0
  3 15  1  0  0  0
 15 16  2  0  0  0
 15 17  1  0  0  0
  3  4  1  0  0  0
  4  5  1  0  0  0
  5  6  1  0  0  0
  5  7  1  0  0  0
  7 10  1  0  0  0
 10 11  1  0  0  0
 11 12  1  0  0  0
 11 13  2  0  0  0
  7  1  1  0  0  0
 17 18  1  0  0  0
  6  8  1  0  0  0
  6  9  1  0  0  0
 10 14  1  0  0  0
M  END
> <minimizedAffinity>
-8.30787

> <CNNscore>
0.6317846775

> <CNNaffinity>
7.2750635147

> <CNN_VS>
4.5962734222

> <CNNaffinity_variance>
0.1007065326

$$$$
[H]OC(=O)C1=C([H])[C@@]([H])(O[C@@]([H])(C([H])([H])C([H])([H])[H])C([H])([H])C([H])([H])C([H])([H])C([H])([H])C([H])([H])C([H])([H])C([H])([H])[H])[C@]([H])(N([H])C(=O)C([H])([H])[H])[C@@]([H])(N([H])[H])C1([H])[H]


 29 29  0  0  0  0  0  0  0  0999 V2000
    8.3143   47.3929  130.8730 C   0  0  0  0  0  0  0  0  0  0  0  0
    7.6993   48.7782  130.9233 C   0  0  0  0  0  0  0  0  0  0  0  0
    7.4428   49.3832  129.7631 C   0  0  0  0  0  0  0  0  0  0  0  0
    7.8068   48.5417  128.5610 C   0  0  0  0  0  0  0  0  0  0  0  0
    6.9998   47.2797  128.7263 C   0  0  0  0  0  0  0  0  0  0  0  0
    5.5777   47.5830  128.5978 N   0  0  0  0  0  0  0  0  0  0  0  0
    7.3081   46.6251  130.0446 C   0  0  0  0  0  0  0  0  0  0  0  0
    5.4290   48.5436  128.2178 H   0  0  0  0  0  0  0  0  0  0  0  0
    5.1427   46.8867  127.9204 H   0  0  0  0  0  0  0  0  0  0  0  0
    7.7064   45.2727  129.7286 N   0  0  0  0  0  0  0  0  0  0  0  0
    8.9587   44.9551  129.1611 C   0  0  0  0  0  0  0  0  0  0  0  0
    9.3751   43.5713  128.8338 C   0  0  0  0  0  0  0  0  0  0  0  0
    9.7635   45.8875  128.9197 O   0  0  0  0  0  0  0  0  0  0  0  0
    7.0328   44.5060  129.9319 H   0  0  0  0  0  0  0  0  0  0  0  0
    6.8695   50.6837  129.5929 C   0  0  0  0  0  0  0  0  0  0  0  0
    6.1671   51.2541  130.4741 O   0  0  0  0  0  0  0  0  0  0  0  0
    7.0959   51.3611  128.3920 O   0  0  0  0  0  0  0  0  0  0  0  0
    7.2356   52.3729  128.4701 H   0  0  0  0  0  0  0  0  0  0  0  0
    8.4510   46.9469  132.1427 O   0  0  0  0  0  0  0  0  0  0  0  0
    9.6309   46.2757  132.4794 C   0  0  0  0  0  0  0  0  0  0  0  0
   10.7730   47.1296  132.8640 C   0  0  0  0  0  0  0  0  0  0  0  0
   10.2914   48.4196  133.5308 C   0  0  0  0  0  0  0  0  0  0  0  0
    9.4144   45.1344  133.3726 C   0  0  0  0  0  0  0  0  0  0  0  0
    8.5140   44.0131  133.1027 C   0  0  0  0  0  0  0  0  0  0  0  0
    9.0754   42.8493  132.4048 C   0  0  0  0  0  0  0  0  0  0  0  0
   10.5464   42.6113  132.8958 C   0  0  0  0  0  0  0  0  0  0  0  0
   11.3846   42.7348  131.6393 C   0  0  0  0  0  0  0  0  0  0  0  0
   12.5774   44.4036  130.3301 C   0  0  0  0  0  0  0  0  0  0  0  0
   12.3525   43.8777  131.7144 C   0  0  0  0  0  0  0  0  0  0  0  0
 28 29  1  0  0  0
 29 27  1  0  0  0
 27 26  1  0  0  0
 26 25  1  0  0  0
 25 24  1  0  0  0
 24 23  1  0  0  0
 23 20  1  0  0  0
 20 21  1  0  0  0
 21 22  1  0  0  0
 20 19  1  0  0  0
 19  1  1  0  0  0
  1  2  1  0  0  0
  2  3  2  0  0  0
  3 15  1  0  0  0
 15 16  2  0  0  0
 15 17  1  0  0  0
  3  4  1  0  0  0
  4  5  1  0  0  0
  5  6  1  0  0  0
  5  7  1  0  0  0
  7 10  1  0  0  0
 10 11  1  0  0  0
 11 12  1  0  0  0
 11 13  2  0  0  0
  7  1  1  0  0  0
 17 18  1  0  0  0
  6  8  1  0  0  0
  6  9  1  0  0  0
 10 14  1  0  0  0
M  END
> <minimizedAffinity>
-7.47998

> <CNNscore>
0.4730497599

> <CNNaffinity>
7.1383924484

> <CNN_VS>
3.3768148422

> <CNNaffinity_variance>
0.1082555279

$$$$
[H]OC(=O)C1=C([H])[C@@]([H])(O[C@@]([H])(C([H])([H])C([H])([H])[H])C([H])([H])C([H])([H])C([H])([H])C([H])([H])C([H])([H])C([H])([H])C([H])([H])[H])[C@]([H])(N([H])C(=O)C([H])([H])[H])[C@@]([H])(N([H])[H])C1([H])[H]


 29 29  0  0  0  0  0  0  0  0999 V2000
    9.6276   48.1878  130.3069 C   0  0  0  0  0  0  0  0  0  0  0  0
    8.4589   49.0795  130.6799 C   0  0  0  0  0  0  0  0  0  0  0  0
    7.5068   49.2656  129.7652 C   0  0  0  0  0  0  0  0  0  0  0  0
    7.7625   48.5121  128.4797 C   0  0  0  0  0  0  0  0  0  0  0  0
    7.8603   47.0688  128.9020 C   0  0  0  0  0  0  0  0  0  0  0  0
    6.5650   46.6099  129.3945 N   0  0  0  0  0  0  0  0  0  0  0  0
    8.9381   46.8936  129.9361 C   0  0  0  0  0  0  0  0  0  0  0  0
    5.8092   47.2906  129.1609 H   0  0  0  0  0  0  0  0  0  0  0  0
    6.3338   45.6826  128.9260 H   0  0  0  0  0  0  0  0  0  0  0  0
    9.8224   45.8771  129.4141 N   0  0  0  0  0  0  0  0  0  0  0  0
    9.3990   44.5589  129.1417 C   0  0  0  0  0  0  0  0  0  0  0  0
   10.2989   43.5105  128.6066 C   0  0  0  0  0  0  0  0  0  0  0  0
    8.2015   44.2542  129.3619 O   0  0  0  0  0  0  0  0  0  0  0  0
   10.8134   46.1386  129.2347 H   0  0  0  0  0  0  0  0  0  0  0  0
    6.3299   50.0661  129.9164 C   0  0  0  0  0  0  0  0  0  0  0  0
    6.3106   51.1613  130.5454 O   0  0  0  0  0  0  0  0  0  0  0  0
    5.1386   49.6173  129.3404 O   0  0  0  0  0  0  0  0  0  0  0  0
    4.5400   50.3414  128.9322 H   0  0  0  0  0  0  0  0  0  0  0  0
   10.4474   48.0983  131.3790 O   0  0  0  0  0  0  0  0  0  0  0  0
   10.4201   46.9185  132.1298 C   0  0  0  0  0  0  0  0  0  0  0  0
   11.6415   46.0898  132.0759 C   0  0  0  0  0  0  0  0  0  0  0  0
   12.1203   45.7289  133.4834 C   0  0  0  0  0  0  0  0  0  0  0  0
    9.8861   47.1036  133.4817 C   0  0  0  0  0  0  0  0  0  0  0  0
    8.6797   46.4623  134.0055 C   0  0  0  0  0  0  0  0  0  0  0  0
    8.6561   44.9943  134.0398 C   0  0  0  0  0  0  0  0  0  0  0  0
    8.1298   44.4527  132.6646 C   0  0  0  0  0  0  0  0  0  0  0  0
    8.6649   43.0368  132.5908 C   0  0  0  0  0  0  0  0  0  0  0  0
   10.9428   42.3779  132.0443 C   0  0  0  0  0  0  0  0  0  0  0  0
   10.0630   42.9315  133.1227 C   0  0  0  0  0  0  0  0  0  0  0  0
 28 29  1  0  0  0
 29 27  1  0  0  0
 27 26  1  0  0  0
 26 25  1  0  0  0
 25 24  1  0  0  0
 24 23  1  0  0  0
 23 20  1  0  0  0
 20 21  1  0  0  0
 21 22  1  0  0  0
 20 19  1  0  0  0
 19  1  1  0  0  0
  1  2  1  0  0  0
  2  3  2  0  0  0
  3 15  1  0  0  0
 15 16  2  0  0  0
 15 17  1  0  0  0
  3  4  1  0  0  0
  4  5  1  0  0  0
  5  6  1  0  0  0
  5  7  1  0  0  0
  7 10  1  0  0  0
 10 11  1  0  0  0
 11 12  1  0  0  0
 11 13  2  0  0  0
  7  1  1  0  0  0
 17 18  1  0  0  0
  6  8  1  0  0  0
  6  9  1  0  0  0
 10 14  1  0  0  0
M  END
> <minimizedAffinity>
-7.28797

> <CNNscore>
0.4053055346

> <CNNaffinity>
6.9825911522

> <CNN_VS>
2.8300828934

> <CNNaffinity_variance>
0.2611887455

$$$$
[H]OC(=O)C1=C([H])[C@@]([H])(O[C@@]([H])(C([H])([H])C([H])([H])[H])C([H])([H])C([H])([H])C([H])([H])C([H])([H])C([H])([H])C([H])([H])C([H])([H])[H])[C@]([H])(N([H])C(=O)C([H])([H])[H])[C@@]([H])(N([H])[H])C1([H])[H]


 29 29  0  0  0  0  0  0  0  0999 V2000
    9.2430   46.5615  130.9317 C   0  0  0  0  0  0  0  0  0  0  0  0
    8.8119   47.3172  129.6895 C   0  0  0  0  0  0  0  0  0  0  0  0
    8.0395   48.3912  129.8564 C   0  0  0  0  0  0  0  0  0  0  0  0
    7.7359   48.6850  131.3080 C   0  0  0  0  0  0  0  0  0  0  0  0
    9.0889   48.8623  131.9474 C   0  0  0  0  0  0  0  0  0  0  0  0
    9.7340   50.0583  131.4141 N   0  0  0  0  0  0  0  0  0  0  0  0
    9.9362   47.6377  131.7375 C   0  0  0  0  0  0  0  0  0  0  0  0
    9.0585   50.6433  130.8749 H   0  0  0  0  0  0  0  0  0  0  0  0
   10.0992   50.6379  132.2287 H   0  0  0  0  0  0  0  0  0  0  0  0
   10.3536   47.2176  133.0555 N   0  0  0  0  0  0  0  0  0  0  0  0
    9.5066   46.5181  133.9413 C   0  0  0  0  0  0  0  0  0  0  0  0
    9.9263   46.0838  135.2942 C   0  0  0  0  0  0  0  0  0  0  0  0
    8.3387   46.2479  133.5693 O   0  0  0  0  0  0  0  0  0  0  0  0
   11.3234   47.4460  133.3556 H   0  0  0  0  0  0  0  0  0  0  0  0
    7.5262   49.2361  128.8212 C   0  0  0  0  0  0  0  0  0  0  0  0
    7.5007   50.4964  128.9017 O   0  0  0  0  0  0  0  0  0  0  0  0
    7.0267   48.6409  127.6599 O   0  0  0  0  0  0  0  0  0  0  0  0
    7.2240   49.1355  126.7849 H   0  0  0  0  0  0  0  0  0  0  0  0
   10.0474   45.5442  130.5472 O   0  0  0  0  0  0  0  0  0  0  0  0
    9.6825   44.8111  129.4134 C   0  0  0  0  0  0  0  0  0  0  0  0
   10.7859   44.4248  128.5108 C   0  0  0  0  0  0  0  0  0  0  0  0
   12.1443   44.7213  129.1493 C   0  0  0  0  0  0  0  0  0  0  0  0
    8.7429   43.7246  129.7029 C   0  0  0  0  0  0  0  0  0  0  0  0
    8.9388   42.6907  130.7196 C   0  0  0  0  0  0  0  0  0  0  0  0
    8.5745   43.0259  132.1022 C   0  0  0  0  0  0  0  0  0  0  0  0
    9.8482   42.9224  133.0127 C   0  0  0  0  0  0  0  0  0  0  0  0
   10.9355   42.4283  132.0798 C   0  0  0  0  0  0  0  0  0  0  0  0
   12.1874   43.9154  133.5437 C   0  0  0  0  0  0  0  0  0  0  0  0
   12.2023   43.2187  132.2179 C   0  0  0  0  0  0  0  0  0  0  0  0
 28 29  1  0  0  0
 29 27  1  0  0  0
 27 26  1  0  0  0
 26 25  1  0  0  0
 25 24  1  0  0  0
 24 23  1  0  0  0
 23 20  1  0  0  0
 20 21  1  0  0  0
 21 22  1  0  0  0
 20 19  1  0  0  0
 19  1  1  0  0  0
  1  2  1  0  0  0
  2  3  2  0  0  0
  3 15  1  0  0  0
 15 16  2  0  0  0
 15 17  1  0  0  0
  3  4  1  0  0  0
  4  5  1  0  0  0
  5  6  1  0  0  0
  5  7  1  0  0  0
  7 10  1  0  0  0
 10 11  1  0  0  0
 11 12  1  0  0  0
 11 13  2  0  0  0
  7  1  1  0  0  0
 17 18  1  0  0  0
  6  8  1  0  0  0
  6  9  1  0  0  0
 10 14  1  0  0  0
M  END
> <minimizedAffinity>
-7.15182

> <CNNscore>
0.2998768985

> <CNNaffinity>
7.0446219444

> <CNN_VS>
2.1125192642

> <CNNaffinity_variance>
0.0236583240

$$$$
[H]OC(=O)C1=C([H])[C@@]([H])(O[C@@]([H])(C([H])([H])C([H])([H])[H])C([H])([H])C([H])([H])C([H])([H])C([H])([H])C([H])([H])C([H])([H])C([H])([H])[H])[C@]([H])(N([H])C(=O)C([H])([H])[H])[C@@]([H])(N([H])[H])C1([H])[H]


 29 29  0  0  0  0  0  0  0  0999 V2000
    8.6685   47.4420  131.2466 C   0  0  0  0  0  0  0  0  0  0  0  0
    7.9328   48.7669  131.1894 C   0  0  0  0  0  0  0  0  0  0  0  0
    7.4917   49.1780  130.0001 C   0  0  0  0  0  0  0  0  0  0  0  0
    7.7986   48.2056  128.8839 C   0  0  0  0  0  0  0  0  0  0  0  0
    7.1400   46.9198  129.3128 C   0  0  0  0  0  0  0  0  0  0  0  0
    5.6899   47.0873  129.3223 N   0  0  0  0  0  0  0  0  0  0  0  0
    7.6547   46.4863  130.6577 C   0  0  0  0  0  0  0  0  0  0  0  0
    5.4082   47.9690  128.8401 H   0  0  0  0  0  0  0  0  0  0  0  0
    5.2511   46.2691  128.8017 H   0  0  0  0  0  0  0  0  0  0  0  0
    8.1434   45.1388  130.4761 N   0  0  0  0  0  0  0  0  0  0  0  0
    8.2404   44.2095  131.5335 C   0  0  0  0  0  0  0  0  0  0  0  0
    8.7403   42.8261  131.3563 C   0  0  0  0  0  0  0  0  0  0  0  0
    7.8867   44.5676  132.6834 O   0  0  0  0  0  0  0  0  0  0  0  0
    8.4345   44.8506  129.5196 H   0  0  0  0  0  0  0  0  0  0  0  0
    6.7807   50.3911  129.7320 C   0  0  0  0  0  0  0  0  0  0  0  0
    5.8509   50.8284  130.4665 O   0  0  0  0  0  0  0  0  0  0  0  0
    7.1297   51.1334  128.6008 O   0  0  0  0  0  0  0  0  0  0  0  0
    7.1062   52.1515  128.7106 H   0  0  0  0  0  0  0  0  0  0  0  0
    8.9881   47.1938  132.5374 O   0  0  0  0  0  0  0  0  0  0  0  0
   10.3421   47.1808  132.8877 C   0  0  0  0  0  0  0  0  0  0  0  0
   10.6393   46.9107  134.3091 C   0  0  0  0  0  0  0  0  0  0  0  0
    9.4073   46.3614  135.0308 C   0  0  0  0  0  0  0  0  0  0  0  0
   11.1763   46.4230  131.9512 C   0  0  0  0  0  0  0  0  0  0  0  0
   11.9706   45.2435  132.2960 C   0  0  0  0  0  0  0  0  0  0  0  0
   12.7353   44.6054  131.2168 C   0  0  0  0  0  0  0  0  0  0  0  0
   11.7414   43.9384  130.2024 C   0  0  0  0  0  0  0  0  0  0  0  0
   11.9458   44.7116  128.9152 C   0  0  0  0  0  0  0  0  0  0  0  0
   10.0653   43.4487  128.0261 C   0  0  0  0  0  0  0  0  0  0  0  0
   10.6863   44.8093  128.1072 C   0  0  0  0  0  0  0  0  0  0  0  0
 28 29  1  0  0  0
 29 27  1  0  0  0
 27 26  1  0  0  0
 26 25  1  0  0  0
 25 24  1  0  0  0
 24 23  1  0  0  0
 23 20  1  0  0  0
 20 21  1  0  0  0
 21 22  1  0  0  0
 20 19  1  0  0  0
 19  1  1  0  0  0
  1  2  1  0  0  0
  2  3  2  0  0  0
  3 15  1  0  0  0
 15 16  2  0  0  0
 15 17  1  0  0  0
  3  4  1  0  0  0
  4  5  1  0  0  0
  5  6  1  0  0  0
  5  7  1  0  0  0
  7 10  1  0  0  0
 10 11  1  0  0  0
 11 12  1  0  0  0
 11 13  2  0  0  0
  7  1  1  0  0  0
 17 18  1  0  0  0
  6  8  1  0  0  0
  6  9  1  0  0  0
 10 14  1  0  0  0
M  END
> <minimizedAffinity>
-8.10077

> <CNNscore>
0.2821542621

> <CNNaffinity>
6.7821836472

> <CNN_VS>
1.9136220217

> <CNNaffinity_variance>
0.3310315907

$$$$
[H]OC(=O)C1=C([H])[C@@]([H])(O[C@@]([H])(C([H])([H])C([H])([H])[H])C([H])([H])C([H])([H])C([H])([H])C([H])([H])C([H])([H])C([H])([H])C([H])([H])[H])[C@]([H])(N([H])C(=O)C([H])([H])[H])[C@@]([H])(N([H])[H])C1([H])[H]


 29 29  0  0  0  0  0  0  0  0999 V2000
    8.9547   47.1763  130.3668 C   0  0  0  0  0  0  0  0  0  0  0  0
    8.2725   48.4935  130.6823 C   0  0  0  0  0  0  0  0  0  0  0  0
    7.5833   49.0824  129.7044 C   0  0  0  0  0  0  0  0  0  0  0  0
    7.5897   48.2936  128.4147 C   0  0  0  0  0  0  0  0  0  0  0  0
    7.0033   46.9565  128.7879 C   0  0  0  0  0  0  0  0  0  0  0  0
    5.6014   47.1192  129.1610 N   0  0  0  0  0  0  0  0  0  0  0  0
    7.7993   46.3217  129.8947 C   0  0  0  0  0  0  0  0  0  0  0  0
    5.2471   48.0644  128.8958 H   0  0  0  0  0  0  0  0  0  0  0  0
    5.0258   46.3905  128.6409 H   0  0  0  0  0  0  0  0  0  0  0  0
    8.1852   45.0186  129.4042 N   0  0  0  0  0  0  0  0  0  0  0  0
    9.3951   44.7858  128.7164 C   0  0  0  0  0  0  0  0  0  0  0  0
    9.7986   43.4531  128.2099 C   0  0  0  0  0  0  0  0  0  0  0  0
   10.1717   45.7523  128.5214 O   0  0  0  0  0  0  0  0  0  0  0  0
    7.5352   44.2231  129.5702 H   0  0  0  0  0  0  0  0  0  0  0  0
    6.8727   50.3216  129.7948 C   0  0  0  0  0  0  0  0  0  0  0  0
    6.0507   50.5857  130.7168 O   0  0  0  0  0  0  0  0  0  0  0  0
    7.0964   51.2925  128.8151 O   0  0  0  0  0  0  0  0  0  0  0  0
    7.1099   52.2627  129.1434 H   0  0  0  0  0  0  0  0  0  0  0  0
    9.5549   46.7327  131.4949 O   0  0  0  0  0  0  0  0  0  0  0  0
    8.8171   46.7536  132.6830 C   0  0  0  0  0  0  0  0  0  0  0  0
    7.8527   45.6497  132.8643 C   0  0  0  0  0  0  0  0  0  0  0  0
    8.5386   44.2918  132.7022 C   0  0  0  0  0  0  0  0  0  0  0  0
    9.6335   47.0307  133.8679 C   0  0  0  0  0  0  0  0  0  0  0  0
   10.9776   46.5039  134.1062 C   0  0  0  0  0  0  0  0  0  0  0  0
   11.0862   45.1126  134.5637 C   0  0  0  0  0  0  0  0  0  0  0  0
   12.2906   44.4204  133.8345 C   0  0  0  0  0  0  0  0  0  0  0  0
   12.3214   45.0688  132.4652 C   0  0  0  0  0  0  0  0  0  0  0  0
   12.8668   44.3841  130.1946 C   0  0  0  0  0  0  0  0  0  0  0  0
   11.9857   44.0990  131.3717 C   0  0  0  0  0  0  0  0  0  0  0  0
 28 29  1  0  0  0
 29 27  1  0  0  0
 27 26  1  0  0  0
 26 25  1  0  0  0
 25 24  1  0  0  0
 24 23  1  0  0  0
 23 20  1  0  0  0
 20 21  1  0  0  0
 21 22  1  0  0  0
 20 19  1  0  0  0
 19  1  1  0  0  0
  1  2  1  0  0  0
  2  3  2  0  0  0
  3 15  1  0  0  0
 15 16  2  0  0  0
 15 17  1  0  0  0
  3  4  1  0  0  0
  4  5  1  0  0  0
  5  6  1  0  0  0
  5  7  1  0  0  0
  7 10  1  0  0  0
 10 11  1  0  0  0
 11 12  1  0  0  0
 11 13  2  0  0  0
  7  1  1  0  0  0
 17 18  1  0  0  0
  6  8  1  0  0  0
  6  9  1  0  0  0
 10 14  1  0  0  0
M  END
> <minimizedAffinity>
-7.76612

> <CNNscore>
0.2603411674

> <CNNaffinity>
6.7582578659

> <CNN_VS>
1.7594527006

> <CNNaffinity_variance>
0.2187483758

$$$$
[H]OC(=O)C1=C([H])[C@@]([H])(O[C@@]([H])(C([H])([H])C([H])([H])[H])C([H])([H])C([H])([H])C([H])([H])C([H])([H])C([H])([H])C([H])([H])C([H])([H])[H])[C@]([H])(N([H])C(=O)C([H])([H])[H])[C@@]([H])(N([H])[H])C1([H])[H]


 29 29  0  0  0  0  0  0  0  0999 V2000
    8.3223   46.3969  130.9088 C   0  0  0  0  0  0  0  0  0  0  0  0
    7.7217   47.7485  131.2438 C   0  0  0  0  0  0  0  0  0  0  0  0
    7.7156   48.6766  130.2864 C   0  0  0  0  0  0  0  0  0  0  0  0
    8.3132   48.1917  128.9851 C   0  0  0  0  0  0  0  0  0  0  0  0
    7.4790   46.9938  128.6107 C   0  0  0  0  0  0  0  0  0  0  0  0
    6.1167   47.4180  128.3023 N   0  0  0  0  0  0  0  0  0  0  0  0
    7.5026   45.9695  129.7115 C   0  0  0  0  0  0  0  0  0  0  0  0
    6.0578   48.4551  128.2006 H   0  0  0  0  0  0  0  0  0  0  0  0
    5.8254   46.9765  127.3787 H   0  0  0  0  0  0  0  0  0  0  0  0
    7.9464   44.7402  129.0953 N   0  0  0  0  0  0  0  0  0  0  0  0
    9.2692   44.5421  128.6456 C   0  0  0  0  0  0  0  0  0  0  0  0
    9.7326   43.2851  128.0127 C   0  0  0  0  0  0  0  0  0  0  0  0
   10.0982   45.4738  128.7863 O   0  0  0  0  0  0  0  0  0  0  0  0
    7.2523   43.9732  128.9825 H   0  0  0  0  0  0  0  0  0  0  0  0
    7.2007   50.0075  130.3982 C   0  0  0  0  0  0  0  0  0  0  0  0
    5.9979   50.3095  130.1590 O   0  0  0  0  0  0  0  0  0  0  0  0
    8.0695   51.0285  130.7922 O   0  0  0  0  0  0  0  0  0  0  0  0
    7.6697   51.7404  131.4108 H   0  0  0  0  0  0  0  0  0  0  0  0
    8.1899   45.5976  131.9921 O   0  0  0  0  0  0  0  0  0  0  0  0
    9.2814   44.8043  132.3600 C   0  0  0  0  0  0  0  0  0  0  0  0
    9.1071   43.3472  132.1925 C   0  0  0  0  0  0  0  0  0  0  0  0
    9.9774   42.5743  133.1853 C   0  0  0  0  0  0  0  0  0  0  0  0
   10.5619   45.3114  131.8596 C   0  0  0  0  0  0  0  0  0  0  0  0
   11.3144   46.4214  132.4450 C   0  0  0  0  0  0  0  0  0  0  0  0
   11.0921   47.7593  131.8817 C   0  0  0  0  0  0  0  0  0  0  0  0
   10.3593   48.6526  132.9431 C   0  0  0  0  0  0  0  0  0  0  0  0
   10.3482   47.8065  134.2003 C   0  0  0  0  0  0  0  0  0  0  0  0
    8.8792   46.1846  135.2648 C   0  0  0  0  0  0  0  0  0  0  0  0
    8.9589   47.5757  134.7153 C   0  0  0  0  0  0  0  0  0  0  0  0
 28 29  1  0  0  0
 29 27  1  0  0  0
 27 26  1  0  0  0
 26 25  1  0  0  0
 25 24  1  0  0  0
 24 23  1  0  0  0
 23 20  1  0  0  0
 20 21  1  0  0  0
 21 22  1  0  0  0
 20 19  1  0  0  0
 19  1  1  0  0  0
  1  2  1  0  0  0
  2  3  2  0  0  0
  3 15  1  0  0  0
 15 16  2  0  0  0
 15 17  1  0  0  0
  3  4  1  0  0  0
  4  5  1  0  0  0
  5  6  1  0  0  0
  5  7  1  0  0  0
  7 10  1  0  0  0
 10 11  1  0  0  0
 11 12  1  0  0  0
 11 13  2  0  0  0
  7  1  1  0  0  0
 17 18  1  0  0  0
  6  8  1  0  0  0
  6  9  1  0  0  0
 10 14  1  0  0  0
M  END
> <minimizedAffinity>
-5.15202

> <CNNscore>
0.2403539568

> <CNNaffinity>
6.7110223770

> <CNN_VS>
1.6130207777

> <CNNaffinity_variance>
0.2883549929

$$$$
[H]OC(=O)C1=C([H])[C@@]([H])(O[C@@]([H])(C([H])([H])C([H])([H])[H])C([H])([H])C([H])([H])C([H])([H])C([H])([H])C([H])([H])C([H])([H])C([H])([H])[H])[C@]([H])(N([H])C(=O)C([H])([H])[H])[C@@]([H])(N([H])[H])C1([H])[H]


 29 29  0  0  0  0  0  0  0  0999 V2000
    9.1865   47.3487  130.0517 C   0  0  0  0  0  0  0  0  0  0  0  0
    8.3647   48.3065  129.2107 C   0  0  0  0  0  0  0  0  0  0  0  0
    7.5271   49.1256  129.8475 C   0  0  0  0  0  0  0  0  0  0  0  0
    7.5615   48.9601  131.3499 C   0  0  0  0  0  0  0  0  0  0  0  0
    8.9971   49.2230  131.7251 C   0  0  0  0  0  0  0  0  0  0  0  0
    9.3287   50.6196  131.4597 N   0  0  0  0  0  0  0  0  0  0  0  0
    9.9151   48.2876  130.9875 C   0  0  0  0  0  0  0  0  0  0  0  0
    8.4703   51.1826  131.2713 H   0  0  0  0  0  0  0  0  0  0  0  0
    9.8087   51.0231  132.3199 H   0  0  0  0  0  0  0  0  0  0  0  0
   10.6996   47.6242  132.0034 N   0  0  0  0  0  0  0  0  0  0  0  0
   10.1331   46.7706  132.9738 C   0  0  0  0  0  0  0  0  0  0  0  0
   10.9299   46.0865  134.0190 C   0  0  0  0  0  0  0  0  0  0  0  0
    8.8929   46.5780  132.9550 O   0  0  0  0  0  0  0  0  0  0  0  0
   11.7268   47.7897  132.0116 H   0  0  0  0  0  0  0  0  0  0  0  0
    6.6668   50.0968  129.2430 C   0  0  0  0  0  0  0  0  0  0  0  0
    7.0845   51.1765  128.7379 O   0  0  0  0  0  0  0  0  0  0  0  0
    5.2934   49.8419  129.2072 O   0  0  0  0  0  0  0  0  0  0  0  0
    4.8065   50.1398  128.3567 H   0  0  0  0  0  0  0  0  0  0  0  0
    9.9930   46.6470  129.2229 O   0  0  0  0  0  0  0  0  0  0  0  0
   10.1907   45.2890  129.4935 C   0  0  0  0  0  0  0  0  0  0  0  0
    9.0759   44.3894  129.1337 C   0  0  0  0  0  0  0  0  0  0  0  0
    9.5660   43.2336  128.2594 C   0  0  0  0  0  0  0  0  0  0  0  0
   11.5076   44.8003  129.0765 C   0  0  0  0  0  0  0  0  0  0  0  0
   12.5729   44.3726  129.9839 C   0  0  0  0  0  0  0  0  0  0  0  0
   12.3209   44.4936  131.4256 C   0  0  0  0  0  0  0  0  0  0  0  0
   12.3303   43.0651  132.0745 C   0  0  0  0  0  0  0  0  0  0  0  0
   10.9411   42.5229  131.8047 C   0  0  0  0  0  0  0  0  0  0  0  0
    8.6627   43.0432  132.4829 C   0  0  0  0  0  0  0  0  0  0  0  0
   10.0294   42.6898  132.9836 C   0  0  0  0  0  0  0  0  0  0  0  0
 28 29  1  0  0  0
 29 27  1  0  0  0
 27 26  1  0  0  0
 26 25  1  0  0  0
 25 24  1  0  0  0
 24 23  1  0  0  0
 23 20  1  0  0  0
 20 21  1  0  0  0
 21 22  1  0  0  0
 20 19  1  0  0  0
 19  1  1  0  0  0
  1  2  1  0  0  0
  2  3  2  0  0  0
  3 15  1  0  0  0
 15 16  2  0  0  0
 15 17  1  0  0  0
  3  4  1  0  0  0
  4  5  1  0  0  0
  5  6  1  0  0  0
  5  7  1  0  0  0
  7 10  1  0  0  0
 10 11  1  0  0  0
 11 12  1  0  0  0
 11 13  2  0  0  0
  7  1  1  0  0  0
 17 18  1  0  0  0
  6  8  1  0  0  0
  6  9  1  0  0  0
 10 14  1  0  0  0
M  END
> <minimizedAffinity>
-7.10699

> <CNNscore>
0.2339484990

> <CNNaffinity>
6.8269820213

> <CNN_VS>
1.5971622467

> <CNNaffinity_variance>
0.1290806681

$$$$
[H]OC(=O)C1=C([H])[C@@]([H])(O[C@@]([H])(C([H])([H])C([H])([H])[H])C([H])([H])C([H])([H])C([H])([H])C([H])([H])C([H])([H])C([H])([H])C([H])([H])[H])[C@]([H])(N([H])C(=O)C([H])([H])[H])[C@@]([H])(N([H])[H])C1([H])[H]


 29 29  0  0  0  0  0  0  0  0999 V2000
    8.9631   46.3069  130.9334 C   0  0  0  0  0  0  0  0  0  0  0  0
    8.5421   47.0812  129.6992 C   0  0  0  0  0  0  0  0  0  0  0  0
    7.9433   48.2584  129.8825 C   0  0  0  0  0  0  0  0  0  0  0  0
    7.8030   48.6330  131.3404 C   0  0  0  0  0  0  0  0  0  0  0  0
    9.2151   48.6338  131.8667 C   0  0  0  0  0  0  0  0  0  0  0  0
    9.9752   49.7104  131.2390 N   0  0  0  0  0  0  0  0  0  0  0  0
    9.8631   47.2956  131.6408 C   0  0  0  0  0  0  0  0  0  0  0  0
    9.3464   50.3702  130.7306 H   0  0  0  0  0  0  0  0  0  0  0  0
   10.4829   50.2547  131.9998 H   0  0  0  0  0  0  0  0  0  0  0  0
   10.3237   46.8576  132.9384 N   0  0  0  0  0  0  0  0  0  0  0  0
    9.4666   46.2886  133.9042 C   0  0  0  0  0  0  0  0  0  0  0  0
    9.9303   45.8370  135.2370 C   0  0  0  0  0  0  0  0  0  0  0  0
    8.2500   46.1563  133.6254 O   0  0  0  0  0  0  0  0  0  0  0  0
   11.3337   46.9712  133.1610 H   0  0  0  0  0  0  0  0  0  0  0  0
    7.4705   49.1383  128.8573 C   0  0  0  0  0  0  0  0  0  0  0  0
    7.4727   50.3967  128.9663 O   0  0  0  0  0  0  0  0  0  0  0  0
    6.9805   48.5815  127.6732 O   0  0  0  0  0  0  0  0  0  0  0  0
    7.2066   49.0909  126.8137 H   0  0  0  0  0  0  0  0  0  0  0  0
    9.5836   45.1751  130.5286 O   0  0  0  0  0  0  0  0  0  0  0  0
    8.7930   44.1372  130.0248 C   0  0  0  0  0  0  0  0  0  0  0  0
    9.0140   43.7860  128.6073 C   0  0  0  0  0  0  0  0  0  0  0  0
   10.4368   44.1411  128.1711 C   0  0  0  0  0  0  0  0  0  0  0  0
    8.7171   42.9791  130.9194 C   0  0  0  0  0  0  0  0  0  0  0  0
    8.6878   43.0449  132.3809 C   0  0  0  0  0  0  0  0  0  0  0  0
    9.9150   42.6759  133.0981 C   0  0  0  0  0  0  0  0  0  0  0  0
   11.0899   42.5238  132.0694 C   0  0  0  0  0  0  0  0  0  0  0  0
   12.2332   43.3012  132.6900 C   0  0  0  0  0  0  0  0  0  0  0  0
   12.8196   44.2811  130.5411 C   0  0  0  0  0  0  0  0  0  0  0  0
   12.4976   44.5902  131.9708 C   0  0  0  0  0  0  0  0  0  0  0  0
 28 29  1  0  0  0
 29 27  1  0  0  0
 27 26  1  0  0  0
 26 25  1  0  0  0
 25 24  1  0  0  0
 24 23  1  0  0  0
 23 20  1  0  0  0
 20 21  1  0  0  0
 21 22  1  0  0  0
 20 19  1  0  0  0
 19  1  1  0  0  0
  1  2  1  0  0  0
  2  3  2  0  0  0
  3 15  1  0  0  0
 15 16  2  0  0  0
 15 17  1  0  0  0
  3  4  1  0  0  0
  4  5  1  0  0  0
  5  6  1  0  0  0
  5  7  1  0  0  0
  7 10  1  0  0  0
 10 11  1  0  0  0
 11 12  1  0  0  0
 11 13  2  0  0  0
  7  1  1  0  0  0
 17 18  1  0  0  0
  6  8  1  0  0  0
  6  9  1  0  0  0
 10 14  1  0  0  0
M  END
> <minimizedAffinity>
-7.09441

> <CNNscore>
0.2231794000

> <CNNaffinity>
6.9504814148

> <CNN_VS>
1.5512043238

> <CNNaffinity_variance>
0.0233515035

$$$$
[H]c1c([H])c(-c2c([H])c([H])c(C([H])(C(=O)N([H])C([H])([H])C([H])([H])C([H])([H])C([H])([H])C([H])([H])C([H])([H])N([H])c3c4c(nc5c([H])c([H])c([H])c([H])c35)C([H])([H])C([H])([H])C([H])([H])C4([H])[H])C([H])([H])[H])c([H])c2F)c([H])c([H])c1OC([H])([H])C([H])([H])C([H])([H])C([H])([H])C([H])([H])C([H])([H])O[N+](=O)[O-]


 52 56  0  0  0  0  0  0  0  0999 V2000
    5.0225   50.2022  129.1259 C   0  0  0  0  0  0  0  0  0  0  0  0
    6.4684   50.4522  128.7079 C   0  0  0  0  0  0  0  0  0  0  0  0
    7.3226   49.6070  129.5644 C   0  0  0  0  0  0  0  0  0  0  0  0
    7.2800   48.2405  129.4180 C   0  0  0  0  0  0  0  0  0  0  0  0
    8.0543   47.3954  130.2145 C   0  0  0  0  0  0  0  0  0  0  0  0
    8.8702   47.9373  131.1575 C   0  0  0  0  0  0  0  0  0  0  0  0
    8.9279   49.2998  131.3203 C   0  0  0  0  0  0  0  0  0  0  0  0
    9.7305   49.8554  132.2590 F   0  0  0  0  0  0  0  0  0  0  0  0
    8.1469   50.1412  130.5163 C   0  0  0  0  0  0  0  0  0  0  0  0
    9.6908   47.0832  131.9960 C   0  0  0  0  0  0  0  0  0  0  0  0
    9.2061   46.5116  133.1509 C   0  0  0  0  0  0  0  0  0  0  0  0
   10.0169   45.6869  133.9375 C   0  0  0  0  0  0  0  0  0  0  0  0
   11.3213   45.4030  133.6130 C   0  0  0  0  0  0  0  0  0  0  0  0
   11.8021   45.9953  132.4273 C   0  0  0  0  0  0  0  0  0  0  0  0
   10.9972   46.7981  131.6699 C   0  0  0  0  0  0  0  0  0  0  0  0
   12.1822   44.6115  134.3298 O   0  0  0  0  0  0  0  0  0  0  0  0
   12.5585   43.3017  134.0453 C   0  0  0  0  0  0  0  0  0  0  0  0
   12.2881   42.9808  132.6102 C   0  0  0  0  0  0  0  0  0  0  0  0
   10.9139   42.4008  132.4490 C   0  0  0  0  0  0  0  0  0  0  0  0
   10.4485   42.5333  131.0397 C   0  0  0  0  0  0  0  0  0  0  0  0
    9.3105   43.5082  130.8764 C   0  0  0  0  0  0  0  0  0  0  0  0
    9.0484   43.7387  129.4164 C   0  0  0  0  0  0  0  0  0  0  0  0
   10.3026   43.6517  128.7169 O   0  0  0  0  0  0  0  0  0  0  0  0
   11.0490   44.8042  128.6696 N   0  0  0  0  0  0  0  0  0  0  0  0
   10.5833   45.8855  128.2645 O   0  0  0  0  0  0  0  0  0  0  0  0
   12.3583   44.6971  129.1001 O   0  0  0  0  0  0  0  0  0  0  0  0
    6.8111   51.8725  128.6782 C   0  0  0  0  0  0  0  0  0  0  0  0
    6.8055   52.5591  129.7603 O   0  0  0  0  0  0  0  0  0  0  0  0
    7.1655   52.5903  127.5130 N   0  0  0  0  0  0  0  0  0  0  0  0
    7.1846   52.0742  126.6097 H   0  0  0  0  0  0  0  0  0  0  0  0
    7.5045   53.9873  127.5009 C   0  0  0  0  0  0  0  0  0  0  0  0
    7.1904   54.6460  126.1792 C   0  0  0  0  0  0  0  0  0  0  0  0
    8.3616   54.4802  125.2313 C   0  0  0  0  0  0  0  0  0  0  0  0
    7.8276   53.7554  123.9944 C   0  0  0  0  0  0  0  0  0  0  0  0
    6.8926   54.6122  123.2298 C   0  0  0  0  0  0  0  0  0  0  0  0
    5.4986   54.1508  123.1701 C   0  0  0  0  0  0  0  0  0  0  0  0
    4.4699   55.0557  123.4620 N   0  0  0  0  0  0  0  0  0  0  0  0
    4.0666   55.5942  122.6062 H   0  0  0  0  0  0  0  0  0  0  0  0
    3.8429   55.4169  124.6560 C   0  0  0  0  0  0  0  0  0  0  0  0
    2.8588   54.6043  125.1830 C   0  0  0  0  0  0  0  0  0  0  0  0
    2.2756   54.9370  126.3832 C   0  0  0  0  0  0  0  0  0  0  0  0
    2.6811   56.0649  127.0335 N   0  0  0  0  0  0  0  0  0  0  0  0
    3.6335   56.8799  126.5564 C   0  0  0  0  0  0  0  0  0  0  0  0
    4.0274   58.0095  127.2329 C   0  0  0  0  0  0  0  0  0  0  0  0
    5.0019   58.8283  126.7364 C   0  0  0  0  0  0  0  0  0  0  0  0
    5.5860   58.4937  125.5324 C   0  0  0  0  0  0  0  0  0  0  0  0
    5.2119   57.3776  124.8419 C   0  0  0  0  0  0  0  0  0  0  0  0
    4.2226   56.5532  125.3531 C   0  0  0  0  0  0  0  0  0  0  0  0
    1.2214   54.0821  126.9393 C   0  0  0  0  0  0  0  0  0  0  0  0
    1.3020   52.6387  126.5827 C   0  0  0  0  0  0  0  0  0  0  0  0
    2.3808   52.2892  125.5960 C   0  0  0  0  0  0  0  0  0  0  0  0
    2.4084   53.3640  124.5061 C   0  0  0  0  0  0  0  0  0  0  0  0
  1  2  1  0  0  0
  2 27  1  0  0  0
 27 28  2  0  0  0
 27 29  1  0  0  0
 29 31  1  0  0  0
 31 32  1  0  0  0
 32 33  1  0  0  0
 33 34  1  0  0  0
 34 35  1  0  0  0
 35 36  1  0  0  0
 36 37  1  0  0  0
 37 39  1  0  0  0
 39 40  2  0  0  0
 40 41  1  0  0  0
 41 42  2  0  0  0
 42 43  1  0  0  0
 43 44  2  0  0  0
 44 45  1  0  0  0
 45 46  2  0  0  0
 46 47  1  0  0  0
 47 48  2  0  0  0
 41 49  1  0  0  0
 49 50  1  0  0  0
 50 51  1  0  0  0
 51 52  1  0  0  0
  2  3  1  0  0  0
  3  4  2  0  0  0
  4  5  1  0  0  0
  5  6  2  0  0  0
  6 10  1  0  0  0
 10 11  2  0  0  0
 11 12  1  0  0  0
 12 13  2  0  0  0
 13 16  1  0  0  0
 16 17  1  0  0  0
 17 18  1  0  0  0
 18 19  1  0  0  0
 19 20  1  0  0  0
 20 21  1  0  0  0
 21 22  1  0  0  0
 22 23  1  0  0  0
 23 24  1  0  0  0
 24 25  2  0  0  0
 24 26  1  0  0  0
 13 14  1  0  0  0
 14 15  2  0  0  0
  6  7  1  0  0  0
  7  8  1  0  0  0
  7  9  2  0  0  0
 48 39  1  0  0  0
  9  3  1  0  0  0
 52 40  1  0  0  0
 15 10  1  0  0  0
 48 43  1  0  0  0
 29 30  1  0  0  0
 37 38  1  0  0  0
M  CHG 1  24   1
M  CHG 1  26  -1
M  END
> <minimizedAffinity>
-6.69808

> <CNNscore>
0.6774963737

> <CNNaffinity>
8.4881134033

> <CNN_VS>
5.7506661415

> <CNNaffinity_variance>
0.2256932557

$$$$
[H]c1c([H])c(-c2c([H])c([H])c(C([H])(C(=O)N([H])C([H])([H])C([H])([H])C([H])([H])C([H])([H])C([H])([H])C([H])([H])N([H])c3c4c(nc5c([H])c([H])c([H])c([H])c35)C([H])([H])C([H])([H])C([H])([H])C4([H])[H])C([H])([H])[H])c([H])c2F)c([H])c([H])c1OC([H])([H])C([H])([H])C([H])([H])C([H])([H])C([H])([H])C([H])([H])O[N+](=O)[O-]


 52 56  0  0  0  0  0  0  0  0999 V2000
    4.8460   50.3077  128.8909 C   0  0  0  0  0  0  0  0  0  0  0  0
    6.3436   50.4580  128.6410 C   0  0  0  0  0  0  0  0  0  0  0  0
    7.0364   49.5709  129.5954 C   0  0  0  0  0  0  0  0  0  0  0  0
    7.9124   50.1143  130.5052 C   0  0  0  0  0  0  0  0  0  0  0  0
    8.6063   49.3180  131.4176 C   0  0  0  0  0  0  0  0  0  0  0  0
    8.4105   47.9726  131.4059 C   0  0  0  0  0  0  0  0  0  0  0  0
    7.5399   47.4093  130.5054 C   0  0  0  0  0  0  0  0  0  0  0  0
    7.3381   46.0704  130.4762 F   0  0  0  0  0  0  0  0  0  0  0  0
    6.8472   48.2162  129.5925 C   0  0  0  0  0  0  0  0  0  0  0  0
    9.1140   47.1207  132.3468 C   0  0  0  0  0  0  0  0  0  0  0  0
   10.3866   47.4118  132.7843 C   0  0  0  0  0  0  0  0  0  0  0  0
   11.0395   46.5768  133.6967 C   0  0  0  0  0  0  0  0  0  0  0  0
   10.4629   45.4366  134.2017 C   0  0  0  0  0  0  0  0  0  0  0  0
    9.1597   45.1531  133.7445 C   0  0  0  0  0  0  0  0  0  0  0  0
    8.5355   45.9792  132.8534 C   0  0  0  0  0  0  0  0  0  0  0  0
   11.0345   44.5641  135.0924 O   0  0  0  0  0  0  0  0  0  0  0  0
   11.7473   43.4050  134.7981 C   0  0  0  0  0  0  0  0  0  0  0  0
   12.7288   43.6604  133.6994 C   0  0  0  0  0  0  0  0  0  0  0  0
   12.1389   43.2950  132.3692 C   0  0  0  0  0  0  0  0  0  0  0  0
   12.4807   44.3192  131.3425 C   0  0  0  0  0  0  0  0  0  0  0  0
   11.8939   44.0230  129.9860 C   0  0  0  0  0  0  0  0  0  0  0  0
   10.7640   44.9710  129.7066 C   0  0  0  0  0  0  0  0  0  0  0  0
    9.5443   44.3621  130.1663 O   0  0  0  0  0  0  0  0  0  0  0  0
    9.1083   43.2708  129.4544 N   0  0  0  0  0  0  0  0  0  0  0  0
    8.4556   42.3490  129.9783 O   0  0  0  0  0  0  0  0  0  0  0  0
    9.4371   43.2514  128.1118 O   0  0  0  0  0  0  0  0  0  0  0  0
    6.7802   51.8527  128.6427 C   0  0  0  0  0  0  0  0  0  0  0  0
    6.8398   52.5074  129.7428 O   0  0  0  0  0  0  0  0  0  0  0  0
    7.1614   52.5777  127.4906 N   0  0  0  0  0  0  0  0  0  0  0  0
    7.1299   52.0870  126.5735 H   0  0  0  0  0  0  0  0  0  0  0  0
    7.5930   53.9488  127.5093 C   0  0  0  0  0  0  0  0  0  0  0  0
    7.2834   54.6691  126.2191 C   0  0  0  0  0  0  0  0  0  0  0  0
    8.4029   54.4424  125.2226 C   0  0  0  0  0  0  0  0  0  0  0  0
    7.7442   54.0087  123.9117 C   0  0  0  0  0  0  0  0  0  0  0  0
    6.6203   54.9032  123.5518 C   0  0  0  0  0  0  0  0  0  0  0  0
    5.3581   54.2402  123.1954 C   0  0  0  0  0  0  0  0  0  0  0  0
    4.1471   54.8727  123.5044 N   0  0  0  0  0  0  0  0  0  0  0  0
    3.5633   55.2048  122.6476 H   0  0  0  0  0  0  0  0  0  0  0  0
    3.5224   55.1720  124.7166 C   0  0  0  0  0  0  0  0  0  0  0  0
    3.6469   56.4376  125.2543 C   0  0  0  0  0  0  0  0  0  0  0  0
    2.9921   56.7448  126.4240 C   0  0  0  0  0  0  0  0  0  0  0  0
    2.2290   55.7925  127.0326 N   0  0  0  0  0  0  0  0  0  0  0  0
    2.0814   54.5526  126.5430 C   0  0  0  0  0  0  0  0  0  0  0  0
    1.3033   53.6115  127.1734 C   0  0  0  0  0  0  0  0  0  0  0  0
    1.1592   52.3534  126.6607 C   0  0  0  0  0  0  0  0  0  0  0  0
    1.8166   52.0465  125.4875 C   0  0  0  0  0  0  0  0  0  0  0  0
    2.5949   52.9637  124.8430 C   0  0  0  0  0  0  0  0  0  0  0  0
    2.7354   54.2371  125.3706 C   0  0  0  0  0  0  0  0  0  0  0  0
    3.1325   58.0847  127.0038 C   0  0  0  0  0  0  0  0  0  0  0  0
    3.3769   59.1881  126.0344 C   0  0  0  0  0  0  0  0  0  0  0  0
    3.5743   58.7483  124.6106 C   0  0  0  0  0  0  0  0  0  0  0  0
    4.4573   57.4976  124.6069 C   0  0  0  0  0  0  0  0  0  0  0  0
  1  2  1  0  0  0
  2 27  1  0  0  0
 27 28  2  0  0  0
 27 29  1  0  0  0
 29 31  1  0  0  0
 31 32  1  0  0  0
 32 33  1  0  0  0
 33 34  1  0  0  0
 34 35  1  0  0  0
 35 36  1  0  0  0
 36 37  1  0  0  0
 37 39  1  0  0  0
 39 40  2  0  0  0
 40 41  1  0  0  0
 41 42  2  0  0  0
 42 43  1  0  0  0
 43 44  2  0  0  0
 44 45  1  0  0  0
 45 46  2  0  0  0
 46 47  1  0  0  0
 47 48  2  0  0  0
 41 49  1  0  0  0
 49 50  1  0  0  0
 50 51  1  0  0  0
 51 52  1  0  0  0
  2  3  1  0  0  0
  3  4  2  0  0  0
  4  5  1  0  0  0
  5  6  2  0  0  0
  6 10  1  0  0  0
 10 11  2  0  0  0
 11 12  1  0  0  0
 12 13  2  0  0  0
 13 16  1  0  0  0
 16 17  1  0  0  0
 17 18  1  0  0  0
 18 19  1  0  0  0
 19 20  1  0  0  0
 20 21  1  0  0  0
 21 22  1  0  0  0
 22 23  1  0  0  0
 23 24  1  0  0  0
 24 25  2  0  0  0
 24 26  1  0  0  0
 13 14  1  0  0  0
 14 15  2  0  0  0
  6  7  1  0  0  0
  7  8  1  0  0  0
  7  9  2  0  0  0
 48 39  1  0  0  0
  9  3  1  0  0  0
 52 40  1  0  0  0
 15 10  1  0  0  0
 48 43  1  0  0  0
 29 30  1  0  0  0
 37 38  1  0  0  0
M  CHG 1  24   1
M  CHG 1  26  -1
M  END
> <minimizedAffinity>
-6.33281

> <CNNscore>
0.5206331611

> <CNNaffinity>
8.2201795578

> <CNN_VS>
4.2796978951

> <CNNaffinity_variance>
0.2106456310

$$$$
[H]c1c([H])c(-c2c([H])c([H])c(C([H])(C(=O)N([H])C([H])([H])C([H])([H])C([H])([H])C([H])([H])C([H])([H])C([H])([H])N([H])c3c4c(nc5c([H])c([H])c([H])c([H])c35)C([H])([H])C([H])([H])C([H])([H])C4([H])[H])C([H])([H])[H])c([H])c2F)c([H])c([H])c1OC([H])([H])C([H])([H])C([H])([H])C([H])([H])C([H])([H])C([H])([H])O[N+](=O)[O-]


 52 56  0  0  0  0  0  0  0  0999 V2000
    8.9163   51.1053  131.4893 C   0  0  0  0  0  0  0  0  0  0  0  0
    7.6807   50.2525  131.2174 C   0  0  0  0  0  0  0  0  0  0  0  0
    8.1296   48.8494  131.1302 C   0  0  0  0  0  0  0  0  0  0  0  0
    8.0442   48.1891  129.9271 C   0  0  0  0  0  0  0  0  0  0  0  0
    8.4387   46.8569  129.7948 C   0  0  0  0  0  0  0  0  0  0  0  0
    8.9190   46.1969  130.8821 C   0  0  0  0  0  0  0  0  0  0  0  0
    9.0126   46.8377  132.0933 C   0  0  0  0  0  0  0  0  0  0  0  0
    9.4829   46.1931  133.1875 F   0  0  0  0  0  0  0  0  0  0  0  0
    8.6142   48.1757  132.2174 C   0  0  0  0  0  0  0  0  0  0  0  0
    9.3419   44.8130  130.7727 C   0  0  0  0  0  0  0  0  0  0  0  0
   10.6206   44.4135  131.0904 C   0  0  0  0  0  0  0  0  0  0  0  0
   11.0002   43.0718  130.9820 C   0  0  0  0  0  0  0  0  0  0  0  0
   10.1377   42.0895  130.5591 C   0  0  0  0  0  0  0  0  0  0  0  0
    8.8323   42.5148  130.2384 C   0  0  0  0  0  0  0  0  0  0  0  0
    8.4772   43.8291  130.3501 C   0  0  0  0  0  0  0  0  0  0  0  0
   10.4308   40.7567  130.4205 O   0  0  0  0  0  0  0  0  0  0  0  0
    9.9833   39.8942  129.4236 C   0  0  0  0  0  0  0  0  0  0  0  0
   10.9467   38.7659  129.2382 C   0  0  0  0  0  0  0  0  0  0  0  0
   11.1009   38.4375  127.7824 C   0  0  0  0  0  0  0  0  0  0  0  0
   10.7542   39.6148  126.9376 C   0  0  0  0  0  0  0  0  0  0  0  0
   11.7302   39.8505  125.8133 C   0  0  0  0  0  0  0  0  0  0  0  0
   12.0492   38.5474  125.1398 C   0  0  0  0  0  0  0  0  0  0  0  0
   10.8117   37.9449  124.7210 O   0  0  0  0  0  0  0  0  0  0  0  0
   10.0270   38.6978  123.8813 N   0  0  0  0  0  0  0  0  0  0  0  0
   10.4270   39.0959  122.7716 O   0  0  0  0  0  0  0  0  0  0  0  0
    8.7566   38.9923  124.3400 O   0  0  0  0  0  0  0  0  0  0  0  0
    6.8971   50.7374  130.0832 C   0  0  0  0  0  0  0  0  0  0  0  0
    5.7066   50.3037  129.8906 O   0  0  0  0  0  0  0  0  0  0  0  0
    7.3518   51.6846  129.1375 N   0  0  0  0  0  0  0  0  0  0  0  0
    8.3129   52.0661  129.2534 H   0  0  0  0  0  0  0  0  0  0  0  0
    6.5667   52.1550  128.0289 C   0  0  0  0  0  0  0  0  0  0  0  0
    7.4103   52.8048  126.9587 C   0  0  0  0  0  0  0  0  0  0  0  0
    7.4252   54.3074  127.1578 C   0  0  0  0  0  0  0  0  0  0  0  0
    8.2890   54.8913  126.0382 C   0  0  0  0  0  0  0  0  0  0  0  0
    8.2415   56.3714  126.0376 C   0  0  0  0  0  0  0  0  0  0  0  0
    7.9005   57.0043  124.7558 C   0  0  0  0  0  0  0  0  0  0  0  0
    6.6096   57.5164  124.5727 N   0  0  0  0  0  0  0  0  0  0  0  0
    6.5491   58.4240  123.9746 H   0  0  0  0  0  0  0  0  0  0  0  0
    5.3551   57.0900  125.0129 C   0  0  0  0  0  0  0  0  0  0  0  0
    4.7373   56.0261  124.3861 C   0  0  0  0  0  0  0  0  0  0  0  0
    3.5234   55.5771  124.8512 C   0  0  0  0  0  0  0  0  0  0  0  0
    2.9509   56.1909  125.9260 N   0  0  0  0  0  0  0  0  0  0  0  0
    3.5182   57.2259  126.5631 C   0  0  0  0  0  0  0  0  0  0  0  0
    2.9226   57.8254  127.6469 C   0  0  0  0  0  0  0  0  0  0  0  0
    3.5142   58.8764  128.2883 C   0  0  0  0  0  0  0  0  0  0  0  0
    4.7316   59.3260  127.8208 C   0  0  0  0  0  0  0  0  0  0  0  0
    5.3429   58.7475  126.7466 C   0  0  0  0  0  0  0  0  0  0  0  0
    4.7352   57.6820  126.1022 C   0  0  0  0  0  0  0  0  0  0  0  0
    2.8591   54.4551  124.1796 C   0  0  0  0  0  0  0  0  0  0  0  0
    3.7596   53.4676  123.5231 C   0  0  0  0  0  0  0  0  0  0  0  0
    5.2172   53.8351  123.5328 C   0  0  0  0  0  0  0  0  0  0  0  0
    5.3429   55.3296  123.2253 C   0  0  0  0  0  0  0  0  0  0  0  0
  1  2  1  0  0  0
  2 27  1  0  0  0
 27 28  2  0  0  0
 27 29  1  0  0  0
 29 31  1  0  0  0
 31 32  1  0  0  0
 32 33  1  0  0  0
 33 34  1  0  0  0
 34 35  1  0  0  0
 35 36  1  0  0  0
 36 37  1  0  0  0
 37 39  1  0  0  0
 39 40  2  0  0  0
 40 41  1  0  0  0
 41 42  2  0  0  0
 42 43  1  0  0  0
 43 44  2  0  0  0
 44 45  1  0  0  0
 45 46  2  0  0  0
 46 47  1  0  0  0
 47 48  2  0  0  0
 41 49  1  0  0  0
 49 50  1  0  0  0
 50 51  1  0  0  0
 51 52  1  0  0  0
  2  3  1  0  0  0
  3  4  2  0  0  0
  4  5  1  0  0  0
  5  6  2  0  0  0
  6 10  1  0  0  0
 10 11  2  0  0  0
 11 12  1  0  0  0
 12 13  2  0  0  0
 13 16  1  0  0  0
 16 17  1  0  0  0
 17 18  1  0  0  0
 18 19  1  0  0  0
 19 20  1  0  0  0
 20 21  1  0  0  0
 21 22  1  0  0  0
 22 23  1  0  0  0
 23 24  1  0  0  0
 24 25  2  0  0  0
 24 26  1  0  0  0
 13 14  1  0  0  0
 14 15  2  0  0  0
  6  7  1  0  0  0
  7  8  1  0  0  0
  7  9  2  0  0  0
 48 39  1  0  0  0
  9  3  1  0  0  0
 52 40  1  0  0  0
 15 10  1  0  0  0
 48 43  1  0  0  0
 29 30  1  0  0  0
 37 38  1  0  0  0
M  CHG 1  24   1
M  CHG 1  26  -1
M  END
> <minimizedAffinity>
11.88129

> <CNNscore>
0.4660851657

> <CNNaffinity>
7.5816497803

> <CNN_VS>
3.5336945057

> <CNNaffinity_variance>
1.0404341221

$$$$
[H]c1c([H])c(-c2c([H])c([H])c(C([H])(C(=O)N([H])C([H])([H])C([H])([H])C([H])([H])C([H])([H])C([H])([H])C([H])([H])N([H])c3c4c(nc5c([H])c([H])c([H])c([H])c35)C([H])([H])C([H])([H])C([H])([H])C4([H])[H])C([H])([H])[H])c([H])c2F)c([H])c([H])c1OC([H])([H])C([H])([H])C([H])([H])C([H])([H])C([H])([H])C([H])([H])O[N+](=O)[O-]


 52 56  0  0  0  0  0  0  0  0999 V2000
    4.8796   50.6304  130.1578 C   0  0  0  0  0  0  0  0  0  0  0  0
    5.9159   50.5333  129.0424 C   0  0  0  0  0  0  0  0  0  0  0  0
    6.7161   49.3193  129.2946 C   0  0  0  0  0  0  0  0  0  0  0  0
    6.0942   48.0929  129.3019 C   0  0  0  0  0  0  0  0  0  0  0  0
    6.8015   46.9161  129.5525 C   0  0  0  0  0  0  0  0  0  0  0  0
    8.1376   46.9848  129.7951 C   0  0  0  0  0  0  0  0  0  0  0  0
    8.7783   48.1997  129.7925 C   0  0  0  0  0  0  0  0  0  0  0  0
   10.1073   48.2864  130.0384 F   0  0  0  0  0  0  0  0  0  0  0  0
    8.0605   49.3766  129.5400 C   0  0  0  0  0  0  0  0  0  0  0  0
    8.8995   45.7770  130.0531 C   0  0  0  0  0  0  0  0  0  0  0  0
   10.1726   45.5981  129.5603 C   0  0  0  0  0  0  0  0  0  0  0  0
   10.8874   44.4265  129.8295 C   0  0  0  0  0  0  0  0  0  0  0  0
   10.3729   43.4019  130.5865 C   0  0  0  0  0  0  0  0  0  0  0  0
    9.0689   43.6010  131.0842 C   0  0  0  0  0  0  0  0  0  0  0  0
    8.3841   44.7513  130.8125 C   0  0  0  0  0  0  0  0  0  0  0  0
   11.0034   42.2227  130.8919 O   0  0  0  0  0  0  0  0  0  0  0  0
   11.4830   41.8203  132.1354 C   0  0  0  0  0  0  0  0  0  0  0  0
   11.1336   42.8299  133.1814 C   0  0  0  0  0  0  0  0  0  0  0  0
   12.3479   43.6128  133.5857 C   0  0  0  0  0  0  0  0  0  0  0  0
   12.1535   45.0645  133.3122 C   0  0  0  0  0  0  0  0  0  0  0  0
   10.7315   45.5237  133.5103 C   0  0  0  0  0  0  0  0  0  0  0  0
   10.7182   46.7993  134.3016 C   0  0  0  0  0  0  0  0  0  0  0  0
   10.8252   47.8991  133.3804 O   0  0  0  0  0  0  0  0  0  0  0  0
    9.6671   48.5966  133.1352 N   0  0  0  0  0  0  0  0  0  0  0  0
    8.5405   48.0749  133.2292 O   0  0  0  0  0  0  0  0  0  0  0  0
    9.8220   49.9222  132.7747 O   0  0  0  0  0  0  0  0  0  0  0  0
    6.6780   51.7682  128.8692 C   0  0  0  0  0  0  0  0  0  0  0  0
    7.2027   52.3488  129.8841 O   0  0  0  0  0  0  0  0  0  0  0  0
    6.9006   52.4089  127.6289 N   0  0  0  0  0  0  0  0  0  0  0  0
    6.4941   51.9735  126.7757 H   0  0  0  0  0  0  0  0  0  0  0  0
    7.6567   53.6218  127.4744 C   0  0  0  0  0  0  0  0  0  0  0  0
    7.2789   54.3824  126.2262 C   0  0  0  0  0  0  0  0  0  0  0  0
    8.5310   54.8156  125.4898 C   0  0  0  0  0  0  0  0  0  0  0  0
    8.1950   54.7901  123.9975 C   0  0  0  0  0  0  0  0  0  0  0  0
    6.9835   53.9810  123.7319 C   0  0  0  0  0  0  0  0  0  0  0  0
    5.8103   54.7192  123.2435 C   0  0  0  0  0  0  0  0  0  0  0  0
    4.5525   54.4358  123.7909 N   0  0  0  0  0  0  0  0  0  0  0  0
    4.0070   53.6258  123.3097 H   0  0  0  0  0  0  0  0  0  0  0  0
    3.8388   54.9949  124.8526 C   0  0  0  0  0  0  0  0  0  0  0  0
    2.7770   54.3031  125.4007 C   0  0  0  0  0  0  0  0  0  0  0  0
    2.1051   54.8338  126.4770 C   0  0  0  0  0  0  0  0  0  0  0  0
    2.5010   56.0355  126.9855 N   0  0  0  0  0  0  0  0  0  0  0  0
    3.5269   56.7384  126.4833 C   0  0  0  0  0  0  0  0  0  0  0  0
    3.9089   57.9461  127.0163 C   0  0  0  0  0  0  0  0  0  0  0  0
    4.9587   58.6491  126.4964 C   0  0  0  0  0  0  0  0  0  0  0  0
    5.6317   58.1159  125.4168 C   0  0  0  0  0  0  0  0  0  0  0  0
    5.2713   56.9187  124.8698 C   0  0  0  0  0  0  0  0  0  0  0  0
    4.2052   56.2129  125.4037 C   0  0  0  0  0  0  0  0  0  0  0  0
    0.9691   54.1068  127.0534 C   0  0  0  0  0  0  0  0  0  0  0  0
    1.0171   52.6239  126.9271 C   0  0  0  0  0  0  0  0  0  0  0  0
    2.1626   52.0945  126.1101 C   0  0  0  0  0  0  0  0  0  0  0  0
    2.3339   52.9877  124.8785 C   0  0  0  0  0  0  0  0  0  0  0  0
  1  2  1  0  0  0
  2 27  1  0  0  0
 27 28  2  0  0  0
 27 29  1  0  0  0
 29 31  1  0  0  0
 31 32  1  0  0  0
 32 33  1  0  0  0
 33 34  1  0  0  0
 34 35  1  0  0  0
 35 36  1  0  0  0
 36 37  1  0  0  0
 37 39  1  0  0  0
 39 40  2  0  0  0
 40 41  1  0  0  0
 41 42  2  0  0  0
 42 43  1  0  0  0
 43 44  2  0  0  0
 44 45  1  0  0  0
 45 46  2  0  0  0
 46 47  1  0  0  0
 47 48  2  0  0  0
 41 49  1  0  0  0
 49 50  1  0  0  0
 50 51  1  0  0  0
 51 52  1  0  0  0
  2  3  1  0  0  0
  3  4  2  0  0  0
  4  5  1  0  0  0
  5  6  2  0  0  0
  6 10  1  0  0  0
 10 11  2  0  0  0
 11 12  1  0  0  0
 12 13  2  0  0  0
 13 16  1  0  0  0
 16 17  1  0  0  0
 17 18  1  0  0  0
 18 19  1  0  0  0
 19 20  1  0  0  0
 20 21  1  0  0  0
 21 22  1  0  0  0
 22 23  1  0  0  0
 23 24  1  0  0  0
 24 25  2  0  0  0
 24 26  1  0  0  0
 13 14  1  0  0  0
 14 15  2  0  0  0
  6  7  1  0  0  0
  7  8  1  0  0  0
  7  9  2  0  0  0
 48 39  1  0  0  0
  9  3  1  0  0  0
 52 40  1  0  0  0
 15 10  1  0  0  0
 48 43  1  0  0  0
 29 30  1  0  0  0
 37 38  1  0  0  0
M  CHG 1  24   1
M  CHG 1  26  -1
M  END
> <minimizedAffinity>
-5.72426

> <CNNscore>
0.4654936492

> <CNNaffinity>
8.3550510406

> <CNN_VS>
3.8892230988

> <CNNaffinity_variance>
0.2571319044

$$$$
[H]c1c([H])c(-c2c([H])c([H])c(C([H])(C(=O)N([H])C([H])([H])C([H])([H])C([H])([H])C([H])([H])C([H])([H])C([H])([H])N([H])c3c4c(nc5c([H])c([H])c([H])c([H])c35)C([H])([H])C([H])([H])C([H])([H])C4([H])[H])C([H])([H])[H])c([H])c2F)c([H])c([H])c1OC([H])([H])C([H])([H])C([H])([H])C([H])([H])C([H])([H])C([H])([H])O[N+](=O)[O-]


 52 56  0  0  0  0  0  0  0  0999 V2000
    8.4811   52.4488  131.2210 C   0  0  0  0  0  0  0  0  0  0  0  0
    7.6318   51.2500  130.8099 C   0  0  0  0  0  0  0  0  0  0  0  0
    8.3948   50.0353  131.1565 C   0  0  0  0  0  0  0  0  0  0  0  0
    8.3736   48.9599  130.2999 C   0  0  0  0  0  0  0  0  0  0  0  0
    9.0634   47.7815  130.5888 C   0  0  0  0  0  0  0  0  0  0  0  0
    9.7732   47.6956  131.7453 C   0  0  0  0  0  0  0  0  0  0  0  0
    9.8076   48.7581  132.6149 C   0  0  0  0  0  0  0  0  0  0  0  0
   10.5046   48.6869  133.7739 F   0  0  0  0  0  0  0  0  0  0  0  0
    9.1120   49.9378  132.3171 C   0  0  0  0  0  0  0  0  0  0  0  0
   10.5047   46.4848  132.0689 C   0  0  0  0  0  0  0  0  0  0  0  0
   11.6427   46.1156  131.3875 C   0  0  0  0  0  0  0  0  0  0  0  0
   12.3323   44.9464  131.7242 C   0  0  0  0  0  0  0  0  0  0  0  0
   11.9241   44.1104  132.7351 C   0  0  0  0  0  0  0  0  0  0  0  0
   10.7579   44.5029  133.4234 C   0  0  0  0  0  0  0  0  0  0  0  0
   10.0961   45.6481  133.0825 C   0  0  0  0  0  0  0  0  0  0  0  0
   12.5380   42.9470  133.1239 O   0  0  0  0  0  0  0  0  0  0  0  0
   12.1104   41.6451  132.8784 C   0  0  0  0  0  0  0  0  0  0  0  0
   11.4997   41.5440  131.5173 C   0  0  0  0  0  0  0  0  0  0  0  0
   10.0095   41.4014  131.6168 C   0  0  0  0  0  0  0  0  0  0  0  0
    9.3558   42.7388  131.6816 C   0  0  0  0  0  0  0  0  0  0  0  0
    8.1583   42.8620  130.7746 C   0  0  0  0  0  0  0  0  0  0  0  0
    8.0080   44.2871  130.3272 C   0  0  0  0  0  0  0  0  0  0  0  0
    9.2653   44.7189  129.7773 O   0  0  0  0  0  0  0  0  0  0  0  0
    9.6583   44.1045  128.6129 N   0  0  0  0  0  0  0  0  0  0  0  0
    8.9722   44.1399  127.5745 O   0  0  0  0  0  0  0  0  0  0  0  0
   10.8686   43.4381  128.6572 O   0  0  0  0  0  0  0  0  0  0  0  0
    7.1689   51.3325  129.4261 C   0  0  0  0  0  0  0  0  0  0  0  0
    6.5389   50.3492  128.8982 O   0  0  0  0  0  0  0  0  0  0  0  0
    7.3597   52.4482  128.5793 N   0  0  0  0  0  0  0  0  0  0  0  0
    7.8658   53.2716  128.9648 H   0  0  0  0  0  0  0  0  0  0  0  0
    6.8942   52.5157  127.2208 C   0  0  0  0  0  0  0  0  0  0  0  0
    7.8960   53.1685  126.2991 C   0  0  0  0  0  0  0  0  0  0  0  0
    7.3246   54.4615  125.7521 C   0  0  0  0  0  0  0  0  0  0  0  0
    7.7266   55.5684  126.7287 C   0  0  0  0  0  0  0  0  0  0  0  0
    6.5477   56.3424  127.1806 C   0  0  0  0  0  0  0  0  0  0  0  0
    6.2142   57.5317  126.3843 C   0  0  0  0  0  0  0  0  0  0  0  0
    5.6084   57.3637  125.1325 N   0  0  0  0  0  0  0  0  0  0  0  0
    4.8915   58.1345  124.8549 H   0  0  0  0  0  0  0  0  0  0  0  0
    5.7393   56.3848  124.1457 C   0  0  0  0  0  0  0  0  0  0  0  0
    6.8715   56.3591  123.3559 C   0  0  0  0  0  0  0  0  0  0  0  0
    7.0204   55.3658  122.4164 C   0  0  0  0  0  0  0  0  0  0  0  0
    6.0460   54.4213  122.2822 N   0  0  0  0  0  0  0  0  0  0  0  0
    4.9324   54.4102  123.0296 C   0  0  0  0  0  0  0  0  0  0  0  0
    3.9662   53.4448  122.8776 C   0  0  0  0  0  0  0  0  0  0  0  0
    2.8387   53.4440  123.6490 C   0  0  0  0  0  0  0  0  0  0  0  0
    2.6903   54.4408  124.5908 C   0  0  0  0  0  0  0  0  0  0  0  0
    3.6355   55.4105  124.7606 C   0  0  0  0  0  0  0  0  0  0  0  0
    4.7757   55.4033  123.9734 C   0  0  0  0  0  0  0  0  0  0  0  0
    8.2164   55.3433  121.5677 C   0  0  0  0  0  0  0  0  0  0  0  0
    9.4499   55.9196  122.1704 C   0  0  0  0  0  0  0  0  0  0  0  0
    9.2574   56.5605  123.5165 C   0  0  0  0  0  0  0  0  0  0  0  0
    7.9543   57.3636  123.4897 C   0  0  0  0  0  0  0  0  0  0  0  0
  1  2  1  0  0  0
  2 27  1  0  0  0
 27 28  2  0  0  0
 27 29  1  0  0  0
 29 31  1  0  0  0
 31 32  1  0  0  0
 32 33  1  0  0  0
 33 34  1  0  0  0
 34 35  1  0  0  0
 35 36  1  0  0  0
 36 37  1  0  0  0
 37 39  1  0  0  0
 39 40  2  0  0  0
 40 41  1  0  0  0
 41 42  2  0  0  0
 42 43  1  0  0  0
 43 44  2  0  0  0
 44 45  1  0  0  0
 45 46  2  0  0  0
 46 47  1  0  0  0
 47 48  2  0  0  0
 41 49  1  0  0  0
 49 50  1  0  0  0
 50 51  1  0  0  0
 51 52  1  0  0  0
  2  3  1  0  0  0
  3  4  2  0  0  0
  4  5  1  0  0  0
  5  6  2  0  0  0
  6 10  1  0  0  0
 10 11  2  0  0  0
 11 12  1  0  0  0
 12 13  2  0  0  0
 13 16  1  0  0  0
 16 17  1  0  0  0
 17 18  1  0  0  0
 18 19  1  0  0  0
 19 20  1  0  0  0
 20 21  1  0  0  0
 21 22  1  0  0  0
 22 23  1  0  0  0
 23 24  1  0  0  0
 24 25  2  0  0  0
 24 26  1  0  0  0
 13 14  1  0  0  0
 14 15  2  0  0  0
  6  7  1  0  0  0
  7  8  1  0  0  0
  7  9  2  0  0  0
 48 39  1  0  0  0
  9  3  1  0  0  0
 52 40  1  0  0  0
 15 10  1  0  0  0
 48 43  1  0  0  0
 29 30  1  0  0  0
 37 38  1  0  0  0
M  CHG 1  24   1
M  CHG 1  26  -1
M  END
> <minimizedAffinity>
5.25231

> <CNNscore>
0.3892505765

> <CNNaffinity>
7.7737441063

> <CNN_VS>
3.0259344578

> <CNNaffinity_variance>
0.4568448961

$$$$
[H]c1c([H])c(-c2c([H])c([H])c(C([H])(C(=O)N([H])C([H])([H])C([H])([H])C([H])([H])C([H])([H])C([H])([H])C([H])([H])N([H])c3c4c(nc5c([H])c([H])c([H])c([H])c35)C([H])([H])C([H])([H])C([H])([H])C4([H])[H])C([H])([H])[H])c([H])c2F)c([H])c([H])c1OC([H])([H])C([H])([H])C([H])([H])C([H])([H])C([H])([H])C([H])([H])O[N+](=O)[O-]


 52 56  0  0  0  0  0  0  0  0999 V2000
    4.8593   50.2293  129.5580 C   0  0  0  0  0  0  0  0  0  0  0  0
    6.2665   50.3577  128.9829 C   0  0  0  0  0  0  0  0  0  0  0  0
    7.1499   49.4986  129.7949 C   0  0  0  0  0  0  0  0  0  0  0  0
    7.0808   48.1331  129.6484 C   0  0  0  0  0  0  0  0  0  0  0  0
    7.8813   47.2753  130.4043 C   0  0  0  0  0  0  0  0  0  0  0  0
    8.7501   47.8034  131.3070 C   0  0  0  0  0  0  0  0  0  0  0  0
    8.8349   49.1646  131.4692 C   0  0  0  0  0  0  0  0  0  0  0  0
    9.6905   49.7066  132.3683 F   0  0  0  0  0  0  0  0  0  0  0  0
    8.0274   50.0188  130.7060 C   0  0  0  0  0  0  0  0  0  0  0  0
    9.5988   46.9359  132.1026 C   0  0  0  0  0  0  0  0  0  0  0  0
    9.1540   46.3454  133.2641 C   0  0  0  0  0  0  0  0  0  0  0  0
    9.9911   45.5081  134.0087 C   0  0  0  0  0  0  0  0  0  0  0  0
   11.2834   45.2297  133.6348 C   0  0  0  0  0  0  0  0  0  0  0  0
   11.7232   45.8413  132.4430 C   0  0  0  0  0  0  0  0  0  0  0  0
   10.8931   46.6563  131.7270 C   0  0  0  0  0  0  0  0  0  0  0  0
   12.1682   44.4267  134.3085 O   0  0  0  0  0  0  0  0  0  0  0  0
   12.7338   43.2354  133.8625 C   0  0  0  0  0  0  0  0  0  0  0  0
   12.2876   42.9356  132.4673 C   0  0  0  0  0  0  0  0  0  0  0  0
   10.8830   42.4082  132.4643 C   0  0  0  0  0  0  0  0  0  0  0  0
   10.3294   42.3928  131.0811 C   0  0  0  0  0  0  0  0  0  0  0  0
    9.2434   43.4148  130.8617 C   0  0  0  0  0  0  0  0  0  0  0  0
    9.1346   43.7300  129.3980 C   0  0  0  0  0  0  0  0  0  0  0  0
   10.4363   43.5685  128.8070 O   0  0  0  0  0  0  0  0  0  0  0  0
   11.2298   44.6897  128.7778 N   0  0  0  0  0  0  0  0  0  0  0  0
   12.4116   44.6820  129.1696 O   0  0  0  0  0  0  0  0  0  0  0  0
   10.6391   45.8383  128.2850 O   0  0  0  0  0  0  0  0  0  0  0  0
    6.6943   51.7477  128.8392 C   0  0  0  0  0  0  0  0  0  0  0  0
    6.7456   52.5149  129.8645 O   0  0  0  0  0  0  0  0  0  0  0  0
    7.0750   52.3501  127.6183 N   0  0  0  0  0  0  0  0  0  0  0  0
    7.0500   51.7655  126.7578 H   0  0  0  0  0  0  0  0  0  0  0  0
    7.4978   53.7185  127.4940 C   0  0  0  0  0  0  0  0  0  0  0  0
    7.3211   54.2522  126.0929 C   0  0  0  0  0  0  0  0  0  0  0  0
    8.6758   54.4343  125.4378 C   0  0  0  0  0  0  0  0  0  0  0  0
    8.4216   54.5936  123.9376 C   0  0  0  0  0  0  0  0  0  0  0  0
    8.2962   56.0203  123.5610 C   0  0  0  0  0  0  0  0  0  0  0  0
    7.6717   56.8978  124.5609 C   0  0  0  0  0  0  0  0  0  0  0  0
    6.3222   57.2432  124.4141 N   0  0  0  0  0  0  0  0  0  0  0  0
    6.1113   57.9790  123.6401 H   0  0  0  0  0  0  0  0  0  0  0  0
    5.1653   56.8265  125.0753 C   0  0  0  0  0  0  0  0  0  0  0  0
    4.6839   57.5637  126.1389 C   0  0  0  0  0  0  0  0  0  0  0  0
    3.5183   57.1784  126.7587 C   0  0  0  0  0  0  0  0  0  0  0  0
    2.8565   56.0736  126.3103 N   0  0  0  0  0  0  0  0  0  0  0  0
    3.2896   55.3312  125.2806 C   0  0  0  0  0  0  0  0  0  0  0  0
    2.6024   54.2237  124.8450 C   0  0  0  0  0  0  0  0  0  0  0  0
    3.0538   53.4792  123.7922 C   0  0  0  0  0  0  0  0  0  0  0  0
    4.2231   53.8666  123.1715 C   0  0  0  0  0  0  0  0  0  0  0  0
    4.9235   54.9622  123.5856 C   0  0  0  0  0  0  0  0  0  0  0  0
    4.4581   55.7111  124.6544 C   0  0  0  0  0  0  0  0  0  0  0  0
    3.0113   57.9527  127.8965 C   0  0  0  0  0  0  0  0  0  0  0  0
    3.3520   59.4022  127.8975 C   0  0  0  0  0  0  0  0  0  0  0  0
    4.2785   59.8359  126.7960 C   0  0  0  0  0  0  0  0  0  0  0  0
    5.3738   58.7778  126.6384 C   0  0  0  0  0  0  0  0  0  0  0  0
  1  2  1  0  0  0
  2 27  1  0  0  0
 27 28  2  0  0  0
 27 29  1  0  0  0
 29 31  1  0  0  0
 31 32  1  0  0  0
 32 33  1  0  0  0
 33 34  1  0  0  0
 34 35  1  0  0  0
 35 36  1  0  0  0
 36 37  1  0  0  0
 37 39  1  0  0  0
 39 40  2  0  0  0
 40 41  1  0  0  0
 41 42  2  0  0  0
 42 43  1  0  0  0
 43 44  2  0  0  0
 44 45  1  0  0  0
 45 46  2  0  0  0
 46 47  1  0  0  0
 47 48  2  0  0  0
 41 49  1  0  0  0
 49 50  1  0  0  0
 50 51  1  0  0  0
 51 52  1  0  0  0
  2  3  1  0  0  0
  3  4  2  0  0  0
  4  5  1  0  0  0
  5  6  2  0  0  0
  6 10  1  0  0  0
 10 11  2  0  0  0
 11 12  1  0  0  0
 12 13  2  0  0  0
 13 16  1  0  0  0
 16 17  1  0  0  0
 17 18  1  0  0  0
 18 19  1  0  0  0
 19 20  1  0  0  0
 20 21  1  0  0  0
 21 22  1  0  0  0
 22 23  1  0  0  0
 23 24  1  0  0  0
 24 25  2  0  0  0
 24 26  1  0  0  0
 13 14  1  0  0  0
 14 15  2  0  0  0
  6  7  1  0  0  0
  7  8  1  0  0  0
  7  9  2  0  0  0
 48 39  1  0  0  0
  9  3  1  0  0  0
 52 40  1  0  0  0
 15 10  1  0  0  0
 48 43  1  0  0  0
 29 30  1  0  0  0
 37 38  1  0  0  0
M  CHG 1  24   1
M  CHG 1  26  -1
M  END
> <minimizedAffinity>
-6.91395

> <CNNscore>
0.3854743838

> <CNNaffinity>
8.1002035141

> <CNN_VS>
3.1224210262

> <CNNaffinity_variance>
0.2637901902

$$$$
[H]c1c([H])c(-c2c([H])c([H])c(C([H])(C(=O)N([H])C([H])([H])C([H])([H])C([H])([H])C([H])([H])C([H])([H])C([H])([H])N([H])c3c4c(nc5c([H])c([H])c([H])c([H])c35)C([H])([H])C([H])([H])C([H])([H])C4([H])[H])C([H])([H])[H])c([H])c2F)c([H])c([H])c1OC([H])([H])C([H])([H])C([H])([H])C([H])([H])C([H])([H])C([H])([H])O[N+](=O)[O-]


 52 56  0  0  0  0  0  0  0  0999 V2000
    7.5940   52.7259  130.7286 C   0  0  0  0  0  0  0  0  0  0  0  0
    7.1953   51.4863  129.9334 C   0  0  0  0  0  0  0  0  0  0  0  0
    8.0650   50.3817  130.3821 C   0  0  0  0  0  0  0  0  0  0  0  0
    8.2347   49.2860  129.5690 C   0  0  0  0  0  0  0  0  0  0  0  0
    9.0322   48.2069  129.9534 C   0  0  0  0  0  0  0  0  0  0  0  0
    9.6559   48.2409  131.1610 C   0  0  0  0  0  0  0  0  0  0  0  0
    9.4998   49.3259  131.9886 C   0  0  0  0  0  0  0  0  0  0  0  0
   10.1090   49.3729  133.1972 F   0  0  0  0  0  0  0  0  0  0  0  0
    8.6972   50.4052  131.5949 C   0  0  0  0  0  0  0  0  0  0  0  0
   10.4958   47.1357  131.5843 C   0  0  0  0  0  0  0  0  0  0  0  0
   11.2302   46.3924  130.6878 C   0  0  0  0  0  0  0  0  0  0  0  0
   12.0367   45.3361  131.1235 C   0  0  0  0  0  0  0  0  0  0  0  0
   12.1430   44.9818  132.4466 C   0  0  0  0  0  0  0  0  0  0  0  0
   11.3855   45.7531  133.3517 C   0  0  0  0  0  0  0  0  0  0  0  0
   10.6028   46.7818  132.9100 C   0  0  0  0  0  0  0  0  0  0  0  0
   12.9043   43.9602  132.9547 O   0  0  0  0  0  0  0  0  0  0  0  0
   12.5085   42.6443  133.1781 C   0  0  0  0  0  0  0  0  0  0  0  0
   11.4743   42.2333  132.1796 C   0  0  0  0  0  0  0  0  0  0  0  0
   10.1778   41.9138  132.8636 C   0  0  0  0  0  0  0  0  0  0  0  0
    9.3936   43.1562  133.1120 C   0  0  0  0  0  0  0  0  0  0  0  0
    8.2115   43.3099  132.1895 C   0  0  0  0  0  0  0  0  0  0  0  0
    8.4187   44.4988  131.2968 C   0  0  0  0  0  0  0  0  0  0  0  0
    7.1751   45.2171  131.2114 O   0  0  0  0  0  0  0  0  0  0  0  0
    6.9701   45.9350  130.0580 N   0  0  0  0  0  0  0  0  0  0  0  0
    7.7789   45.9234  129.1115 O   0  0  0  0  0  0  0  0  0  0  0  0
    5.8058   46.6783  130.0050 O   0  0  0  0  0  0  0  0  0  0  0  0
    7.1677   51.7237  128.4917 C   0  0  0  0  0  0  0  0  0  0  0  0
    7.1923   50.7357  127.6758 O   0  0  0  0  0  0  0  0  0  0  0  0
    7.1125   53.0006  127.8876 N   0  0  0  0  0  0  0  0  0  0  0  0
    7.0901   53.8338  128.5106 H   0  0  0  0  0  0  0  0  0  0  0  0
    7.0816   53.2176  126.4669 C   0  0  0  0  0  0  0  0  0  0  0  0
    7.4963   54.6189  126.0878 C   0  0  0  0  0  0  0  0  0  0  0  0
    6.3793   55.2947  125.3177 C   0  0  0  0  0  0  0  0  0  0  0  0
    5.2089   55.4554  126.2898 C   0  0  0  0  0  0  0  0  0  0  0  0
    3.9086   55.3683  125.5864 C   0  0  0  0  0  0  0  0  0  0  0  0
    2.7183   55.2711  126.4429 C   0  0  0  0  0  0  0  0  0  0  0  0
    1.8466   56.3647  126.5219 N   0  0  0  0  0  0  0  0  0  0  0  0
    0.9284   56.2710  125.9445 H   0  0  0  0  0  0  0  0  0  0  0  0
    1.9182   57.5798  127.2058 C   0  0  0  0  0  0  0  0  0  0  0  0
    0.9317   57.9114  128.1131 C   0  0  0  0  0  0  0  0  0  0  0  0
    1.0286   59.0867  128.8206 C   0  0  0  0  0  0  0  0  0  0  0  0
    2.0998   59.9048  128.6140 N   0  0  0  0  0  0  0  0  0  0  0  0
    3.0791   59.6192  127.7433 C   0  0  0  0  0  0  0  0  0  0  0  0
    4.1509   60.4587  127.5557 C   0  0  0  0  0  0  0  0  0  0  0  0
    5.1431   60.1526  126.6679 C   0  0  0  0  0  0  0  0  0  0  0  0
    5.0447   58.9736  125.9587 C   0  0  0  0  0  0  0  0  0  0  0  0
    3.9904   58.1236  126.1272 C   0  0  0  0  0  0  0  0  0  0  0  0
    2.9887   58.4426  127.0298 C   0  0  0  0  0  0  0  0  0  0  0  0
   -0.0242   59.4473  129.7761 C   0  0  0  0  0  0  0  0  0  0  0  0
   -0.7357   58.3073  130.4174 C   0  0  0  0  0  0  0  0  0  0  0  0
   -0.3586   56.9498  129.8933 C   0  0  0  0  0  0  0  0  0  0  0  0
   -0.2365   57.0345  128.3696 C   0  0  0  0  0  0  0  0  0  0  0  0
  1  2  1  0  0  0
  2 27  1  0  0  0
 27 28  2  0  0  0
 27 29  1  0  0  0
 29 31  1  0  0  0
 31 32  1  0  0  0
 32 33  1  0  0  0
 33 34  1  0  0  0
 34 35  1  0  0  0
 35 36  1  0  0  0
 36 37  1  0  0  0
 37 39  1  0  0  0
 39 40  2  0  0  0
 40 41  1  0  0  0
 41 42  2  0  0  0
 42 43  1  0  0  0
 43 44  2  0  0  0
 44 45  1  0  0  0
 45 46  2  0  0  0
 46 47  1  0  0  0
 47 48  2  0  0  0
 41 49  1  0  0  0
 49 50  1  0  0  0
 50 51  1  0  0  0
 51 52  1  0  0  0
  2  3  1  0  0  0
  3  4  2  0  0  0
  4  5  1  0  0  0
  5  6  2  0  0  0
  6 10  1  0  0  0
 10 11  2  0  0  0
 11 12  1  0  0  0
 12 13  2  0  0  0
 13 16  1  0  0  0
 16 17  1  0  0  0
 17 18  1  0  0  0
 18 19  1  0  0  0
 19 20  1  0  0  0
 20 21  1  0  0  0
 21 22  1  0  0  0
 22 23  1  0  0  0
 23 24  1  0  0  0
 24 25  2  0  0  0
 24 26  1  0  0  0
 13 14  1  0  0  0
 14 15  2  0  0  0
  6  7  1  0  0  0
  7  8  1  0  0  0
  7  9  2  0  0  0
 48 39  1  0  0  0
  9  3  1  0  0  0
 52 40  1  0  0  0
 15 10  1  0  0  0
 48 43  1  0  0  0
 29 30  1  0  0  0
 37 38  1  0  0  0
M  CHG 1  24   1
M  CHG 1  26  -1
M  END
> <minimizedAffinity>
4.13194

> <CNNscore>
0.3772993684

> <CNNaffinity>
7.3599839211

> <CNN_VS>
2.7769172192

> <CNNaffinity_variance>
0.6421695352

$$$$
[H]c1c([H])c(-c2c([H])c([H])c(C([H])(C(=O)N([H])C([H])([H])C([H])([H])C([H])([H])C([H])([H])C([H])([H])C([H])([H])N([H])c3c4c(nc5c([H])c([H])c([H])c([H])c35)C([H])([H])C([H])([H])C([H])([H])C4([H])[H])C([H])([H])[H])c([H])c2F)c([H])c([H])c1OC([H])([H])C([H])([H])C([H])([H])C([H])([H])C([H])([H])C([H])([H])O[N+](=O)[O-]


 52 56  0  0  0  0  0  0  0  0999 V2000
    4.6451   50.3038  129.8381 C   0  0  0  0  0  0  0  0  0  0  0  0
    5.8491   50.2908  128.9012 C   0  0  0  0  0  0  0  0  0  0  0  0
    6.6425   49.0899  129.2268 C   0  0  0  0  0  0  0  0  0  0  0  0
    6.0282   47.8599  129.2371 C   0  0  0  0  0  0  0  0  0  0  0  0
    6.7287   46.6954  129.5554 C   0  0  0  0  0  0  0  0  0  0  0  0
    8.0504   46.7803  129.8626 C   0  0  0  0  0  0  0  0  0  0  0  0
    8.6835   47.9991  129.8583 C   0  0  0  0  0  0  0  0  0  0  0  0
    9.9979   48.1020  130.1680 F   0  0  0  0  0  0  0  0  0  0  0  0
    7.9725   49.1635  129.5375 C   0  0  0  0  0  0  0  0  0  0  0  0
    8.8053   45.5855  130.1920 C   0  0  0  0  0  0  0  0  0  0  0  0
    9.9899   45.2743  129.5630 C   0  0  0  0  0  0  0  0  0  0  0  0
   10.7008   44.1192  129.9043 C   0  0  0  0  0  0  0  0  0  0  0  0
   10.2689   43.2409  130.8684 C   0  0  0  0  0  0  0  0  0  0  0  0
    9.0550   43.5743  131.5034 C   0  0  0  0  0  0  0  0  0  0  0  0
    8.3728   44.7065  131.1587 C   0  0  0  0  0  0  0  0  0  0  0  0
   10.9012   42.0877  131.2578 O   0  0  0  0  0  0  0  0  0  0  0  0
   11.6197   41.8749  132.4310 C   0  0  0  0  0  0  0  0  0  0  0  0
   12.7325   42.8666  132.5491 C   0  0  0  0  0  0  0  0  0  0  0  0
   12.2380   44.1442  133.1609 C   0  0  0  0  0  0  0  0  0  0  0  0
   11.4692   43.8681  134.4070 C   0  0  0  0  0  0  0  0  0  0  0  0
   10.7379   45.0751  134.9365 C   0  0  0  0  0  0  0  0  0  0  0  0
   10.2295   45.9007  133.7904 C   0  0  0  0  0  0  0  0  0  0  0  0
   10.6493   47.2611  133.9973 O   0  0  0  0  0  0  0  0  0  0  0  0
    9.8736   48.2291  133.4066 N   0  0  0  0  0  0  0  0  0  0  0  0
   10.3372   49.3252  133.0406 O   0  0  0  0  0  0  0  0  0  0  0  0
    8.5373   47.9172  133.2391 O   0  0  0  0  0  0  0  0  0  0  0  0
    6.5835   51.5543  128.9062 C   0  0  0  0  0  0  0  0  0  0  0  0
    7.0142   52.0444  130.0092 O   0  0  0  0  0  0  0  0  0  0  0  0
    6.8766   52.3190  127.7539 N   0  0  0  0  0  0  0  0  0  0  0  0
    6.5474   51.9602  126.8343 H   0  0  0  0  0  0  0  0  0  0  0  0
    7.6043   53.5586  127.7749 C   0  0  0  0  0  0  0  0  0  0  0  0
    7.3610   54.3917  126.5396 C   0  0  0  0  0  0  0  0  0  0  0  0
    8.6341   54.4822  125.7219 C   0  0  0  0  0  0  0  0  0  0  0  0
    8.2272   54.3275  124.2552 C   0  0  0  0  0  0  0  0  0  0  0  0
    8.0735   55.6451  123.5970 C   0  0  0  0  0  0  0  0  0  0  0  0
    7.6649   56.7562  124.4677 C   0  0  0  0  0  0  0  0  0  0  0  0
    6.3412   57.2113  124.4131 N   0  0  0  0  0  0  0  0  0  0  0  0
    6.1598   58.0344  123.7241 H   0  0  0  0  0  0  0  0  0  0  0  0
    5.1801   56.8152  125.0795 C   0  0  0  0  0  0  0  0  0  0  0  0
    4.7111   57.5664  126.1387 C   0  0  0  0  0  0  0  0  0  0  0  0
    3.5415   57.2015  126.7635 C   0  0  0  0  0  0  0  0  0  0  0  0
    2.8638   56.1028  126.3242 N   0  0  0  0  0  0  0  0  0  0  0  0
    3.2846   55.3472  125.2990 C   0  0  0  0  0  0  0  0  0  0  0  0
    2.5813   54.2462  124.8725 C   0  0  0  0  0  0  0  0  0  0  0  0
    3.0203   53.4882  123.8242 C   0  0  0  0  0  0  0  0  0  0  0  0
    4.1936   53.8551  123.1985 C   0  0  0  0  0  0  0  0  0  0  0  0
    4.9098   54.9439  123.6035 C   0  0  0  0  0  0  0  0  0  0  0  0
    4.4568   55.7066  124.6678 C   0  0  0  0  0  0  0  0  0  0  0  0
    3.0474   57.9907  127.8968 C   0  0  0  0  0  0  0  0  0  0  0  0
    3.4080   59.4354  127.8868 C   0  0  0  0  0  0  0  0  0  0  0  0
    4.3382   59.8485  126.7805 C   0  0  0  0  0  0  0  0  0  0  0  0
    5.4185   58.7745  126.6283 C   0  0  0  0  0  0  0  0  0  0  0  0
  1  2  1  0  0  0
  2 27  1  0  0  0
 27 28  2  0  0  0
 27 29  1  0  0  0
 29 31  1  0  0  0
 31 32  1  0  0  0
 32 33  1  0  0  0
 33 34  1  0  0  0
 34 35  1  0  0  0
 35 36  1  0  0  0
 36 37  1  0  0  0
 37 39  1  0  0  0
 39 40  2  0  0  0
 40 41  1  0  0  0
 41 42  2  0  0  0
 42 43  1  0  0  0
 43 44  2  0  0  0
 44 45  1  0  0  0
 45 46  2  0  0  0
 46 47  1  0  0  0
 47 48  2  0  0  0
 41 49  1  0  0  0
 49 50  1  0  0  0
 50 51  1  0  0  0
 51 52  1  0  0  0
  2  3  1  0  0  0
  3  4  2  0  0  0
  4  5  1  0  0  0
  5  6  2  0  0  0
  6 10  1  0  0  0
 10 11  2  0  0  0
 11 12  1  0  0  0
 12 13  2  0  0  0
 13 16  1  0  0  0
 16 17  1  0  0  0
 17 18  1  0  0  0
 18 19  1  0  0  0
 19 20  1  0  0  0
 20 21  1  0  0  0
 21 22  1  0  0  0
 22 23  1  0  0  0
 23 24  1  0  0  0
 24 25  2  0  0  0
 24 26  1  0  0  0
 13 14  1  0  0  0
 14 15  2  0  0  0
  6  7  1  0  0  0
  7  8  1  0  0  0
  7  9  2  0  0  0
 48 39  1  0  0  0
  9  3  1  0  0  0
 52 40  1  0  0  0
 15 10  1  0  0  0
 48 43  1  0  0  0
 29 30  1  0  0  0
 37 38  1  0  0  0
M  CHG 1  24   1
M  CHG 1  26  -1
M  END
> <minimizedAffinity>
-5.87371

> <CNNscore>
0.3392839134

> <CNNaffinity>
7.8525595665

> <CNN_VS>
2.6642470360

> <CNNaffinity_variance>
0.2660430670

$$$$
[H]c1c([H])c(-c2c([H])c([H])c(C([H])(C(=O)N([H])C([H])([H])C([H])([H])C([H])([H])C([H])([H])C([H])([H])C([H])([H])N([H])c3c4c(nc5c([H])c([H])c([H])c([H])c35)C([H])([H])C([H])([H])C([H])([H])C4([H])[H])C([H])([H])[H])c([H])c2F)c([H])c([H])c1OC([H])([H])C([H])([H])C([H])([H])C([H])([H])C([H])([H])C([H])([H])O[N+](=O)[O-]


 52 56  0  0  0  0  0  0  0  0999 V2000
    5.1015   49.3360  128.5433 C   0  0  0  0  0  0  0  0  0  0  0  0
    6.5609   49.7806  128.5396 C   0  0  0  0  0  0  0  0  0  0  0  0
    7.2646   48.9764  129.5574 C   0  0  0  0  0  0  0  0  0  0  0  0
    6.8068   47.7137  129.8519 C   0  0  0  0  0  0  0  0  0  0  0  0
    7.4251   46.9188  130.8183 C   0  0  0  0  0  0  0  0  0  0  0  0
    8.5061   47.4056  131.4840 C   0  0  0  0  0  0  0  0  0  0  0  0
    8.9796   48.6643  131.2053 C   0  0  0  0  0  0  0  0  0  0  0  0
   10.0513   49.1666  131.8635 F   0  0  0  0  0  0  0  0  0  0  0  0
    8.3527   49.4559  130.2334 C   0  0  0  0  0  0  0  0  0  0  0  0
    9.1725   46.5992  132.4899 C   0  0  0  0  0  0  0  0  0  0  0  0
   10.1206   47.1268  133.3374 C   0  0  0  0  0  0  0  0  0  0  0  0
   10.7430   46.3285  134.3025 C   0  0  0  0  0  0  0  0  0  0  0  0
   10.4530   44.9949  134.4603 C   0  0  0  0  0  0  0  0  0  0  0  0
    9.4798   44.4703  133.5855 C   0  0  0  0  0  0  0  0  0  0  0  0
    8.8808   45.2635  132.6484 C   0  0  0  0  0  0  0  0  0  0  0  0
   11.0194   44.1439  135.3749 O   0  0  0  0  0  0  0  0  0  0  0  0
   12.1902   43.4053  135.2273 C   0  0  0  0  0  0  0  0  0  0  0  0
   13.0136   43.9508  134.1048 C   0  0  0  0  0  0  0  0  0  0  0  0
   12.6414   43.2927  132.8089 C   0  0  0  0  0  0  0  0  0  0  0  0
   12.2325   44.3102  131.8002 C   0  0  0  0  0  0  0  0  0  0  0  0
   12.8925   44.1190  130.4586 C   0  0  0  0  0  0  0  0  0  0  0  0
   11.8619   44.2105  129.3710 C   0  0  0  0  0  0  0  0  0  0  0  0
   10.5609   44.1124  129.9772 O   0  0  0  0  0  0  0  0  0  0  0  0
    9.5709   43.5650  129.1975 N   0  0  0  0  0  0  0  0  0  0  0  0
    8.3686   43.6058  129.5185 O   0  0  0  0  0  0  0  0  0  0  0  0
    9.9861   42.9603  128.0257 O   0  0  0  0  0  0  0  0  0  0  0  0
    6.7115   51.2290  128.6632 C   0  0  0  0  0  0  0  0  0  0  0  0
    6.5039   51.8041  129.7894 O   0  0  0  0  0  0  0  0  0  0  0  0
    7.0831   52.0921  127.6071 N   0  0  0  0  0  0  0  0  0  0  0  0
    7.2630   51.6700  126.6732 H   0  0  0  0  0  0  0  0  0  0  0  0
    7.2313   53.5153  127.7458 C   0  0  0  0  0  0  0  0  0  0  0  0
    6.8066   54.2634  126.5051 C   0  0  0  0  0  0  0  0  0  0  0  0
    5.3299   54.5959  126.5858 C   0  0  0  0  0  0  0  0  0  0  0  0
    4.6837   54.0414  125.3148 C   0  0  0  0  0  0  0  0  0  0  0  0
    3.4157   54.7411  125.0059 C   0  0  0  0  0  0  0  0  0  0  0  0
    3.4384   55.6279  123.8342 C   0  0  0  0  0  0  0  0  0  0  0  0
    4.2563   56.7649  123.8580 N   0  0  0  0  0  0  0  0  0  0  0  0
    4.2424   57.3675  122.9515 H   0  0  0  0  0  0  0  0  0  0  0  0
    5.1068   57.2940  124.8305 C   0  0  0  0  0  0  0  0  0  0  0  0
    4.5928   58.1199  125.8104 C   0  0  0  0  0  0  0  0  0  0  0  0
    5.4231   58.6020  126.7950 C   0  0  0  0  0  0  0  0  0  0  0  0
    6.7416   58.2542  126.7870 N   0  0  0  0  0  0  0  0  0  0  0  0
    7.2798   57.4544  125.8544 C   0  0  0  0  0  0  0  0  0  0  0  0
    8.6115   57.1154  125.8702 C   0  0  0  0  0  0  0  0  0  0  0  0
    9.1449   56.2964  124.9157 C   0  0  0  0  0  0  0  0  0  0  0  0
    8.3112   55.8137  123.9285 C   0  0  0  0  0  0  0  0  0  0  0  0
    6.9856   56.1360  123.8913 C   0  0  0  0  0  0  0  0  0  0  0  0
    6.4535   56.9675  124.8635 C   0  0  0  0  0  0  0  0  0  0  0  0
    4.8822   59.4894  127.8301 C   0  0  0  0  0  0  0  0  0  0  0  0
    3.4459   59.2904  128.1687 C   0  0  0  0  0  0  0  0  0  0  0  0
    2.7239   58.2935  127.3057 C   0  0  0  0  0  0  0  0  0  0  0  0
    3.1606   58.5027  125.8533 C   0  0  0  0  0  0  0  0  0  0  0  0
  1  2  1  0  0  0
  2 27  1  0  0  0
 27 28  2  0  0  0
 27 29  1  0  0  0
 29 31  1  0  0  0
 31 32  1  0  0  0
 32 33  1  0  0  0
 33 34  1  0  0  0
 34 35  1  0  0  0
 35 36  1  0  0  0
 36 37  1  0  0  0
 37 39  1  0  0  0
 39 40  2  0  0  0
 40 41  1  0  0  0
 41 42  2  0  0  0
 42 43  1  0  0  0
 43 44  2  0  0  0
 44 45  1  0  0  0
 45 46  2  0  0  0
 46 47  1  0  0  0
 47 48  2  0  0  0
 41 49  1  0  0  0
 49 50  1  0  0  0
 50 51  1  0  0  0
 51 52  1  0  0  0
  2  3  1  0  0  0
  3  4  2  0  0  0
  4  5  1  0  0  0
  5  6  2  0  0  0
  6 10  1  0  0  0
 10 11  2  0  0  0
 11 12  1  0  0  0
 12 13  2  0  0  0
 13 16  1  0  0  0
 16 17  1  0  0  0
 17 18  1  0  0  0
 18 19  1  0  0  0
 19 20  1  0  0  0
 20 21  1  0  0  0
 21 22  1  0  0  0
 22 23  1  0  0  0
 23 24  1  0  0  0
 24 25  2  0  0  0
 24 26  1  0  0  0
 13 14  1  0  0  0
 14 15  2  0  0  0
  6  7  1  0  0  0
  7  8  1  0  0  0
  7  9  2  0  0  0
 48 39  1  0  0  0
  9  3  1  0  0  0
 52 40  1  0  0  0
 15 10  1  0  0  0
 48 43  1  0  0  0
 29 30  1  0  0  0
 37 38  1  0  0  0
M  CHG 1  24   1
M  CHG 1  26  -1
M  END
> <minimizedAffinity>
-1.57150

> <CNNscore>
0.3126932085

> <CNNaffinity>
7.9680891037

> <CNN_VS>
2.4915673733

> <CNNaffinity_variance>
0.1613576114

$$$$
[H]OC(=O)[C@@]([H])(N([H])[H])C([H])([H])OP(=O)(O[H])O[C@]1([H])C([H])([H])C([H])([H])C([H])([H])O[C@]1([H])C([H])([H])OC(=O)C([H])([H])C([H])([H])c1c([H])c([H])c([H])c([H])c1OC([H])([H])c1c([H])c([H])c([H])c(Oc2c([H])c([H])c(C([H])([H])[H])c([H])c2[H])c1[H]


 49 52  0  0  0  0  0  0  0  0999 V2000
    7.0587   52.2088  128.4571 C   0  0  0  0  0  0  0  0  0  0  0  0
    6.6334   52.9295  129.3748 O   0  0  0  0  0  0  0  0  0  0  0  0
    7.1937   52.8031  127.1798 O   0  0  0  0  0  0  0  0  0  0  0  0
    7.4966   54.1062  126.9408 C   0  0  0  0  0  0  0  0  0  0  0  0
    8.0532   54.5020  125.6066 C   0  0  0  0  0  0  0  0  0  0  0  0
    7.8360   53.5771  124.6198 O   0  0  0  0  0  0  0  0  0  0  0  0
    7.6266   54.0686  123.3555 C   0  0  0  0  0  0  0  0  0  0  0  0
    8.3942   55.3024  123.0013 C   0  0  0  0  0  0  0  0  0  0  0  0
    8.4300   56.3374  124.0691 C   0  0  0  0  0  0  0  0  0  0  0  0
    7.5345   55.8907  125.2114 C   0  0  0  0  0  0  0  0  0  0  0  0
    6.2092   55.9245  124.8953 O   0  0  0  0  0  0  0  0  0  0  0  0
    5.2796   57.0188  125.7433 P   0  0  0  0  0  0  0  0  0  0  0  0
    6.0109   57.7725  126.8043 O   0  0  0  0  0  0  0  0  0  0  0  0
    4.6000   58.1960  124.7010 O   0  0  0  0  0  0  0  0  0  0  0  0
    3.7455   57.8767  124.3729 H   0  0  0  0  0  0  0  0  0  0  0  0
    3.9578   56.1614  126.3952 O   0  0  0  0  0  0  0  0  0  0  0  0
    3.0465   55.7770  125.4153 C   0  0  0  0  0  0  0  0  0  0  0  0
    3.0370   54.2562  125.4247 C   0  0  0  0  0  0  0  0  0  0  0  0
    2.8016   53.8011  124.0836 N   0  0  0  0  0  0  0  0  0  0  0  0
    3.6448   53.7845  123.5059 H   0  0  0  0  0  0  0  0  0  0  0  0
    2.1792   52.9861  124.0089 H   0  0  0  0  0  0  0  0  0  0  0  0
    2.1300   53.6815  126.4224 C   0  0  0  0  0  0  0  0  0  0  0  0
    1.2430   54.3720  126.9696 O   0  0  0  0  0  0  0  0  0  0  0  0
    2.2416   52.3515  126.7798 O   0  0  0  0  0  0  0  0  0  0  0  0
    2.0531   51.5607  126.2105 H   0  0  0  0  0  0  0  0  0  0  0  0
    7.4153   50.8027  128.6148 C   0  0  0  0  0  0  0  0  0  0  0  0
    7.0346   50.0832  129.8417 C   0  0  0  0  0  0  0  0  0  0  0  0
    8.7134   48.2024  130.0471 C   0  0  0  0  0  0  0  0  0  0  0  0
    9.7917   47.6821  130.7096 C   0  0  0  0  0  0  0  0  0  0  0  0
   10.3129   48.2562  131.8765 C   0  0  0  0  0  0  0  0  0  0  0  0
    9.6993   49.3880  132.3562 C   0  0  0  0  0  0  0  0  0  0  0  0
    8.6208   49.9306  131.7106 C   0  0  0  0  0  0  0  0  0  0  0  0
    8.1172   49.3548  130.5581 C   0  0  0  0  0  0  0  0  0  0  0  0
    8.2199   47.6210  128.9314 O   0  0  0  0  0  0  0  0  0  0  0  0
    7.6253   46.4155  128.6773 C   0  0  0  0  0  0  0  0  0  0  0  0
    9.2916   43.7773  130.8287 C   0  0  0  0  0  0  0  0  0  0  0  0
    9.8661   42.9274  129.8800 C   0  0  0  0  0  0  0  0  0  0  0  0
    9.6787   43.2689  128.5630 C   0  0  0  0  0  0  0  0  0  0  0  0
    8.9660   44.3835  128.1890 C   0  0  0  0  0  0  0  0  0  0  0  0
    8.4047   45.2106  129.1496 C   0  0  0  0  0  0  0  0  0  0  0  0
    8.5780   44.8919  130.4638 C   0  0  0  0  0  0  0  0  0  0  0  0
    9.4924   43.4239  132.1528 O   0  0  0  0  0  0  0  0  0  0  0  0
    9.7844   47.0179  136.4467 C   0  0  0  0  0  0  0  0  0  0  0  0
    9.7143   46.0672  135.3195 C   0  0  0  0  0  0  0  0  0  0  0  0
   10.8265   45.3065  134.9846 C   0  0  0  0  0  0  0  0  0  0  0  0
   10.7252   44.4218  133.9139 C   0  0  0  0  0  0  0  0  0  0  0  0
    9.5672   44.2888  133.1928 C   0  0  0  0  0  0  0  0  0  0  0  0
    8.4643   45.0646  133.5500 C   0  0  0  0  0  0  0  0  0  0  0  0
    8.5270   45.9476  134.6010 C   0  0  0  0  0  0  0  0  0  0  0  0
 43 44  1  0  0  0
 44 45  2  0  0  0
 45 46  1  0  0  0
 46 47  2  0  0  0
 47 42  1  0  0  0
 42 36  1  0  0  0
 36 37  2  0  0  0
 37 38  1  0  0  0
 38 39  2  0  0  0
 39 40  1  0  0  0
 40 35  1  0  0  0
 35 34  1  0  0  0
 34 28  1  0  0  0
 28 29  2  0  0  0
 29 30  1  0  0  0
 30 31  2  0  0  0
 31 32  1  0  0  0
 32 33  2  0  0  0
 33 27  1  0  0  0
 27 26  1  0  0  0
 26  1  1  0  0  0
  1  2  2  0  0  0
  1  3  1  0  0  0
  3  4  1  0  0  0
  4  5  1  0  0  0
  5  6  1  0  0  0
  6  7  1  0  0  0
  7  8  1  0  0  0
  8  9  1  0  0  0
  9 10  1  0  0  0
 10 11  1  0  0  0
 11 12  1  0  0  0
 12 13  2  0  0  0
 12 14  1  0  0  0
 12 16  1  0  0  0
 16 17  1  0  0  0
 17 18  1  0  0  0
 18 19  1  0  0  0
 18 22  1  0  0  0
 22 23  2  0  0  0
 22 24  1  0  0  0
 40 41  2  0  0  0
 47 48  1  0  0  0
 48 49  2  0  0  0
 49 44  1  0  0  0
 41 36  1  0  0  0
 33 28  1  0  0  0
 10  5  1  0  0  0
 14 15  1  0  0  0
 19 20  1  0  0  0
 19 21  1  0  0  0
 24 25  1  0  0  0
M  END
> <minimizedAffinity>
-6.78587

> <CNNscore>
0.5837859511

> <CNNaffinity>
7.4050459862

> <CNN_VS>
4.3229618073

> <CNNaffinity_variance>
0.3746023774

$$$$
[H]OC(=O)[C@@]([H])(N([H])[H])C([H])([H])OP(=O)(O[H])O[C@]1([H])C([H])([H])C([H])([H])C([H])([H])O[C@]1([H])C([H])([H])OC(=O)C([H])([H])C([H])([H])c1c([H])c([H])c([H])c([H])c1OC([H])([H])c1c([H])c([H])c([H])c(Oc2c([H])c([H])c(C([H])([H])[H])c([H])c2[H])c1[H]


 49 52  0  0  0  0  0  0  0  0999 V2000
    7.1030   52.5675  128.1964 C   0  0  0  0  0  0  0  0  0  0  0  0
    6.8796   53.3945  129.0957 O   0  0  0  0  0  0  0  0  0  0  0  0
    7.2774   53.0715  126.8855 O   0  0  0  0  0  0  0  0  0  0  0  0
    7.6160   54.3483  126.5664 C   0  0  0  0  0  0  0  0  0  0  0  0
    8.1040   54.6592  125.1838 C   0  0  0  0  0  0  0  0  0  0  0  0
    8.1241   53.5749  124.3471 O   0  0  0  0  0  0  0  0  0  0  0  0
    7.8425   53.8162  123.0256 C   0  0  0  0  0  0  0  0  0  0  0  0
    8.3241   55.1253  122.4859 C   0  0  0  0  0  0  0  0  0  0  0  0
    8.1005   56.2868  123.3879 C   0  0  0  0  0  0  0  0  0  0  0  0
    7.2986   55.8227  124.5911 C   0  0  0  0  0  0  0  0  0  0  0  0
    6.0076   55.5113  124.2842 O   0  0  0  0  0  0  0  0  0  0  0  0
    4.8403   56.5325  124.8967 P   0  0  0  0  0  0  0  0  0  0  0  0
    5.3363   57.8824  125.2968 O   0  0  0  0  0  0  0  0  0  0  0  0
    3.5889   56.7996  123.7579 O   0  0  0  0  0  0  0  0  0  0  0  0
    2.9076   56.1186  123.8668 H   0  0  0  0  0  0  0  0  0  0  0  0
    4.1057   55.7308  126.2101 O   0  0  0  0  0  0  0  0  0  0  0  0
    2.7561   55.4763  125.9816 C   0  0  0  0  0  0  0  0  0  0  0  0
    2.6410   53.9734  125.7791 C   0  0  0  0  0  0  0  0  0  0  0  0
    2.6105   53.7123  124.3677 N   0  0  0  0  0  0  0  0  0  0  0  0
    3.5377   53.6914  123.9378 H   0  0  0  0  0  0  0  0  0  0  0  0
    1.9561   52.9728  124.0810 H   0  0  0  0  0  0  0  0  0  0  0  0
    1.5379   53.3635  126.5272 C   0  0  0  0  0  0  0  0  0  0  0  0
    0.9149   54.0015  127.4033 O   0  0  0  0  0  0  0  0  0  0  0  0
    1.1640   52.0577  126.2743 O   0  0  0  0  0  0  0  0  0  0  0  0
    0.7459   51.7042  125.4465 H   0  0  0  0  0  0  0  0  0  0  0  0
    7.1876   51.1264  128.4081 C   0  0  0  0  0  0  0  0  0  0  0  0
    7.0583   50.5765  129.7678 C   0  0  0  0  0  0  0  0  0  0  0  0
    8.1852   48.5665  130.8107 C   0  0  0  0  0  0  0  0  0  0  0  0
    8.2006   47.2091  130.9826 C   0  0  0  0  0  0  0  0  0  0  0  0
    7.3294   46.3494  130.3008 C   0  0  0  0  0  0  0  0  0  0  0  0
    6.4312   46.9161  129.4292 C   0  0  0  0  0  0  0  0  0  0  0  0
    6.3930   48.2716  129.2412 C   0  0  0  0  0  0  0  0  0  0  0  0
    7.2577   49.1094  129.9222 C   0  0  0  0  0  0  0  0  0  0  0  0
    9.0467   49.3732  131.4691 O   0  0  0  0  0  0  0  0  0  0  0  0
    9.6369   49.3207  132.7020 C   0  0  0  0  0  0  0  0  0  0  0  0
   10.5006   45.6600  133.1693 C   0  0  0  0  0  0  0  0  0  0  0  0
   10.0411   45.4002  134.4631 C   0  0  0  0  0  0  0  0  0  0  0  0
    9.4592   46.4530  135.1260 C   0  0  0  0  0  0  0  0  0  0  0  0
    9.3319   47.6977  134.5561 C   0  0  0  0  0  0  0  0  0  0  0  0
    9.7969   47.9304  133.2711 C   0  0  0  0  0  0  0  0  0  0  0  0
   10.3780   46.9001  132.5932 C   0  0  0  0  0  0  0  0  0  0  0  0
   11.0808   44.5885  132.5107 O   0  0  0  0  0  0  0  0  0  0  0  0
    9.8137   42.8873  127.3204 C   0  0  0  0  0  0  0  0  0  0  0  0
   10.1518   43.3419  128.6836 C   0  0  0  0  0  0  0  0  0  0  0  0
   11.2520   44.1642  128.8867 C   0  0  0  0  0  0  0  0  0  0  0  0
   11.5428   44.5716  130.1862 C   0  0  0  0  0  0  0  0  0  0  0  0
   10.7772   44.1824  131.2544 C   0  0  0  0  0  0  0  0  0  0  0  0
    9.6774   43.3563  131.0231 C   0  0  0  0  0  0  0  0  0  0  0  0
    9.3594   42.9349  129.7543 C   0  0  0  0  0  0  0  0  0  0  0  0
 43 44  1  0  0  0
 44 45  2  0  0  0
 45 46  1  0  0  0
 46 47  2  0  0  0
 47 42  1  0  0  0
 42 36  1  0  0  0
 36 37  2  0  0  0
 37 38  1  0  0  0
 38 39  2  0  0  0
 39 40  1  0  0  0
 40 35  1  0  0  0
 35 34  1  0  0  0
 34 28  1  0  0  0
 28 29  2  0  0  0
 29 30  1  0  0  0
 30 31  2  0  0  0
 31 32  1  0  0  0
 32 33  2  0  0  0
 33 27  1  0  0  0
 27 26  1  0  0  0
 26  1  1  0  0  0
  1  2  2  0  0  0
  1  3  1  0  0  0
  3  4  1  0  0  0
  4  5  1  0  0  0
  5  6  1  0  0  0
  6  7  1  0  0  0
  7  8  1  0  0  0
  8  9  1  0  0  0
  9 10  1  0  0  0
 10 11  1  0  0  0
 11 12  1  0  0  0
 12 13  2  0  0  0
 12 14  1  0  0  0
 12 16  1  0  0  0
 16 17  1  0  0  0
 17 18  1  0  0  0
 18 19  1  0  0  0
 18 22  1  0  0  0
 22 23  2  0  0  0
 22 24  1  0  0  0
 40 41  2  0  0  0
 47 48  1  0  0  0
 48 49  2  0  0  0
 49 44  1  0  0  0
 41 36  1  0  0  0
 33 28  1  0  0  0
 10  5  1  0  0  0
 14 15  1  0  0  0
 19 20  1  0  0  0
 19 21  1  0  0  0
 24 25  1  0  0  0
M  END
> <minimizedAffinity>
-8.82308

> <CNNscore>
0.5587770939

> <CNNaffinity>
7.3810982704

> <CNN_VS>
4.1243886948

> <CNNaffinity_variance>
0.2720403373

$$$$
[H]OC(=O)[C@@]([H])(N([H])[H])C([H])([H])OP(=O)(O[H])O[C@]1([H])C([H])([H])C([H])([H])C([H])([H])O[C@]1([H])C([H])([H])OC(=O)C([H])([H])C([H])([H])c1c([H])c([H])c([H])c([H])c1OC([H])([H])c1c([H])c([H])c([H])c(Oc2c([H])c([H])c(C([H])([H])[H])c([H])c2[H])c1[H]


 49 52  0  0  0  0  0  0  0  0999 V2000
    6.8620   51.7864  129.0233 C   0  0  0  0  0  0  0  0  0  0  0  0
    6.9513   52.2723  130.1628 O   0  0  0  0  0  0  0  0  0  0  0  0
    6.5430   52.6729  127.9673 O   0  0  0  0  0  0  0  0  0  0  0  0
    7.4356   53.2486  127.1196 C   0  0  0  0  0  0  0  0  0  0  0  0
    7.5754   54.7407  127.0967 C   0  0  0  0  0  0  0  0  0  0  0  0
    8.6805   55.1827  126.4187 O   0  0  0  0  0  0  0  0  0  0  0  0
    8.5481   56.3673  125.7383 C   0  0  0  0  0  0  0  0  0  0  0  0
    7.6645   57.3903  126.3784 C   0  0  0  0  0  0  0  0  0  0  0  0
    6.3945   56.8510  126.9341 C   0  0  0  0  0  0  0  0  0  0  0  0
    6.2864   55.3816  126.5663 C   0  0  0  0  0  0  0  0  0  0  0  0
    6.0661   55.1790  125.2366 O   0  0  0  0  0  0  0  0  0  0  0  0
    4.4981   55.3933  124.7108 P   0  0  0  0  0  0  0  0  0  0  0  0
    3.4503   54.8669  125.6346 O   0  0  0  0  0  0  0  0  0  0  0  0
    4.1423   57.0526  124.4779 O   0  0  0  0  0  0  0  0  0  0  0  0
    4.3745   57.3046  123.5711 H   0  0  0  0  0  0  0  0  0  0  0  0
    4.3791   54.6749  123.1692 O   0  0  0  0  0  0  0  0  0  0  0  0
    5.3688   53.7187  122.9576 C   0  0  0  0  0  0  0  0  0  0  0  0
    6.5152   54.4460  122.2723 C   0  0  0  0  0  0  0  0  0  0  0  0
    6.4387   54.1773  120.8642 N   0  0  0  0  0  0  0  0  0  0  0  0
    5.7737   54.7770  120.3712 H   0  0  0  0  0  0  0  0  0  0  0  0
    7.3462   54.0257  120.4052 H   0  0  0  0  0  0  0  0  0  0  0  0
    7.8256   54.1675  122.8671 C   0  0  0  0  0  0  0  0  0  0  0  0
    8.0113   53.1662  123.5922 O   0  0  0  0  0  0  0  0  0  0  0  0
    8.8900   55.0171  122.6344 O   0  0  0  0  0  0  0  0  0  0  0  0
    9.3575   55.1689  121.7722 H   0  0  0  0  0  0  0  0  0  0  0  0
    7.0568   50.3736  128.7151 C   0  0  0  0  0  0  0  0  0  0  0  0
    8.3466   49.7293  129.0137 C   0  0  0  0  0  0  0  0  0  0  0  0
    8.0096   48.0759  130.8981 C   0  0  0  0  0  0  0  0  0  0  0  0
    8.3710   47.6610  132.1509 C   0  0  0  0  0  0  0  0  0  0  0  0
    9.2608   48.3801  132.9596 C   0  0  0  0  0  0  0  0  0  0  0  0
    9.7790   49.5469  132.4520 C   0  0  0  0  0  0  0  0  0  0  0  0
    9.4361   49.9827  131.2003 C   0  0  0  0  0  0  0  0  0  0  0  0
    8.5578   49.2621  130.4113 C   0  0  0  0  0  0  0  0  0  0  0  0
    7.1372   47.3719  130.1434 O   0  0  0  0  0  0  0  0  0  0  0  0
    7.2611   46.2879  129.3182 C   0  0  0  0  0  0  0  0  0  0  0  0
   10.4723   44.3298  129.7864 C   0  0  0  0  0  0  0  0  0  0  0  0
   11.2966   44.8506  128.7855 C   0  0  0  0  0  0  0  0  0  0  0  0
   10.7514   45.8349  127.9978 C   0  0  0  0  0  0  0  0  0  0  0  0
    9.4660   46.2887  128.1766 C   0  0  0  0  0  0  0  0  0  0  0  0
    8.6676   45.7550  129.1763 C   0  0  0  0  0  0  0  0  0  0  0  0
    9.1875   44.7769  129.9712 C   0  0  0  0  0  0  0  0  0  0  0  0
   11.0362   43.3416  130.5762 O   0  0  0  0  0  0  0  0  0  0  0  0
   11.4803   43.5228  136.1628 C   0  0  0  0  0  0  0  0  0  0  0  0
   11.3720   43.4760  134.6912 C   0  0  0  0  0  0  0  0  0  0  0  0
   12.3860   44.0062  133.9048 C   0  0  0  0  0  0  0  0  0  0  0  0
   12.2492   43.9471  132.5202 C   0  0  0  0  0  0  0  0  0  0  0  0
   11.1495   43.3853  131.9255 C   0  0  0  0  0  0  0  0  0  0  0  0
   10.1452   42.8597  132.7384 C   0  0  0  0  0  0  0  0  0  0  0  0
   10.2461   42.8996  134.1082 C   0  0  0  0  0  0  0  0  0  0  0  0
 43 44  1  0  0  0
 44 45  2  0  0  0
 45 46  1  0  0  0
 46 47  2  0  0  0
 47 42  1  0  0  0
 42 36  1  0  0  0
 36 37  2  0  0  0
 37 38  1  0  0  0
 38 39  2  0  0  0
 39 40  1  0  0  0
 40 35  1  0  0  0
 35 34  1  0  0  0
 34 28  1  0  0  0
 28 29  2  0  0  0
 29 30  1  0  0  0
 30 31  2  0  0  0
 31 32  1  0  0  0
 32 33  2  0  0  0
 33 27  1  0  0  0
 27 26  1  0  0  0
 26  1  1  0  0  0
  1  2  2  0  0  0
  1  3  1  0  0  0
  3  4  1  0  0  0
  4  5  1  0  0  0
  5  6  1  0  0  0
  6  7  1  0  0  0
  7  8  1  0  0  0
  8  9  1  0  0  0
  9 10  1  0  0  0
 10 11  1  0  0  0
 11 12  1  0  0  0
 12 13  2  0  0  0
 12 14  1  0  0  0
 12 16  1  0  0  0
 16 17  1  0  0  0
 17 18  1  0  0  0
 18 19  1  0  0  0
 18 22  1  0  0  0
 22 23  2  0  0  0
 22 24  1  0  0  0
 40 41  2  0  0  0
 47 48  1  0  0  0
 48 49  2  0  0  0
 49 44  1  0  0  0
 41 36  1  0  0  0
 33 28  1  0  0  0
 10  5  1  0  0  0
 14 15  1  0  0  0
 19 20  1  0  0  0
 19 21  1  0  0  0
 24 25  1  0  0  0
M  END
> <minimizedAffinity>
-3.92444

> <CNNscore>
0.5113462210

> <CNNaffinity>
7.2112894058

> <CNN_VS>
3.6874656677

> <CNNaffinity_variance>
0.8983280063

$$$$
[H]OC(=O)[C@@]([H])(N([H])[H])C([H])([H])OP(=O)(O[H])O[C@]1([H])C([H])([H])C([H])([H])C([H])([H])O[C@]1([H])C([H])([H])OC(=O)C([H])([H])C([H])([H])c1c([H])c([H])c([H])c([H])c1OC([H])([H])c1c([H])c([H])c([H])c(Oc2c([H])c([H])c(C([H])([H])[H])c([H])c2[H])c1[H]


 49 52  0  0  0  0  0  0  0  0999 V2000
    6.8280   52.0407  128.9780 C   0  0  0  0  0  0  0  0  0  0  0  0
    6.6887   52.4664  130.1364 O   0  0  0  0  0  0  0  0  0  0  0  0
    6.6183   52.9606  127.9231 O   0  0  0  0  0  0  0  0  0  0  0  0
    7.3961   53.0866  126.8159 C   0  0  0  0  0  0  0  0  0  0  0  0
    8.0523   54.4013  126.5203 C   0  0  0  0  0  0  0  0  0  0  0  0
    8.8849   54.3723  125.4331 O   0  0  0  0  0  0  0  0  0  0  0  0
    8.9427   55.5154  124.6756 C   0  0  0  0  0  0  0  0  0  0  0  0
    8.8196   56.8020  125.4284 C   0  0  0  0  0  0  0  0  0  0  0  0
    7.7644   56.8075  126.4767 C   0  0  0  0  0  0  0  0  0  0  0  0
    6.9914   55.5027  126.3975 C   0  0  0  0  0  0  0  0  0  0  0  0
    6.2140   55.4097  125.2818 O   0  0  0  0  0  0  0  0  0  0  0  0
    4.8322   56.3431  125.2695 P   0  0  0  0  0  0  0  0  0  0  0  0
    4.1381   56.4519  126.5866 O   0  0  0  0  0  0  0  0  0  0  0  0
    5.1702   57.9469  124.7718 O   0  0  0  0  0  0  0  0  0  0  0  0
    5.0966   58.0038  123.8068 H   0  0  0  0  0  0  0  0  0  0  0  0
    3.7971   55.6984  124.0779 O   0  0  0  0  0  0  0  0  0  0  0  0
    4.0369   54.3460  123.8499 C   0  0  0  0  0  0  0  0  0  0  0  0
    4.5654   54.2476  122.4272 C   0  0  0  0  0  0  0  0  0  0  0  0
    3.7448   53.3149  121.7077 N   0  0  0  0  0  0  0  0  0  0  0  0
    2.8799   53.7257  121.3499 H   0  0  0  0  0  0  0  0  0  0  0  0
    4.2577   52.6964  121.0661 H   0  0  0  0  0  0  0  0  0  0  0  0
    6.0019   53.9662  122.3532 C   0  0  0  0  0  0  0  0  0  0  0  0
    6.6206   53.4806  123.3249 O   0  0  0  0  0  0  0  0  0  0  0  0
    6.7050   54.2365  121.1949 O   0  0  0  0  0  0  0  0  0  0  0  0
    6.6108   53.7824  120.3175 H   0  0  0  0  0  0  0  0  0  0  0  0
    7.1829   50.6651  128.6454 C   0  0  0  0  0  0  0  0  0  0  0  0
    7.1505   49.6270  129.6891 C   0  0  0  0  0  0  0  0  0  0  0  0
    9.2906   48.3650  130.1636 C   0  0  0  0  0  0  0  0  0  0  0  0
    9.9960   47.1986  130.0439 C   0  0  0  0  0  0  0  0  0  0  0  0
    9.5371   46.1097  129.2913 C   0  0  0  0  0  0  0  0  0  0  0  0
    8.3258   46.2420  128.6564 C   0  0  0  0  0  0  0  0  0  0  0  0
    7.5988   47.3971  128.7623 C   0  0  0  0  0  0  0  0  0  0  0  0
    8.0626   48.4642  129.5104 C   0  0  0  0  0  0  0  0  0  0  0  0
    9.7622   49.4069  130.8834 O   0  0  0  0  0  0  0  0  0  0  0  0
    9.9149   49.6388  132.2229 C   0  0  0  0  0  0  0  0  0  0  0  0
    9.8180   46.1622  133.7291 C   0  0  0  0  0  0  0  0  0  0  0  0
    9.0133   46.3401  134.8574 C   0  0  0  0  0  0  0  0  0  0  0  0
    8.5326   47.6092  135.0691 C   0  0  0  0  0  0  0  0  0  0  0  0
    8.8224   48.6534  134.2230 C   0  0  0  0  0  0  0  0  0  0  0  0
    9.6244   48.4512  133.1104 C   0  0  0  0  0  0  0  0  0  0  0  0
   10.1128   47.1995  132.8795 C   0  0  0  0  0  0  0  0  0  0  0  0
   10.2920   44.8768  133.5251 O   0  0  0  0  0  0  0  0  0  0  0  0
    9.7786   41.9395  128.7766 C   0  0  0  0  0  0  0  0  0  0  0  0
    9.9211   42.7164  130.0237 C   0  0  0  0  0  0  0  0  0  0  0  0
   11.1651   43.2094  130.3945 C   0  0  0  0  0  0  0  0  0  0  0  0
   11.2630   43.9357  131.5787 C   0  0  0  0  0  0  0  0  0  0  0  0
   10.1726   44.1701  132.3755 C   0  0  0  0  0  0  0  0  0  0  0  0
    8.9344   43.6639  131.9801 C   0  0  0  0  0  0  0  0  0  0  0  0
    8.7996   42.9434  130.8178 C   0  0  0  0  0  0  0  0  0  0  0  0
 43 44  1  0  0  0
 44 45  2  0  0  0
 45 46  1  0  0  0
 46 47  2  0  0  0
 47 42  1  0  0  0
 42 36  1  0  0  0
 36 37  2  0  0  0
 37 38  1  0  0  0
 38 39  2  0  0  0
 39 40  1  0  0  0
 40 35  1  0  0  0
 35 34  1  0  0  0
 34 28  1  0  0  0
 28 29  2  0  0  0
 29 30  1  0  0  0
 30 31  2  0  0  0
 31 32  1  0  0  0
 32 33  2  0  0  0
 33 27  1  0  0  0
 27 26  1  0  0  0
 26  1  1  0  0  0
  1  2  2  0  0  0
  1  3  1  0  0  0
  3  4  1  0  0  0
  4  5  1  0  0  0
  5  6  1  0  0  0
  6  7  1  0  0  0
  7  8  1  0  0  0
  8  9  1  0  0  0
  9 10  1  0  0  0
 10 11  1  0  0  0
 11 12  1  0  0  0
 12 13  2  0  0  0
 12 14  1  0  0  0
 12 16  1  0  0  0
 16 17  1  0  0  0
 17 18  1  0  0  0
 18 19  1  0  0  0
 18 22  1  0  0  0
 22 23  2  0  0  0
 22 24  1  0  0  0
 40 41  2  0  0  0
 47 48  1  0  0  0
 48 49  2  0  0  0
 49 44  1  0  0  0
 41 36  1  0  0  0
 33 28  1  0  0  0
 10  5  1  0  0  0
 14 15  1  0  0  0
 19 20  1  0  0  0
 19 21  1  0  0  0
 24 25  1  0  0  0
M  END
> <minimizedAffinity>
-4.56269

> <CNNscore>
0.4784170091

> <CNNaffinity>
7.2494192123

> <CNN_VS>
3.4682455063

> <CNNaffinity_variance>
0.5094761252

$$$$
[H]OC(=O)[C@@]([H])(N([H])[H])C([H])([H])OP(=O)(O[H])O[C@]1([H])C([H])([H])C([H])([H])C([H])([H])O[C@]1([H])C([H])([H])OC(=O)C([H])([H])C([H])([H])c1c([H])c([H])c([H])c([H])c1OC([H])([H])c1c([H])c([H])c([H])c(Oc2c([H])c([H])c(C([H])([H])[H])c([H])c2[H])c1[H]


 49 52  0  0  0  0  0  0  0  0999 V2000
    7.0655   51.2828  129.1983 C   0  0  0  0  0  0  0  0  0  0  0  0
    6.4119   50.5087  128.4799 O   0  0  0  0  0  0  0  0  0  0  0  0
    7.1593   52.6303  128.7762 O   0  0  0  0  0  0  0  0  0  0  0  0
    6.8006   53.1041  127.5540 C   0  0  0  0  0  0  0  0  0  0  0  0
    7.6366   54.1607  126.8973 C   0  0  0  0  0  0  0  0  0  0  0  0
    8.3126   53.7224  125.7895 O   0  0  0  0  0  0  0  0  0  0  0  0
    8.4776   54.6308  124.7739 C   0  0  0  0  0  0  0  0  0  0  0  0
    8.6750   56.0517  125.1972 C   0  0  0  0  0  0  0  0  0  0  0  0
    7.7727   56.5032  126.2902 C   0  0  0  0  0  0  0  0  0  0  0  0
    6.7787   55.3951  126.5911 C   0  0  0  0  0  0  0  0  0  0  0  0
    5.8672   55.2107  125.5947 O   0  0  0  0  0  0  0  0  0  0  0  0
    4.6804   56.3744  125.4602 P   0  0  0  0  0  0  0  0  0  0  0  0
    5.1431   57.7722  125.7063 O   0  0  0  0  0  0  0  0  0  0  0  0
    3.9798   56.3695  123.8971 O   0  0  0  0  0  0  0  0  0  0  0  0
    3.2338   55.7505  123.8837 H   0  0  0  0  0  0  0  0  0  0  0  0
    3.4251   55.9425  126.5301 O   0  0  0  0  0  0  0  0  0  0  0  0
    2.3412   55.3747  125.8659 C   0  0  0  0  0  0  0  0  0  0  0  0
    2.6552   53.8918  125.7417 C   0  0  0  0  0  0  0  0  0  0  0  0
    2.6523   53.5482  124.3478 N   0  0  0  0  0  0  0  0  0  0  0  0
    3.5311   53.7662  123.8733 H   0  0  0  0  0  0  0  0  0  0  0  0
    2.2280   52.6372  124.1301 H   0  0  0  0  0  0  0  0  0  0  0  0
    1.8000   53.0395  126.5727 C   0  0  0  0  0  0  0  0  0  0  0  0
    0.6558   53.4058  126.9184 O   0  0  0  0  0  0  0  0  0  0  0  0
    2.2494   51.8026  126.9935 O   0  0  0  0  0  0  0  0  0  0  0  0
    2.4270   51.0062  126.4286 H   0  0  0  0  0  0  0  0  0  0  0  0
    7.7392   50.8881  130.4309 C   0  0  0  0  0  0  0  0  0  0  0  0
    8.8463   49.9185  130.3828 C   0  0  0  0  0  0  0  0  0  0  0  0
    8.4986   47.6125  131.3623 C   0  0  0  0  0  0  0  0  0  0  0  0
    8.7384   46.7462  132.3940 C   0  0  0  0  0  0  0  0  0  0  0  0
    9.3884   47.1338  133.5730 C   0  0  0  0  0  0  0  0  0  0  0  0
    9.7927   48.4430  133.6743 C   0  0  0  0  0  0  0  0  0  0  0  0
    9.5678   49.3293  132.6554 C   0  0  0  0  0  0  0  0  0  0  0  0
    8.9266   48.9330  131.4956 C   0  0  0  0  0  0  0  0  0  0  0  0
    7.8558   47.2176  130.2411 O   0  0  0  0  0  0  0  0  0  0  0  0
    8.2590   46.9695  128.9577 C   0  0  0  0  0  0  0  0  0  0  0  0
   11.3336   44.8589  129.6341 C   0  0  0  0  0  0  0  0  0  0  0  0
   11.4628   44.1203  128.4551 C   0  0  0  0  0  0  0  0  0  0  0  0
   10.5235   44.3574  127.4814 C   0  0  0  0  0  0  0  0  0  0  0  0
    9.5082   45.2690  127.6489 C   0  0  0  0  0  0  0  0  0  0  0  0
    9.4010   45.9888  128.8289 C   0  0  0  0  0  0  0  0  0  0  0  0
   10.3224   45.7707  129.8097 C   0  0  0  0  0  0  0  0  0  0  0  0
   12.2900   44.6134  130.6054 O   0  0  0  0  0  0  0  0  0  0  0  0
   11.2178   43.6726  136.0280 C   0  0  0  0  0  0  0  0  0  0  0  0
   11.5071   43.9250  134.6026 C   0  0  0  0  0  0  0  0  0  0  0  0
   12.3008   45.0041  134.2373 C   0  0  0  0  0  0  0  0  0  0  0  0
   12.5508   45.2134  132.8834 C   0  0  0  0  0  0  0  0  0  0  0  0
   12.0361   44.3888  131.9171 C   0  0  0  0  0  0  0  0  0  0  0  0
   11.2421   43.3117  132.3108 C   0  0  0  0  0  0  0  0  0  0  0  0
   10.9745   43.0736  133.6374 C   0  0  0  0  0  0  0  0  0  0  0  0
 43 44  1  0  0  0
 44 45  2  0  0  0
 45 46  1  0  0  0
 46 47  2  0  0  0
 47 42  1  0  0  0
 42 36  1  0  0  0
 36 37  2  0  0  0
 37 38  1  0  0  0
 38 39  2  0  0  0
 39 40  1  0  0  0
 40 35  1  0  0  0
 35 34  1  0  0  0
 34 28  1  0  0  0
 28 29  2  0  0  0
 29 30  1  0  0  0
 30 31  2  0  0  0
 31 32  1  0  0  0
 32 33  2  0  0  0
 33 27  1  0  0  0
 27 26  1  0  0  0
 26  1  1  0  0  0
  1  2  2  0  0  0
  1  3  1  0  0  0
  3  4  1  0  0  0
  4  5  1  0  0  0
  5  6  1  0  0  0
  6  7  1  0  0  0
  7  8  1  0  0  0
  8  9  1  0  0  0
  9 10  1  0  0  0
 10 11  1  0  0  0
 11 12  1  0  0  0
 12 13  2  0  0  0
 12 14  1  0  0  0
 12 16  1  0  0  0
 16 17  1  0  0  0
 17 18  1  0  0  0
 18 19  1  0  0  0
 18 22  1  0  0  0
 22 23  2  0  0  0
 22 24  1  0  0  0
 40 41  2  0  0  0
 47 48  1  0  0  0
 48 49  2  0  0  0
 49 44  1  0  0  0
 41 36  1  0  0  0
 33 28  1  0  0  0
 10  5  1  0  0  0
 14 15  1  0  0  0
 19 20  1  0  0  0
 19 21  1  0  0  0
 24 25  1  0  0  0
M  END
> <minimizedAffinity>
-5.80366

> <CNNscore>
0.4746406376

> <CNNaffinity>
6.9649872780

> <CNN_VS>
3.3058660030

> <CNNaffinity_variance>
0.5191730857

$$$$
[H]OC(=O)[C@@]([H])(N([H])[H])C([H])([H])OP(=O)(O[H])O[C@]1([H])C([H])([H])C([H])([H])C([H])([H])O[C@]1([H])C([H])([H])OC(=O)C([H])([H])C([H])([H])c1c([H])c([H])c([H])c([H])c1OC([H])([H])c1c([H])c([H])c([H])c(Oc2c([H])c([H])c(C([H])([H])[H])c([H])c2[H])c1[H]


 49 52  0  0  0  0  0  0  0  0999 V2000
   12.8005   42.9403  136.6636 C   0  0  0  0  0  0  0  0  0  0  0  0
   11.9050   42.6369  137.4689 O   0  0  0  0  0  0  0  0  0  0  0  0
   14.1251   42.5773  137.0050 O   0  0  0  0  0  0  0  0  0  0  0  0
   14.5355   42.1314  138.2214 C   0  0  0  0  0  0  0  0  0  0  0  0
   15.9890   42.1995  138.5809 C   0  0  0  0  0  0  0  0  0  0  0  0
   16.2203   42.3877  139.9178 O   0  0  0  0  0  0  0  0  0  0  0  0
   17.3343   41.7777  140.4381 C   0  0  0  0  0  0  0  0  0  0  0  0
   18.5183   41.6987  139.5275 C   0  0  0  0  0  0  0  0  0  0  0  0
   18.1980   41.3111  138.1276 C   0  0  0  0  0  0  0  0  0  0  0  0
   16.7220   40.9637  138.0433 C   0  0  0  0  0  0  0  0  0  0  0  0
   16.4093   39.8032  138.6860 O   0  0  0  0  0  0  0  0  0  0  0  0
   16.7299   38.3937  137.8546 P   0  0  0  0  0  0  0  0  0  0  0  0
   15.5208   37.6498  137.3930 O   0  0  0  0  0  0  0  0  0  0  0  0
   17.6689   38.6980  136.4547 O   0  0  0  0  0  0  0  0  0  0  0  0
   18.6095   38.6572  136.6861 H   0  0  0  0  0  0  0  0  0  0  0  0
   17.7045   37.4229  138.8620 O   0  0  0  0  0  0  0  0  0  0  0  0
   17.3926   37.5855  140.2091 C   0  0  0  0  0  0  0  0  0  0  0  0
   16.7084   36.2973  140.6398 C   0  0  0  0  0  0  0  0  0  0  0  0
   17.1896   35.2333  139.8047 N   0  0  0  0  0  0  0  0  0  0  0  0
   18.0866   34.8501  140.1106 H   0  0  0  0  0  0  0  0  0  0  0  0
   16.4737   34.5522  139.5204 H   0  0  0  0  0  0  0  0  0  0  0  0
   15.2476   36.4007  140.6997 C   0  0  0  0  0  0  0  0  0  0  0  0
   14.6641   36.7770  141.7393 O   0  0  0  0  0  0  0  0  0  0  0  0
   14.4816   36.0797  139.5955 O   0  0  0  0  0  0  0  0  0  0  0  0
   14.4414   36.5677  138.7323 H   0  0  0  0  0  0  0  0  0  0  0  0
   12.5711   43.6459  135.4073 C   0  0  0  0  0  0  0  0  0  0  0  0
   11.2058   43.7555  134.8670 C   0  0  0  0  0  0  0  0  0  0  0  0
   11.3024   45.7222  133.2793 C   0  0  0  0  0  0  0  0  0  0  0  0
   10.7424   46.8979  132.8593 C   0  0  0  0  0  0  0  0  0  0  0  0
    9.6644   47.5018  133.5197 C   0  0  0  0  0  0  0  0  0  0  0  0
    9.1659   46.8684  134.6324 C   0  0  0  0  0  0  0  0  0  0  0  0
    9.7061   45.6897  135.0718 C   0  0  0  0  0  0  0  0  0  0  0  0
   10.7692   45.1031  134.4093 C   0  0  0  0  0  0  0  0  0  0  0  0
   12.3521   45.1676  132.6336 O   0  0  0  0  0  0  0  0  0  0  0  0
   12.4652   44.3306  131.5575 C   0  0  0  0  0  0  0  0  0  0  0  0
    9.5165   44.9706  129.2639 C   0  0  0  0  0  0  0  0  0  0  0  0
    8.8648   43.7347  129.2516 C   0  0  0  0  0  0  0  0  0  0  0  0
    9.4312   42.7396  130.0101 C   0  0  0  0  0  0  0  0  0  0  0  0
   10.5765   42.9391  130.7439 C   0  0  0  0  0  0  0  0  0  0  0  0
   11.2051   44.1747  130.7387 C   0  0  0  0  0  0  0  0  0  0  0  0
   10.6609   45.1781  129.9933 C   0  0  0  0  0  0  0  0  0  0  0  0
    8.9320   45.9663  128.4986 O   0  0  0  0  0  0  0  0  0  0  0  0
    6.5980   50.6457  130.5224 C   0  0  0  0  0  0  0  0  0  0  0  0
    7.2056   49.4125  129.9843 C   0  0  0  0  0  0  0  0  0  0  0  0
    6.4069   48.4582  129.3686 C   0  0  0  0  0  0  0  0  0  0  0  0
    7.0136   47.3060  128.8749 C   0  0  0  0  0  0  0  0  0  0  0  0
    8.3637   47.0964  128.9835 C   0  0  0  0  0  0  0  0  0  0  0  0
    9.1436   48.0709  129.6064 C   0  0  0  0  0  0  0  0  0  0  0  0
    8.5799   49.2207  130.1048 C   0  0  0  0  0  0  0  0  0  0  0  0
 43 44  1  0  0  0
 44 45  2  0  0  0
 45 46  1  0  0  0
 46 47  2  0  0  0
 47 42  1  0  0  0
 42 36  1  0  0  0
 36 37  2  0  0  0
 37 38  1  0  0  0
 38 39  2  0  0  0
 39 40  1  0  0  0
 40 35  1  0  0  0
 35 34  1  0  0  0
 34 28  1  0  0  0
 28 29  2  0  0  0
 29 30  1  0  0  0
 30 31  2  0  0  0
 31 32  1  0  0  0
 32 33  2  0  0  0
 33 27  1  0  0  0
 27 26  1  0  0  0
 26  1  1  0  0  0
  1  2  2  0  0  0
  1  3  1  0  0  0
  3  4  1  0  0  0
  4  5  1  0  0  0
  5  6  1  0  0  0
  6  7  1  0  0  0
  7  8  1  0  0  0
  8  9  1  0  0  0
  9 10  1  0  0  0
 10 11  1  0  0  0
 11 12  1  0  0  0
 12 13  2  0  0  0
 12 14  1  0  0  0
 12 16  1  0  0  0
 16 17  1  0  0  0
 17 18  1  0  0  0
 18 19  1  0  0  0
 18 22  1  0  0  0
 22 23  2  0  0  0
 22 24  1  0  0  0
 40 41  2  0  0  0
 47 48  1  0  0  0
 48 49  2  0  0  0
 49 44  1  0  0  0
 41 36  1  0  0  0
 33 28  1  0  0  0
 10  5  1  0  0  0
 14 15  1  0  0  0
 19 20  1  0  0  0
 19 21  1  0  0  0
 24 25  1  0  0  0
M  END
> <minimizedAffinity>
1.04821

> <CNNscore>
0.3754910231

> <CNNaffinity>
7.1755609512

> <CNN_VS>
2.6943588257

> <CNNaffinity_variance>
0.8803926706

$$$$
[H]OC(=O)[C@@]([H])(N([H])[H])C([H])([H])OP(=O)(O[H])O[C@]1([H])C([H])([H])C([H])([H])C([H])([H])O[C@]1([H])C([H])([H])OC(=O)C([H])([H])C([H])([H])c1c([H])c([H])c([H])c([H])c1OC([H])([H])c1c([H])c([H])c([H])c(Oc2c([H])c([H])c(C([H])([H])[H])c([H])c2[H])c1[H]


 49 52  0  0  0  0  0  0  0  0999 V2000
    9.0640   47.3696  129.5369 C   0  0  0  0  0  0  0  0  0  0  0  0
    9.3505   46.1824  129.3114 O   0  0  0  0  0  0  0  0  0  0  0  0
    9.3783   47.8764  130.8203 O   0  0  0  0  0  0  0  0  0  0  0  0
   10.4675   47.5395  131.5599 C   0  0  0  0  0  0  0  0  0  0  0  0
   10.2967   47.1833  133.0058 C   0  0  0  0  0  0  0  0  0  0  0  0
    9.2604   47.8370  133.6182 O   0  0  0  0  0  0  0  0  0  0  0  0
    8.5834   47.1390  134.5868 C   0  0  0  0  0  0  0  0  0  0  0  0
    9.4095   46.2069  135.4148 C   0  0  0  0  0  0  0  0  0  0  0  0
   10.3924   45.3994  134.6438 C   0  0  0  0  0  0  0  0  0  0  0  0
   10.1836   45.6614  133.1626 C   0  0  0  0  0  0  0  0  0  0  0  0
    9.0207   45.1340  132.6860 O   0  0  0  0  0  0  0  0  0  0  0  0
    9.0926   43.5536  132.1586 P   0  0  0  0  0  0  0  0  0  0  0  0
    9.3188   42.5439  133.2346 O   0  0  0  0  0  0  0  0  0  0  0  0
    7.6435   43.0958  131.3684 O   0  0  0  0  0  0  0  0  0  0  0  0
    7.7134   43.3083  130.4251 H   0  0  0  0  0  0  0  0  0  0  0  0
   10.3122   43.4723  130.9698 O   0  0  0  0  0  0  0  0  0  0  0  0
   11.1922   42.4164  131.1917 C   0  0  0  0  0  0  0  0  0  0  0  0
   12.4929   43.0466  131.6648 C   0  0  0  0  0  0  0  0  0  0  0  0
   12.4920   43.0524  133.1004 N   0  0  0  0  0  0  0  0  0  0  0  0
   12.7828   42.1625  133.5110 H   0  0  0  0  0  0  0  0  0  0  0  0
   12.8815   43.9028  133.5275 H   0  0  0  0  0  0  0  0  0  0  0  0
   12.7664   44.3528  131.0586 C   0  0  0  0  0  0  0  0  0  0  0  0
   12.5620   44.5615  129.8431 O   0  0  0  0  0  0  0  0  0  0  0  0
   13.2611   45.3874  131.8291 O   0  0  0  0  0  0  0  0  0  0  0  0
   12.7908   45.8685  132.5587 H   0  0  0  0  0  0  0  0  0  0  0  0
    8.4243   48.2579  128.5722 C   0  0  0  0  0  0  0  0  0  0  0  0
    8.4692   49.7154  128.7760 C   0  0  0  0  0  0  0  0  0  0  0  0
    6.7757   51.5568  129.1484 C   0  0  0  0  0  0  0  0  0  0  0  0
    5.6433   51.9732  129.7939 C   0  0  0  0  0  0  0  0  0  0  0  0
    5.0243   51.2195  130.7997 C   0  0  0  0  0  0  0  0  0  0  0  0
    5.5962   50.0159  131.1342 C   0  0  0  0  0  0  0  0  0  0  0  0
    6.7273   49.5748  130.5017 C   0  0  0  0  0  0  0  0  0  0  0  0
    7.3275   50.3280  129.5088 C   0  0  0  0  0  0  0  0  0  0  0  0
    7.3625   52.3096  128.1917 O   0  0  0  0  0  0  0  0  0  0  0  0
    7.2145   52.3978  126.8346 C   0  0  0  0  0  0  0  0  0  0  0  0
    7.5367   56.0754  125.9764 C   0  0  0  0  0  0  0  0  0  0  0  0
    8.5759   56.0814  125.0423 C   0  0  0  0  0  0  0  0  0  0  0  0
    9.1246   54.8608  124.7332 C   0  0  0  0  0  0  0  0  0  0  0  0
    8.6827   53.6921  125.3068 C   0  0  0  0  0  0  0  0  0  0  0  0
    7.6506   53.7128  126.2321 C   0  0  0  0  0  0  0  0  0  0  0  0
    7.0899   54.9130  126.5543 C   0  0  0  0  0  0  0  0  0  0  0  0
    6.9894   57.3122  126.2751 O   0  0  0  0  0  0  0  0  0  0  0  0
    1.6853   58.2217  127.8496 C   0  0  0  0  0  0  0  0  0  0  0  0
    3.0842   57.9816  127.4434 C   0  0  0  0  0  0  0  0  0  0  0  0
    4.1168   58.2220  128.3399 C   0  0  0  0  0  0  0  0  0  0  0  0
    5.4242   57.9870  127.9219 C   0  0  0  0  0  0  0  0  0  0  0  0
    5.7094   57.5308  126.6612 C   0  0  0  0  0  0  0  0  0  0  0  0
    4.6537   57.2972  125.7801 C   0  0  0  0  0  0  0  0  0  0  0  0
    3.3509   57.5171  126.1577 C   0  0  0  0  0  0  0  0  0  0  0  0
 43 44  1  0  0  0
 44 45  2  0  0  0
 45 46  1  0  0  0
 46 47  2  0  0  0
 47 42  1  0  0  0
 42 36  1  0  0  0
 36 37  2  0  0  0
 37 38  1  0  0  0
 38 39  2  0  0  0
 39 40  1  0  0  0
 40 35  1  0  0  0
 35 34  1  0  0  0
 34 28  1  0  0  0
 28 29  2  0  0  0
 29 30  1  0  0  0
 30 31  2  0  0  0
 31 32  1  0  0  0
 32 33  2  0  0  0
 33 27  1  0  0  0
 27 26  1  0  0  0
 26  1  1  0  0  0
  1  2  2  0  0  0
  1  3  1  0  0  0
  3  4  1  0  0  0
  4  5  1  0  0  0
  5  6  1  0  0  0
  6  7  1  0  0  0
  7  8  1  0  0  0
  8  9  1  0  0  0
  9 10  1  0  0  0
 10 11  1  0  0  0
 11 12  1  0  0  0
 12 13  2  0  0  0
 12 14  1  0  0  0
 12 16  1  0  0  0
 16 17  1  0  0  0
 17 18  1  0  0  0
 18 19  1  0  0  0
 18 22  1  0  0  0
 22 23  2  0  0  0
 22 24  1  0  0  0
 40 41  2  0  0  0
 47 48  1  0  0  0
 48 49  2  0  0  0
 49 44  1  0  0  0
 41 36  1  0  0  0
 33 28  1  0  0  0
 10  5  1  0  0  0
 14 15  1  0  0  0
 19 20  1  0  0  0
 19 21  1  0  0  0
 24 25  1  0  0  0
M  END
> <minimizedAffinity>
1.38276

> <CNNscore>
0.3382538259

> <CNNaffinity>
6.8215775490

> <CNN_VS>
2.3074247837

> <CNNaffinity_variance>
1.3161793947

$$$$
[H]OC(=O)[C@@]([H])(N([H])[H])C([H])([H])OP(=O)(O[H])O[C@]1([H])C([H])([H])C([H])([H])C([H])([H])O[C@]1([H])C([H])([H])OC(=O)C([H])([H])C([H])([H])c1c([H])c([H])c([H])c([H])c1OC([H])([H])c1c([H])c([H])c([H])c(Oc2c([H])c([H])c(C([H])([H])[H])c([H])c2[H])c1[H]


 49 52  0  0  0  0  0  0  0  0999 V2000
   13.0798   43.4409  135.5524 C   0  0  0  0  0  0  0  0  0  0  0  0
   12.1168   43.1610  136.2851 O   0  0  0  0  0  0  0  0  0  0  0  0
   14.3735   43.1583  136.0515 O   0  0  0  0  0  0  0  0  0  0  0  0
   14.6541   42.3758  137.1266 C   0  0  0  0  0  0  0  0  0  0  0  0
   15.9941   42.4845  137.7893 C   0  0  0  0  0  0  0  0  0  0  0  0
   15.9292   42.8022  139.1202 O   0  0  0  0  0  0  0  0  0  0  0  0
   16.8910   42.2502  139.9289 C   0  0  0  0  0  0  0  0  0  0  0  0
   18.2445   42.0884  139.3134 C   0  0  0  0  0  0  0  0  0  0  0  0
   18.2331   41.5658  137.9208 C   0  0  0  0  0  0  0  0  0  0  0  0
   16.8060   41.2056  137.5468 C   0  0  0  0  0  0  0  0  0  0  0  0
   16.3397   40.1114  138.2125 O   0  0  0  0  0  0  0  0  0  0  0  0
   17.0261   38.6501  137.7951 P   0  0  0  0  0  0  0  0  0  0  0  0
   17.8192   38.6690  136.5306 O   0  0  0  0  0  0  0  0  0  0  0  0
   18.0868   38.0900  139.0179 O   0  0  0  0  0  0  0  0  0  0  0  0
   17.5862   37.5587  139.6559 H   0  0  0  0  0  0  0  0  0  0  0  0
   15.7664   37.5039  137.7163 O   0  0  0  0  0  0  0  0  0  0  0  0
   15.1799   37.2819  138.9594 C   0  0  0  0  0  0  0  0  0  0  0  0
   15.4962   35.8389  139.3209 C   0  0  0  0  0  0  0  0  0  0  0  0
   16.4928   35.8437  140.3542 N   0  0  0  0  0  0  0  0  0  0  0  0
   16.1075   35.9857  141.2903 H   0  0  0  0  0  0  0  0  0  0  0  0
   17.2128   35.1156  140.2609 H   0  0  0  0  0  0  0  0  0  0  0  0
   15.8340   35.0049  138.1638 C   0  0  0  0  0  0  0  0  0  0  0  0
   14.9454   34.4723  137.4642 O   0  0  0  0  0  0  0  0  0  0  0  0
   17.1557   34.7902  137.8232 O   0  0  0  0  0  0  0  0  0  0  0  0
   17.8018   35.4604  137.4791 H   0  0  0  0  0  0  0  0  0  0  0  0
   12.9574   44.0427  134.2289 C   0  0  0  0  0  0  0  0  0  0  0  0
   11.7152   43.8702  133.4573 C   0  0  0  0  0  0  0  0  0  0  0  0
    9.3237   44.6937  133.4741 C   0  0  0  0  0  0  0  0  0  0  0  0
    8.4550   45.7174  133.7383 C   0  0  0  0  0  0  0  0  0  0  0  0
    8.8844   46.9996  134.1051 C   0  0  0  0  0  0  0  0  0  0  0  0
   10.2384   47.2137  134.1969 C   0  0  0  0  0  0  0  0  0  0  0  0
   11.1288   46.2058  133.9407 C   0  0  0  0  0  0  0  0  0  0  0  0
   10.6914   44.9437  133.5814 C   0  0  0  0  0  0  0  0  0  0  0  0
    8.8845   43.4695  133.1072 O   0  0  0  0  0  0  0  0  0  0  0  0
    8.4364   42.9399  131.9282 C   0  0  0  0  0  0  0  0  0  0  0  0
    9.8017   45.3514  129.3425 C   0  0  0  0  0  0  0  0  0  0  0  0
   10.2522   44.4955  128.3341 C   0  0  0  0  0  0  0  0  0  0  0  0
   10.0800   43.1508  128.5540 C   0  0  0  0  0  0  0  0  0  0  0  0
    9.4978   42.6642  129.7005 C   0  0  0  0  0  0  0  0  0  0  0  0
    9.0599   43.5342  130.6870 C   0  0  0  0  0  0  0  0  0  0  0  0
    9.2199   44.8738  130.4906 C   0  0  0  0  0  0  0  0  0  0  0  0
    9.9772   46.7047  129.1057 O   0  0  0  0  0  0  0  0  0  0  0  0
    6.3054   50.7330  130.4209 C   0  0  0  0  0  0  0  0  0  0  0  0
    7.2766   49.6742  130.0819 C   0  0  0  0  0  0  0  0  0  0  0  0
    8.5453   49.6916  130.6456 C   0  0  0  0  0  0  0  0  0  0  0  0
    9.4365   48.6784  130.3012 C   0  0  0  0  0  0  0  0  0  0  0  0
    9.0928   47.6787  129.4288 C   0  0  0  0  0  0  0  0  0  0  0  0
    7.8118   47.6843  128.8767 C   0  0  0  0  0  0  0  0  0  0  0  0
    6.9056   48.6675  129.1937 C   0  0  0  0  0  0  0  0  0  0  0  0
 43 44  1  0  0  0
 44 45  2  0  0  0
 45 46  1  0  0  0
 46 47  2  0  0  0
 47 42  1  0  0  0
 42 36  1  0  0  0
 36 37  2  0  0  0
 37 38  1  0  0  0
 38 39  2  0  0  0
 39 40  1  0  0  0
 40 35  1  0  0  0
 35 34  1  0  0  0
 34 28  1  0  0  0
 28 29  2  0  0  0
 29 30  1  0  0  0
 30 31  2  0  0  0
 31 32  1  0  0  0
 32 33  2  0  0  0
 33 27  1  0  0  0
 27 26  1  0  0  0
 26  1  1  0  0  0
  1  2  2  0  0  0
  1  3  1  0  0  0
  3  4  1  0  0  0
  4  5  1  0  0  0
  5  6  1  0  0  0
  6  7  1  0  0  0
  7  8  1  0  0  0
  8  9  1  0  0  0
  9 10  1  0  0  0
 10 11  1  0  0  0
 11 12  1  0  0  0
 12 13  2  0  0  0
 12 14  1  0  0  0
 12 16  1  0  0  0
 16 17  1  0  0  0
 17 18  1  0  0  0
 18 19  1  0  0  0
 18 22  1  0  0  0
 22 23  2  0  0  0
 22 24  1  0  0  0
 40 41  2  0  0  0
 47 48  1  0  0  0
 48 49  2  0  0  0
 49 44  1  0  0  0
 41 36  1  0  0  0
 33 28  1  0  0  0
 10  5  1  0  0  0
 14 15  1  0  0  0
 19 20  1  0  0  0
 19 21  1  0  0  0
 24 25  1  0  0  0
M  END
> <minimizedAffinity>
0.80814

> <CNNscore>
0.3290935159

> <CNNaffinity>
7.1356177330

> <CNN_VS>
2.3482854366

> <CNNaffinity_variance>
0.5975174308

$$$$
[H]OC(=O)[C@@]([H])(N([H])[H])C([H])([H])OP(=O)(O[H])O[C@]1([H])C([H])([H])C([H])([H])C([H])([H])O[C@]1([H])C([H])([H])OC(=O)C([H])([H])C([H])([H])c1c([H])c([H])c([H])c([H])c1OC([H])([H])c1c([H])c([H])c([H])c(Oc2c([H])c([H])c(C([H])([H])[H])c([H])c2[H])c1[H]


 49 52  0  0  0  0  0  0  0  0999 V2000
   13.1170   43.4525  135.4594 C   0  0  0  0  0  0  0  0  0  0  0  0
   12.2061   43.1374  136.2426 O   0  0  0  0  0  0  0  0  0  0  0  0
   14.4461   43.2442  135.8985 O   0  0  0  0  0  0  0  0  0  0  0  0
   14.8109   42.6417  137.0607 C   0  0  0  0  0  0  0  0  0  0  0  0
   16.2533   42.6359  137.4682 C   0  0  0  0  0  0  0  0  0  0  0  0
   16.5145   43.3772  138.5900 O   0  0  0  0  0  0  0  0  0  0  0  0
   17.5019   42.9062  139.4189 C   0  0  0  0  0  0  0  0  0  0  0  0
   18.6527   42.2317  138.7424 C   0  0  0  0  0  0  0  0  0  0  0  0
   18.2685   41.3012  137.6474 C   0  0  0  0  0  0  0  0  0  0  0  0
   16.7542   41.1926  137.6086 C   0  0  0  0  0  0  0  0  0  0  0  0
   16.2395   40.5225  138.6780 O   0  0  0  0  0  0  0  0  0  0  0  0
   16.3749   38.8609  138.6381 P   0  0  0  0  0  0  0  0  0  0  0  0
   15.1418   38.1221  139.0405 O   0  0  0  0  0  0  0  0  0  0  0  0
   16.7740   38.3076  137.0669 O   0  0  0  0  0  0  0  0  0  0  0  0
   17.7385   38.2882  136.9708 H   0  0  0  0  0  0  0  0  0  0  0  0
   17.6981   38.4375  139.6265 O   0  0  0  0  0  0  0  0  0  0  0  0
   17.4123   37.3517  140.4499 C   0  0  0  0  0  0  0  0  0  0  0  0
   17.3172   37.9093  141.8616 C   0  0  0  0  0  0  0  0  0  0  0  0
   15.9280   38.0463  142.1969 N   0  0  0  0  0  0  0  0  0  0  0  0
   15.4998   37.1761  142.5200 H   0  0  0  0  0  0  0  0  0  0  0  0
   15.6952   38.8957  142.7273 H   0  0  0  0  0  0  0  0  0  0  0  0
   18.1078   39.1265  142.0660 C   0  0  0  0  0  0  0  0  0  0  0  0
   19.3242   39.0723  142.3491 O   0  0  0  0  0  0  0  0  0  0  0  0
   17.5149   40.3689  141.9486 O   0  0  0  0  0  0  0  0  0  0  0  0
   17.1584   40.7865  141.1219 H   0  0  0  0  0  0  0  0  0  0  0  0
   12.9001   44.0241  134.1345 C   0  0  0  0  0  0  0  0  0  0  0  0
   11.6050   43.8384  133.4592 C   0  0  0  0  0  0  0  0  0  0  0  0
    9.2647   44.7979  133.4485 C   0  0  0  0  0  0  0  0  0  0  0  0
    8.4603   45.8866  133.6490 C   0  0  0  0  0  0  0  0  0  0  0  0
    8.9682   47.1649  133.9150 C   0  0  0  0  0  0  0  0  0  0  0  0
   10.3336   47.3064  133.9723 C   0  0  0  0  0  0  0  0  0  0  0  0
   11.1606   46.2328  133.7784 C   0  0  0  0  0  0  0  0  0  0  0  0
   10.6460   44.9755  133.5184 C   0  0  0  0  0  0  0  0  0  0  0  0
    8.7503   43.5778  133.1782 O   0  0  0  0  0  0  0  0  0  0  0  0
    8.5210   42.8833  132.0222 C   0  0  0  0  0  0  0  0  0  0  0  0
    9.8625   45.3483  129.4747 C   0  0  0  0  0  0  0  0  0  0  0  0
   10.2412   44.5184  128.4163 C   0  0  0  0  0  0  0  0  0  0  0  0
   10.0313   43.1725  128.5920 C   0  0  0  0  0  0  0  0  0  0  0  0
    9.4800   42.6607  129.7428 C   0  0  0  0  0  0  0  0  0  0  0  0
    9.1135   43.5051  130.7793 C   0  0  0  0  0  0  0  0  0  0  0  0
    9.3119   44.8453  130.6274 C   0  0  0  0  0  0  0  0  0  0  0  0
   10.0753   46.7033  129.2823 O   0  0  0  0  0  0  0  0  0  0  0  0
    6.3729   50.7606  130.4094 C   0  0  0  0  0  0  0  0  0  0  0  0
    7.3520   49.6944  130.1200 C   0  0  0  0  0  0  0  0  0  0  0  0
    8.6115   49.7335  130.7030 C   0  0  0  0  0  0  0  0  0  0  0  0
    9.5105   48.7125  130.4054 C   0  0  0  0  0  0  0  0  0  0  0  0
    9.1833   47.6845  129.5600 C   0  0  0  0  0  0  0  0  0  0  0  0
    7.9114   47.6687  128.9876 C   0  0  0  0  0  0  0  0  0  0  0  0
    6.9978   48.6587  129.2586 C   0  0  0  0  0  0  0  0  0  0  0  0
 43 44  1  0  0  0
 44 45  2  0  0  0
 45 46  1  0  0  0
 46 47  2  0  0  0
 47 42  1  0  0  0
 42 36  1  0  0  0
 36 37  2  0  0  0
 37 38  1  0  0  0
 38 39  2  0  0  0
 39 40  1  0  0  0
 40 35  1  0  0  0
 35 34  1  0  0  0
 34 28  1  0  0  0
 28 29  2  0  0  0
 29 30  1  0  0  0
 30 31  2  0  0  0
 31 32  1  0  0  0
 32 33  2  0  0  0
 33 27  1  0  0  0
 27 26  1  0  0  0
 26  1  1  0  0  0
  1  2  2  0  0  0
  1  3  1  0  0  0
  3  4  1  0  0  0
  4  5  1  0  0  0
  5  6  1  0  0  0
  6  7  1  0  0  0
  7  8  1  0  0  0
  8  9  1  0  0  0
  9 10  1  0  0  0
 10 11  1  0  0  0
 11 12  1  0  0  0
 12 13  2  0  0  0
 12 14  1  0  0  0
 12 16  1  0  0  0
 16 17  1  0  0  0
 17 18  1  0  0  0
 18 19  1  0  0  0
 18 22  1  0  0  0
 22 23  2  0  0  0
 22 24  1  0  0  0
 40 41  2  0  0  0
 47 48  1  0  0  0
 48 49  2  0  0  0
 49 44  1  0  0  0
 41 36  1  0  0  0
 33 28  1  0  0  0
 10  5  1  0  0  0
 14 15  1  0  0  0
 19 20  1  0  0  0
 19 21  1  0  0  0
 24 25  1  0  0  0
M  END
> <minimizedAffinity>
0.97415

> <CNNscore>
0.3230746090

> <CNNaffinity>
7.0348434448

> <CNN_VS>
2.2727792263

> <CNNaffinity_variance>
0.7522453070

$$$$
[H]C([H])([H])C1([H])OC([H])(C([H])([H])[N+](C([H])([H])[H])(C([H])([H])[H])C([H])([H])[H])C([H])([H])OC1([H])[H].[I-]


 12 12  0  0  0  0  0  0  0  0999 V2000
    9.8494   45.8935  134.4452 C   0  0  0  0  0  0  0  0  0  0  0  0
   10.8454   45.8314  133.2822 C   0  0  0  0  0  0  0  0  0  0  0  0
   12.0884   45.1576  133.8376 C   0  0  0  0  0  0  0  0  0  0  0  0
   11.9869   43.8003  133.4498 O   0  0  0  0  0  0  0  0  0  0  0  0
   12.2261   43.8054  132.0612 C   0  0  0  0  0  0  0  0  0  0  0  0
   11.1667   44.6239  131.3322 C   0  0  0  0  0  0  0  0  0  0  0  0
   10.2685   45.1369  132.2510 O   0  0  0  0  0  0  0  0  0  0  0  0
   10.4761   43.7128  130.3702 C   0  0  0  0  0  0  0  0  0  0  0  0
    9.9401   44.3259  129.2149 N   0  0  0  0  0  0  0  0  0  0  0  0
    8.5414   44.7092  129.4667 C   0  0  0  0  0  0  0  0  0  0  0  0
    9.9266   43.3468  128.1168 C   0  0  0  0  0  0  0  0  0  0  0  0
   10.6193   45.4829  128.7408 C   0  0  0  0  0  0  0  0  0  0  0  0
  1  2  1  0  0  0
  2  3  1  0  0  0
  3  4  1  0  0  0
  4  5  1  0  0  0
  5  6  1  0  0  0
  6  8  1  0  0  0
  8  9  1  0  0  0
  9 10  1  0  0  0
  9 11  1  0  0  0
  9 12  1  0  0  0
  6  7  1  0  0  0
  7  2  1  0  0  0
M  CHG 1   9   1
M  END
> <minimizedAffinity>
-4.69185

> <CNNscore>
0.5619312525

> <CNNaffinity>
5.0566911697

> <CNN_VS>
2.8415129185

> <CNNaffinity_variance>
0.1627766788

$$$$
[H]C([H])([H])C1([H])OC([H])(C([H])([H])[N+](C([H])([H])[H])(C([H])([H])[H])C([H])([H])[H])C([H])([H])OC1([H])[H].[I-]


 12 12  0  0  0  0  0  0  0  0999 V2000
   10.8472   44.5228  128.0584 C   0  0  0  0  0  0  0  0  0  0  0  0
    9.9502   44.7256  129.2842 C   0  0  0  0  0  0  0  0  0  0  0  0
    8.7374   43.8387  129.0608 C   0  0  0  0  0  0  0  0  0  0  0  0
    8.9931   42.6576  129.7974 O   0  0  0  0  0  0  0  0  0  0  0  0
    8.8580   43.0403  131.1468 C   0  0  0  0  0  0  0  0  0  0  0  0
    9.8880   44.1025  131.5140 C   0  0  0  0  0  0  0  0  0  0  0  0
   10.6640   44.3936  130.4062 O   0  0  0  0  0  0  0  0  0  0  0  0
   10.7296   43.5514  132.6187 C   0  0  0  0  0  0  0  0  0  0  0  0
   11.0325   44.4464  133.6699 N   0  0  0  0  0  0  0  0  0  0  0  0
    9.8777   45.3260  133.9137 C   0  0  0  0  0  0  0  0  0  0  0  0
   12.1503   45.3091  133.2559 C   0  0  0  0  0  0  0  0  0  0  0  0
   11.3909   43.8598  134.9157 C   0  0  0  0  0  0  0  0  0  0  0  0
  1  2  1  0  0  0
  2  3  1  0  0  0
  3  4  1  0  0  0
  4  5  1  0  0  0
  5  6  1  0  0  0
  6  8  1  0  0  0
  8  9  1  0  0  0
  9 10  1  0  0  0
  9 11  1  0  0  0
  9 12  1  0  0  0
  6  7  1  0  0  0
  7  2  1  0  0  0
M  CHG 1   9   1
M  END
> <minimizedAffinity>
-4.68142

> <CNNscore>
0.5151890516

> <CNNaffinity>
5.1018233299

> <CNN_VS>
2.6284034252

> <CNNaffinity_variance>
0.0523927435

$$$$
[H]C([H])([H])C1([H])OC([H])(C([H])([H])[N+](C([H])([H])[H])(C([H])([H])[H])C([H])([H])[H])C([H])([H])OC1([H])[H].[I-]


 12 12  0  0  0  0  0  0  0  0999 V2000
   11.2731   44.5874  128.2909 C   0  0  0  0  0  0  0  0  0  0  0  0
    9.9163   44.7661  128.9805 C   0  0  0  0  0  0  0  0  0  0  0  0
    9.1265   43.5056  128.6727 C   0  0  0  0  0  0  0  0  0  0  0  0
    9.2766   42.6790  129.8116 O   0  0  0  0  0  0  0  0  0  0  0  0
    8.5003   43.3000  130.8102 C   0  0  0  0  0  0  0  0  0  0  0  0
    9.0317   44.6949  131.1198 C   0  0  0  0  0  0  0  0  0  0  0  0
   10.1305   44.9566  130.3208 O   0  0  0  0  0  0  0  0  0  0  0  0
    9.4105   44.7224  132.5648 C   0  0  0  0  0  0  0  0  0  0  0  0
    9.4232   45.9969  133.1759 N   0  0  0  0  0  0  0  0  0  0  0  0
   10.7939   46.3238  133.6011 C   0  0  0  0  0  0  0  0  0  0  0  0
    8.5950   45.9525  134.3912 C   0  0  0  0  0  0  0  0  0  0  0  0
    8.9534   47.0819  132.3842 C   0  0  0  0  0  0  0  0  0  0  0  0
  1  2  1  0  0  0
  2  3  1  0  0  0
  3  4  1  0  0  0
  4  5  1  0  0  0
  5  6  1  0  0  0
  6  8  1  0  0  0
  8  9  1  0  0  0
  9 10  1  0  0  0
  9 11  1  0  0  0
  9 12  1  0  0  0
  6  7  1  0  0  0
  7  2  1  0  0  0
M  CHG 1   9   1
M  END
> <minimizedAffinity>
-4.58326

> <CNNscore>
0.4099685848

> <CNNaffinity>
4.9690651894

> <CNN_VS>
2.0371606350

> <CNNaffinity_variance>
0.0578061566

$$$$
[H]C([H])([H])C1([H])OC([H])(C([H])([H])[N+](C([H])([H])[H])(C([H])([H])[H])C([H])([H])[H])C([H])([H])OC1([H])[H].[I-]


 12 12  0  0  0  0  0  0  0  0999 V2000
   11.8461   42.8309  132.0847 C   0  0  0  0  0  0  0  0  0  0  0  0
   10.7462   43.7515  132.6243 C   0  0  0  0  0  0  0  0  0  0  0  0
   11.1716   44.1220  134.0346 C   0  0  0  0  0  0  0  0  0  0  0  0
   11.7850   45.3924  133.9220 O   0  0  0  0  0  0  0  0  0  0  0  0
   10.7221   46.2827  133.6705 C   0  0  0  0  0  0  0  0  0  0  0  0
   10.0241   45.9362  132.3603 C   0  0  0  0  0  0  0  0  0  0  0  0
   10.6357   44.8337  131.7905 O   0  0  0  0  0  0  0  0  0  0  0  0
   10.1354   47.1251  131.4622 C   0  0  0  0  0  0  0  0  0  0  0  0
    9.1883   47.1994  130.4156 N   0  0  0  0  0  0  0  0  0  0  0  0
    8.9158   48.6109  130.0994 C   0  0  0  0  0  0  0  0  0  0  0  0
    7.9212   46.6092  130.8750 C   0  0  0  0  0  0  0  0  0  0  0  0
    9.5394   46.5510  129.1986 C   0  0  0  0  0  0  0  0  0  0  0  0
  1  2  1  0  0  0
  2  3  1  0  0  0
  3  4  1  0  0  0
  4  5  1  0  0  0
  5  6  1  0  0  0
  6  8  1  0  0  0
  8  9  1  0  0  0
  9 10  1  0  0  0
  9 11  1  0  0  0
  9 12  1  0  0  0
  6  7  1  0  0  0
  7  2  1  0  0  0
M  CHG 1   9   1
M  END
> <minimizedAffinity>
-4.38935

> <CNNscore>
0.3984699845

> <CNNaffinity>
4.9118442535

> <CNN_VS>
1.9572224617

> <CNNaffinity_variance>
0.0414189063

$$$$
[H]C([H])([H])C1([H])OC([H])(C([H])([H])[N+](C([H])([H])[H])(C([H])([H])[H])C([H])([H])[H])C([H])([H])OC1([H])[H].[I-]


 12 12  0  0  0  0  0  0  0  0999 V2000
    5.8620   47.7280  128.9407 C   0  0  0  0  0  0  0  0  0  0  0  0
    7.3474   47.9956  129.2057 C   0  0  0  0  0  0  0  0  0  0  0  0
    7.5168   49.5031  129.1271 C   0  0  0  0  0  0  0  0  0  0  0  0
    7.4883   49.9561  130.4676 O   0  0  0  0  0  0  0  0  0  0  0  0
    8.7145   49.5305  131.0160 C   0  0  0  0  0  0  0  0  0  0  0  0
    8.8184   48.0097  130.9945 C   0  0  0  0  0  0  0  0  0  0  0  0
    7.6714   47.4779  130.4327 O   0  0  0  0  0  0  0  0  0  0  0  0
    8.9777   47.5488  132.4068 C   0  0  0  0  0  0  0  0  0  0  0  0
    9.7919   46.4090  132.5965 N   0  0  0  0  0  0  0  0  0  0  0  0
    8.9435   45.2439  132.8951 C   0  0  0  0  0  0  0  0  0  0  0  0
   10.6525   46.6264  133.7700 C   0  0  0  0  0  0  0  0  0  0  0  0
   10.6400   46.0508  131.5115 C   0  0  0  0  0  0  0  0  0  0  0  0
  1  2  1  0  0  0
  2  3  1  0  0  0
  3  4  1  0  0  0
  4  5  1  0  0  0
  5  6  1  0  0  0
  6  8  1  0  0  0
  8  9  1  0  0  0
  9 10  1  0  0  0
  9 11  1  0  0  0
  9 12  1  0  0  0
  6  7  1  0  0  0
  7  2  1  0  0  0
M  CHG 1   9   1
M  END
> <minimizedAffinity>
-4.93748

> <CNNscore>
0.3775594831

> <CNNaffinity>
4.7199487686

> <CNN_VS>
1.7820614576

> <CNNaffinity_variance>
0.0911098868

$$$$
[H]C([H])([H])C1([H])OC([H])(C([H])([H])[N+](C([H])([H])[H])(C([H])([H])[H])C([H])([H])[H])C([H])([H])OC1([H])[H].[I-]


 12 12  0  0  0  0  0  0  0  0999 V2000
    9.8858   48.8632  132.8441 C   0  0  0  0  0  0  0  0  0  0  0  0
   10.2934   47.3860  132.8306 C   0  0  0  0  0  0  0  0  0  0  0  0
    9.5613   46.7442  133.9967 C   0  0  0  0  0  0  0  0  0  0  0  0
    8.4128   46.1386  133.4335 O   0  0  0  0  0  0  0  0  0  0  0  0
    8.9061   45.0268  132.7221 C   0  0  0  0  0  0  0  0  0  0  0  0
    9.8461   45.4711  131.6072 C   0  0  0  0  0  0  0  0  0  0  0  0
    9.9513   46.8505  131.6163 O   0  0  0  0  0  0  0  0  0  0  0  0
    9.2691   44.9936  130.3142 C   0  0  0  0  0  0  0  0  0  0  0  0
   10.1976   44.5085  129.3653 N   0  0  0  0  0  0  0  0  0  0  0  0
    9.5751   43.4350  128.5738 C   0  0  0  0  0  0  0  0  0  0  0  0
   11.3397   43.9120  130.0758 C   0  0  0  0  0  0  0  0  0  0  0  0
   10.7219   45.4629  128.4494 C   0  0  0  0  0  0  0  0  0  0  0  0
  1  2  1  0  0  0
  2  3  1  0  0  0
  3  4  1  0  0  0
  4  5  1  0  0  0
  5  6  1  0  0  0
  6  8  1  0  0  0
  8  9  1  0  0  0
  9 10  1  0  0  0
  9 11  1  0  0  0
  9 12  1  0  0  0
  6  7  1  0  0  0
  7  2  1  0  0  0
M  CHG 1   9   1
M  END
> <minimizedAffinity>
-4.59125

> <CNNscore>
0.3627870083

> <CNNaffinity>
4.8360910416

> <CNN_VS>
1.7544709444

> <CNNaffinity_variance>
0.1273779124

$$$$
[H]C([H])([H])C1([H])OC([H])(C([H])([H])[N+](C([H])([H])[H])(C([H])([H])[H])C([H])([H])[H])C([H])([H])OC1([H])[H].[I-]


 12 12  0  0  0  0  0  0  0  0999 V2000
    8.3954   48.6130  129.6059 C   0  0  0  0  0  0  0  0  0  0  0  0
    8.1095   47.5762  130.6975 C   0  0  0  0  0  0  0  0  0  0  0  0
    7.1452   46.5789  130.0786 C   0  0  0  0  0  0  0  0  0  0  0  0
    7.9470   45.4925  129.6544 O   0  0  0  0  0  0  0  0  0  0  0  0
    8.3408   44.8509  130.8456 C   0  0  0  0  0  0  0  0  0  0  0  0
    9.1711   45.7874  131.7159 C   0  0  0  0  0  0  0  0  0  0  0  0
    9.2971   47.0119  131.0844 O   0  0  0  0  0  0  0  0  0  0  0  0
   10.5099   45.1530  131.9106 C   0  0  0  0  0  0  0  0  0  0  0  0
   10.8160   44.7494  133.2302 N   0  0  0  0  0  0  0  0  0  0  0  0
   10.5001   43.3210  133.3923 C   0  0  0  0  0  0  0  0  0  0  0  0
    9.9566   45.4891  134.1678 C   0  0  0  0  0  0  0  0  0  0  0  0
   12.1617   44.9379  133.6524 C   0  0  0  0  0  0  0  0  0  0  0  0
  1  2  1  0  0  0
  2  3  1  0  0  0
  3  4  1  0  0  0
  4  5  1  0  0  0
  5  6  1  0  0  0
  6  8  1  0  0  0
  8  9  1  0  0  0
  9 10  1  0  0  0
  9 11  1  0  0  0
  9 12  1  0  0  0
  6  7  1  0  0  0
  7  2  1  0  0  0
M  CHG 1   9   1
M  END
> <minimizedAffinity>
-4.63008

> <CNNscore>
0.3619180322

> <CNNaffinity>
4.9702410698

> <CNN_VS>
1.7988198996

> <CNNaffinity_variance>
0.1373953521

$$$$
[H]C([H])([H])C1([H])OC([H])(C([H])([H])[N+](C([H])([H])[H])(C([H])([H])[H])C([H])([H])[H])C([H])([H])OC1([H])[H].[I-]


 12 12  0  0  0  0  0  0  0  0999 V2000
    9.1792   46.9668  129.0685 C   0  0  0  0  0  0  0  0  0  0  0  0
    9.4956   45.5326  129.5058 C   0  0  0  0  0  0  0  0  0  0  0  0
   10.4425   44.9790  128.4549 C   0  0  0  0  0  0  0  0  0  0  0  0
   11.7400   45.1287  129.0000 O   0  0  0  0  0  0  0  0  0  0  0  0
   11.8112   44.1653  130.0258 C   0  0  0  0  0  0  0  0  0  0  0  0
   10.7704   44.4445  131.1041 C   0  0  0  0  0  0  0  0  0  0  0  0
   10.0434   45.5707  130.7615 O   0  0  0  0  0  0  0  0  0  0  0  0
   11.5001   44.6577  132.3904 C   0  0  0  0  0  0  0  0  0  0  0  0
   10.8390   44.2107  133.5570 N   0  0  0  0  0  0  0  0  0  0  0  0
   10.0253   43.0267  133.2369 C   0  0  0  0  0  0  0  0  0  0  0  0
    9.9124   45.2590  134.0126 C   0  0  0  0  0  0  0  0  0  0  0  0
   11.6683   43.8708  134.6622 C   0  0  0  0  0  0  0  0  0  0  0  0
  1  2  1  0  0  0
  2  3  1  0  0  0
  3  4  1  0  0  0
  4  5  1  0  0  0
  5  6  1  0  0  0
  6  8  1  0  0  0
  8  9  1  0  0  0
  9 10  1  0  0  0
  9 11  1  0  0  0
  9 12  1  0  0  0
  6  7  1  0  0  0
  7  2  1  0  0  0
M  CHG 1   9   1
M  END
> <minimizedAffinity>
-4.29627

> <CNNscore>
0.3543999791

> <CNNaffinity>
4.8620080948

> <CNN_VS>
1.7230955362

> <CNNaffinity_variance>
0.0663405433

$$$$
[H]C([H])([H])C1([H])OC([H])(C([H])([H])[N+](C([H])([H])[H])(C([H])([H])[H])C([H])([H])[H])C([H])([H])OC1([H])[H].[I-]


 12 12  0  0  0  0  0  0  0  0999 V2000
   11.3271   44.3112  134.6380 C   0  0  0  0  0  0  0  0  0  0  0  0
   10.1564   44.3917  133.6524 C   0  0  0  0  0  0  0  0  0  0  0  0
    9.2129   45.4407  134.2154 C   0  0  0  0  0  0  0  0  0  0  0  0
    9.5137   46.6332  133.5151 O   0  0  0  0  0  0  0  0  0  0  0  0
    9.0101   46.4227  132.2160 C   0  0  0  0  0  0  0  0  0  0  0  0
    9.7136   45.2477  131.5464 C   0  0  0  0  0  0  0  0  0  0  0  0
   10.6496   44.7158  132.4154 O   0  0  0  0  0  0  0  0  0  0  0  0
   10.3740   45.7633  130.3093 C   0  0  0  0  0  0  0  0  0  0  0  0
   10.8710   44.7833  129.4202 N   0  0  0  0  0  0  0  0  0  0  0  0
   10.6514   45.2228  128.0327 C   0  0  0  0  0  0  0  0  0  0  0  0
   10.1062   43.5398  129.6036 C   0  0  0  0  0  0  0  0  0  0  0  0
   12.2493   44.4542  129.5490 C   0  0  0  0  0  0  0  0  0  0  0  0
  1  2  1  0  0  0
  2  3  1  0  0  0
  3  4  1  0  0  0
  4  5  1  0  0  0
  5  6  1  0  0  0
  6  8  1  0  0  0
  8  9  1  0  0  0
  9 10  1  0  0  0
  9 11  1  0  0  0
  9 12  1  0  0  0
  6  7  1  0  0  0
  7  2  1  0  0  0
M  CHG 1   9   1
M  END
> <minimizedAffinity>
-3.99860

> <CNNscore>
0.3520699739

> <CNNaffinity>
4.9960665703

> <CNN_VS>
1.7589650154

> <CNNaffinity_variance>
0.0724255294

$$$$
[H]Sc1nnc(N([H])C(=O)N([H])N=C([H])c2c([H])c([H])c([H])c(OC([H])([H])[H])c2[H])s1


 23 24  0  0  0  0  0  0  0  0999 V2000
    9.6620   46.0900  129.4287 N   0  0  0  0  0  0  0  0  0  0  0  0
   10.0264   45.6828  130.7313 C   0  0  0  0  0  0  0  0  0  0  0  0
    9.4638   46.2012  131.7275 O   0  0  0  0  0  0  0  0  0  0  0  0
   11.0133   44.7016  130.9477 N   0  0  0  0  0  0  0  0  0  0  0  0
   10.1431   45.6454  128.6124 H   0  0  0  0  0  0  0  0  0  0  0  0
   11.4900   44.2608  130.1453 H   0  0  0  0  0  0  0  0  0  0  0  0
   11.3821   44.2894  132.2663 C   0  0  0  0  0  0  0  0  0  0  0  0
   12.5591   43.8766  132.7282 N   0  0  0  0  0  0  0  0  0  0  0  0
   12.6861   43.5513  133.9422 N   0  0  0  0  0  0  0  0  0  0  0  0
   11.6419   43.6222  134.7578 C   0  0  0  0  0  0  0  0  0  0  0  0
   11.6548   43.2013  136.4906 S   0  0  0  0  0  0  0  0  0  0  0  0
   10.4330   44.1878  133.6963 S   0  0  0  0  0  0  0  0  0  0  0  0
   12.8140   43.7066  137.1408 H   0  0  0  0  0  0  0  0  0  0  0  0
    8.3013   47.9333  129.9827 C   0  0  0  0  0  0  0  0  0  0  0  0
    8.7064   47.0428  129.1472 N   0  0  0  0  0  0  0  0  0  0  0  0
    6.6374   51.1778  129.1253 C   0  0  0  0  0  0  0  0  0  0  0  0
    5.3460   50.7385  128.9245 C   0  0  0  0  0  0  0  0  0  0  0  0
    5.0433   49.4009  129.0714 C   0  0  0  0  0  0  0  0  0  0  0  0
    6.0046   48.4757  129.4176 C   0  0  0  0  0  0  0  0  0  0  0  0
    7.2869   48.9108  129.6172 C   0  0  0  0  0  0  0  0  0  0  0  0
    7.5855   50.2445  129.4700 C   0  0  0  0  0  0  0  0  0  0  0  0
    7.0416   53.1153  127.7198 C   0  0  0  0  0  0  0  0  0  0  0  0
    6.9721   52.5057  128.9868 O   0  0  0  0  0  0  0  0  0  0  0  0
 22 23  1  0  0  0
 23 16  1  0  0  0
 16 17  2  0  0  0
 17 18  1  0  0  0
 18 19  2  0  0  0
 19 20  1  0  0  0
 20 14  1  0  0  0
 14 15  2  0  0  0
 15  1  1  0  0  0
  1  2  1  0  0  0
  2  3  2  0  0  0
  2  4  1  0  0  0
  4  7  1  0  0  0
  7  8  2  0  0  0
  8  9  1  0  0  0
  9 10  2  0  0  0
 10 11  1  0  0  0
 10 12  1  0  0  0
 20 21  2  0  0  0
 21 16  1  0  0  0
 12  7  1  0  0  0
  1  5  1  0  0  0
  4  6  1  0  0  0
 11 13  1  0  0  0
M  END
> <minimizedAffinity>
1.32202

> <CNNscore>
0.5733155608

> <CNNaffinity>
6.4778976440

> <CNN_VS>
3.7138795853

> <CNNaffinity_variance>
1.5190187693

$$$$
[H]Sc1nnc(N([H])C(=O)N([H])N=C([H])c2c([H])c([H])c([H])c(OC([H])([H])[H])c2[H])s1


 23 24  0  0  0  0  0  0  0  0999 V2000
    7.5997   46.7896  130.7930 N   0  0  0  0  0  0  0  0  0  0  0  0
    7.7240   48.1189  130.3318 C   0  0  0  0  0  0  0  0  0  0  0  0
    8.8530   48.6690  130.3099 O   0  0  0  0  0  0  0  0  0  0  0  0
    6.6062   48.8536  129.8909 N   0  0  0  0  0  0  0  0  0  0  0  0
    6.6499   46.3500  130.8030 H   0  0  0  0  0  0  0  0  0  0  0  0
    5.6678   48.4237  129.8993 H   0  0  0  0  0  0  0  0  0  0  0  0
    6.7320   50.1993  129.4240 C   0  0  0  0  0  0  0  0  0  0  0  0
    6.5533   51.3442  130.0770 N   0  0  0  0  0  0  0  0  0  0  0  0
    6.7143   52.4466  129.4814 N   0  0  0  0  0  0  0  0  0  0  0  0
    7.0625   52.4610  128.2012 C   0  0  0  0  0  0  0  0  0  0  0  0
    7.3280   53.9262  127.2200 S   0  0  0  0  0  0  0  0  0  0  0  0
    7.1552   50.7915  127.8664 S   0  0  0  0  0  0  0  0  0  0  0  0
    8.0698   54.9053  127.9361 H   0  0  0  0  0  0  0  0  0  0  0  0
    9.1842   46.1177  132.4037 C   0  0  0  0  0  0  0  0  0  0  0  0
    8.6505   46.0160  131.2375 N   0  0  0  0  0  0  0  0  0  0  0  0
   12.2724   44.0021  132.2701 C   0  0  0  0  0  0  0  0  0  0  0  0
   12.3830   43.6563  133.6002 C   0  0  0  0  0  0  0  0  0  0  0  0
   11.4546   44.1163  134.5105 C   0  0  0  0  0  0  0  0  0  0  0  0
   10.4042   44.9225  134.1275 C   0  0  0  0  0  0  0  0  0  0  0  0
   10.2935   45.2664  132.8073 C   0  0  0  0  0  0  0  0  0  0  0  0
   11.2203   44.8064  131.9024 C   0  0  0  0  0  0  0  0  0  0  0  0
   13.3394   44.2132  130.1000 C   0  0  0  0  0  0  0  0  0  0  0  0
   13.1821   43.5596  131.3367 O   0  0  0  0  0  0  0  0  0  0  0  0
 22 23  1  0  0  0
 23 16  1  0  0  0
 16 17  2  0  0  0
 17 18  1  0  0  0
 18 19  2  0  0  0
 19 20  1  0  0  0
 20 14  1  0  0  0
 14 15  2  0  0  0
 15  1  1  0  0  0
  1  2  1  0  0  0
  2  3  2  0  0  0
  2  4  1  0  0  0
  4  7  1  0  0  0
  7  8  2  0  0  0
  8  9  1  0  0  0
  9 10  2  0  0  0
 10 11  1  0  0  0
 10 12  1  0  0  0
 20 21  2  0  0  0
 21 16  1  0  0  0
 12  7  1  0  0  0
  1  5  1  0  0  0
  4  6  1  0  0  0
 11 13  1  0  0  0
M  END
> <minimizedAffinity>
0.40620

> <CNNscore>
0.5505743623

> <CNNaffinity>
6.3973236084

> <CNN_VS>
3.5222022533

> <CNNaffinity_variance>
0.9773557782

$$$$
[H]Sc1nnc(N([H])C(=O)N([H])N=C([H])c2c([H])c([H])c([H])c(OC([H])([H])[H])c2[H])s1


 23 24  0  0  0  0  0  0  0  0999 V2000
    7.4084   46.6494  130.2820 N   0  0  0  0  0  0  0  0  0  0  0  0
    7.5952   47.9981  129.9061 C   0  0  0  0  0  0  0  0  0  0  0  0
    8.7581   48.4578  129.7883 O   0  0  0  0  0  0  0  0  0  0  0  0
    6.5030   48.8518  129.6570 N   0  0  0  0  0  0  0  0  0  0  0  0
    6.4310   46.2863  130.3744 H   0  0  0  0  0  0  0  0  0  0  0  0
    5.5377   48.4976  129.7471 H   0  0  0  0  0  0  0  0  0  0  0  0
    6.6922   50.2171  129.2765 C   0  0  0  0  0  0  0  0  0  0  0  0
    6.5662   51.3252  130.0013 N   0  0  0  0  0  0  0  0  0  0  0  0
    6.7792   52.4546  129.4769 N   0  0  0  0  0  0  0  0  0  0  0  0
    7.1295   52.5343  128.1996 C   0  0  0  0  0  0  0  0  0  0  0  0
    7.4645   54.0449  127.3133 S   0  0  0  0  0  0  0  0  0  0  0  0
    7.1446   50.8869  127.7590 S   0  0  0  0  0  0  0  0  0  0  0  0
    8.2502   54.9408  128.0892 H   0  0  0  0  0  0  0  0  0  0  0  0
    9.0806   45.7056  131.6491 C   0  0  0  0  0  0  0  0  0  0  0  0
    8.4312   45.7619  130.5399 N   0  0  0  0  0  0  0  0  0  0  0  0
   10.9179   42.4655  132.0452 C   0  0  0  0  0  0  0  0  0  0  0  0
   12.1978   42.9390  132.2420 C   0  0  0  0  0  0  0  0  0  0  0  0
   12.4369   44.2973  132.2419 C   0  0  0  0  0  0  0  0  0  0  0  0
   11.4223   45.2102  132.0485 C   0  0  0  0  0  0  0  0  0  0  0  0
   10.1513   44.7411  131.8531 C   0  0  0  0  0  0  0  0  0  0  0  0
    9.9162   43.3869  131.8537 C   0  0  0  0  0  0  0  0  0  0  0  0
   11.6779   40.1614  131.9668 C   0  0  0  0  0  0  0  0  0  0  0  0
   10.6461   41.1162  132.0397 O   0  0  0  0  0  0  0  0  0  0  0  0
 22 23  1  0  0  0
 23 16  1  0  0  0
 16 17  2  0  0  0
 17 18  1  0  0  0
 18 19  2  0  0  0
 19 20  1  0  0  0
 20 14  1  0  0  0
 14 15  2  0  0  0
 15  1  1  0  0  0
  1  2  1  0  0  0
  2  3  2  0  0  0
  2  4  1  0  0  0
  4  7  1  0  0  0
  7  8  2  0  0  0
  8  9  1  0  0  0
  9 10  2  0  0  0
 10 11  1  0  0  0
 10 12  1  0  0  0
 20 21  2  0  0  0
 21 16  1  0  0  0
 12  7  1  0  0  0
  1  5  1  0  0  0
  4  6  1  0  0  0
 11 13  1  0  0  0
M  END
> <minimizedAffinity>
3.64302

> <CNNscore>
0.5438123941

> <CNNaffinity>
6.4498620033

> <CNN_VS>
3.5075149536

> <CNNaffinity_variance>
1.7118003368

$$$$
[H]Sc1nnc(N([H])C(=O)N([H])N=C([H])c2c([H])c([H])c([H])c(OC([H])([H])[H])c2[H])s1


 23 24  0  0  0  0  0  0  0  0999 V2000
    6.9791   49.7106  130.4846 N   0  0  0  0  0  0  0  0  0  0  0  0
    7.3532   50.5926  129.4466 C   0  0  0  0  0  0  0  0  0  0  0  0
    8.3499   50.3262  128.7302 O   0  0  0  0  0  0  0  0  0  0  0  0
    6.6331   51.7753  129.1890 N   0  0  0  0  0  0  0  0  0  0  0  0
    6.1454   49.9514  131.0698 H   0  0  0  0  0  0  0  0  0  0  0  0
    5.8104   52.0163  129.7639 H   0  0  0  0  0  0  0  0  0  0  0  0
    7.0119   52.6680  128.1383 C   0  0  0  0  0  0  0  0  0  0  0  0
    7.0861   53.9960  128.1387 N   0  0  0  0  0  0  0  0  0  0  0  0
    7.4466   54.6122  127.0965 N   0  0  0  0  0  0  0  0  0  0  0  0
    7.7517   53.9316  125.9991 C   0  0  0  0  0  0  0  0  0  0  0  0
    8.2756   54.6478  124.4523 S   0  0  0  0  0  0  0  0  0  0  0  0
    7.4978   52.3292  126.5242 S   0  0  0  0  0  0  0  0  0  0  0  0
    9.2200   55.6915  124.6549 H   0  0  0  0  0  0  0  0  0  0  0  0
    7.4732   47.4285  130.1618 C   0  0  0  0  0  0  0  0  0  0  0  0
    7.6387   48.5392  130.7895 N   0  0  0  0  0  0  0  0  0  0  0  0
    9.5970   45.0177  132.0874 C   0  0  0  0  0  0  0  0  0  0  0  0
    9.5800   43.9423  131.2248 C   0  0  0  0  0  0  0  0  0  0  0  0
    8.8807   44.0222  130.0387 C   0  0  0  0  0  0  0  0  0  0  0  0
    8.1882   45.1597  129.6827 C   0  0  0  0  0  0  0  0  0  0  0  0
    8.2046   46.2279  130.5384 C   0  0  0  0  0  0  0  0  0  0  0  0
    8.9023   46.1452  131.7197 C   0  0  0  0  0  0  0  0  0  0  0  0
   10.5129   46.1317  134.0400 C   0  0  0  0  0  0  0  0  0  0  0  0
   10.2852   44.9699  133.2785 O   0  0  0  0  0  0  0  0  0  0  0  0
 22 23  1  0  0  0
 23 16  1  0  0  0
 16 17  2  0  0  0
 17 18  1  0  0  0
 18 19  2  0  0  0
 19 20  1  0  0  0
 20 14  1  0  0  0
 14 15  2  0  0  0
 15  1  1  0  0  0
  1  2  1  0  0  0
  2  3  2  0  0  0
  2  4  1  0  0  0
  4  7  1  0  0  0
  7  8  2  0  0  0
  8  9  1  0  0  0
  9 10  2  0  0  0
 10 11  1  0  0  0
 10 12  1  0  0  0
 20 21  2  0  0  0
 21 16  1  0  0  0
 12  7  1  0  0  0
  1  5  1  0  0  0
  4  6  1  0  0  0
 11 13  1  0  0  0
M  END
> <minimizedAffinity>
1.24519

> <CNNscore>
0.5419927239

> <CNNaffinity>
6.1885972023

> <CNN_VS>
3.3541746140

> <CNNaffinity_variance>
0.7081637383

$$$$
[H]Sc1nnc(N([H])C(=O)N([H])N=C([H])c2c([H])c([H])c([H])c(OC([H])([H])[H])c2[H])s1


 23 24  0  0  0  0  0  0  0  0999 V2000
   10.3483   48.9445  131.4923 N   0  0  0  0  0  0  0  0  0  0  0  0
    9.0280   49.0374  130.9989 C   0  0  0  0  0  0  0  0  0  0  0  0
    8.3386   47.9966  130.8611 O   0  0  0  0  0  0  0  0  0  0  0  0
    8.4560   50.2771  130.6531 N   0  0  0  0  0  0  0  0  0  0  0  0
   10.9056   49.8240  131.5995 H   0  0  0  0  0  0  0  0  0  0  0  0
    9.0023   51.1466  130.7574 H   0  0  0  0  0  0  0  0  0  0  0  0
    7.1194   50.3711  130.1537 C   0  0  0  0  0  0  0  0  0  0  0  0
    5.9624   50.2296  130.7942 N   0  0  0  0  0  0  0  0  0  0  0  0
    4.8715   50.3514  130.1690 N   0  0  0  0  0  0  0  0  0  0  0  0
    4.8812   50.6211  128.8699 C   0  0  0  0  0  0  0  0  0  0  0  0
    3.4349   50.8230  127.8465 S   0  0  0  0  0  0  0  0  0  0  0  0
    6.5568   50.6974  128.5621 S   0  0  0  0  0  0  0  0  0  0  0  0
    2.4412   51.6046  128.4974 H   0  0  0  0  0  0  0  0  0  0  0  0
   10.3680   46.7677  132.3963 C   0  0  0  0  0  0  0  0  0  0  0  0
   10.9675   47.7655  131.8486 N   0  0  0  0  0  0  0  0  0  0  0  0
   11.4745   43.1898  132.4693 C   0  0  0  0  0  0  0  0  0  0  0  0
   12.4601   43.2640  133.4306 C   0  0  0  0  0  0  0  0  0  0  0  0
   12.7441   44.4715  134.0335 C   0  0  0  0  0  0  0  0  0  0  0  0
   12.0641   45.6235  133.7010 C   0  0  0  0  0  0  0  0  0  0  0  0
   11.0855   45.5509  132.7468 C   0  0  0  0  0  0  0  0  0  0  0  0
   10.8048   44.3461  132.1477 C   0  0  0  0  0  0  0  0  0  0  0  0
   10.2707   41.9500  130.7645 C   0  0  0  0  0  0  0  0  0  0  0  0
   11.1669   42.0003  131.8488 O   0  0  0  0  0  0  0  0  0  0  0  0
 22 23  1  0  0  0
 23 16  1  0  0  0
 16 17  2  0  0  0
 17 18  1  0  0  0
 18 19  2  0  0  0
 19 20  1  0  0  0
 20 14  1  0  0  0
 14 15  2  0  0  0
 15  1  1  0  0  0
  1  2  1  0  0  0
  2  3  2  0  0  0
  2  4  1  0  0  0
  4  7  1  0  0  0
  7  8  2  0  0  0
  8  9  1  0  0  0
  9 10  2  0  0  0
 10 11  1  0  0  0
 10 12  1  0  0  0
 20 21  2  0  0  0
 21 16  1  0  0  0
 12  7  1  0  0  0
  1  5  1  0  0  0
  4  6  1  0  0  0
 11 13  1  0  0  0
M  END
> <minimizedAffinity>
4.76433

> <CNNscore>
0.5385508537

> <CNNaffinity>
6.3473439217

> <CNN_VS>
3.4183673859

> <CNNaffinity_variance>
1.2485735416

$$$$
[H]Sc1nnc(N([H])C(=O)N([H])N=C([H])c2c([H])c([H])c([H])c(OC([H])([H])[H])c2[H])s1


 23 24  0  0  0  0  0  0  0  0999 V2000
   10.4296   46.8632  129.1815 N   0  0  0  0  0  0  0  0  0  0  0  0
   10.4865   45.6952  129.9738 C   0  0  0  0  0  0  0  0  0  0  0  0
    9.5124   45.3894  130.7055 O   0  0  0  0  0  0  0  0  0  0  0  0
   11.6163   44.8543  129.9671 N   0  0  0  0  0  0  0  0  0  0  0  0
   11.2521   47.0997  128.5789 H   0  0  0  0  0  0  0  0  0  0  0  0
   12.4294   45.0841  129.3742 H   0  0  0  0  0  0  0  0  0  0  0  0
   11.6737   43.6719  130.7691 C   0  0  0  0  0  0  0  0  0  0  0  0
   12.4933   43.3650  131.7708 N   0  0  0  0  0  0  0  0  0  0  0  0
   12.3842   42.2546  132.3630 N   0  0  0  0  0  0  0  0  0  0  0  0
   11.4491   41.3929  131.9839 C   0  0  0  0  0  0  0  0  0  0  0  0
   11.1648   39.7907  132.7134 S   0  0  0  0  0  0  0  0  0  0  0  0
   10.7070   42.2513  130.7110 S   0  0  0  0  0  0  0  0  0  0  0  0
   11.2274   39.8461  134.1329 H   0  0  0  0  0  0  0  0  0  0  0  0
    9.0122   48.5022  130.1091 C   0  0  0  0  0  0  0  0  0  0  0  0
    9.3569   47.7279  129.1413 N   0  0  0  0  0  0  0  0  0  0  0  0
    5.5102   49.7446  129.6368 C   0  0  0  0  0  0  0  0  0  0  0  0
    5.7142   51.0993  129.7918 C   0  0  0  0  0  0  0  0  0  0  0  0
    6.9817   51.5799  130.0459 C   0  0  0  0  0  0  0  0  0  0  0  0
    8.0671   50.7368  130.1514 C   0  0  0  0  0  0  0  0  0  0  0  0
    7.8657   49.3917  129.9976 C   0  0  0  0  0  0  0  0  0  0  0  0
    6.6012   48.9158  129.7445 C   0  0  0  0  0  0  0  0  0  0  0  0
    4.0065   47.8493  129.4387 C   0  0  0  0  0  0  0  0  0  0  0  0
    4.2579   49.2331  129.3824 O   0  0  0  0  0  0  0  0  0  0  0  0
 22 23  1  0  0  0
 23 16  1  0  0  0
 16 17  2  0  0  0
 17 18  1  0  0  0
 18 19  2  0  0  0
 19 20  1  0  0  0
 20 14  1  0  0  0
 14 15  2  0  0  0
 15  1  1  0  0  0
  1  2  1  0  0  0
  2  3  2  0  0  0
  2  4  1  0  0  0
  4  7  1  0  0  0
  7  8  2  0  0  0
  8  9  1  0  0  0
  9 10  2  0  0  0
 10 11  1  0  0  0
 10 12  1  0  0  0
 20 21  2  0  0  0
 21 16  1  0  0  0
 12  7  1  0  0  0
  1  5  1  0  0  0
  4  6  1  0  0  0
 11 13  1  0  0  0
M  END
> <minimizedAffinity>
8.71647

> <CNNscore>
0.5358119011

> <CNNaffinity>
6.1472916603

> <CNN_VS>
3.2937920094

> <CNNaffinity_variance>
1.0681537390

$$$$
[H]Sc1nnc(N([H])C(=O)N([H])N=C([H])c2c([H])c([H])c([H])c(OC([H])([H])[H])c2[H])s1


 23 24  0  0  0  0  0  0  0  0999 V2000
    7.5031   47.6693  130.2609 N   0  0  0  0  0  0  0  0  0  0  0  0
    7.7035   48.9681  129.7430 C   0  0  0  0  0  0  0  0  0  0  0  0
    8.8654   49.4401  129.6741 O   0  0  0  0  0  0  0  0  0  0  0  0
    6.6261   49.7578  129.2966 N   0  0  0  0  0  0  0  0  0  0  0  0
    6.5269   47.2949  130.3095 H   0  0  0  0  0  0  0  0  0  0  0  0
    5.6619   49.3922  129.3429 H   0  0  0  0  0  0  0  0  0  0  0  0
    6.8289   51.0726  128.7723 C   0  0  0  0  0  0  0  0  0  0  0  0
    6.7450   52.2516  129.3822 N   0  0  0  0  0  0  0  0  0  0  0  0
    6.9631   53.3164  128.7385 N   0  0  0  0  0  0  0  0  0  0  0  0
    7.2766   53.2572  127.4506 C   0  0  0  0  0  0  0  0  0  0  0  0
    7.6129   54.6615  126.4043 S   0  0  0  0  0  0  0  0  0  0  0  0
    7.2484   51.5734  127.1819 S   0  0  0  0  0  0  0  0  0  0  0  0
    8.4377   55.6152  127.0616 H   0  0  0  0  0  0  0  0  0  0  0  0
    9.2018   46.0626  129.9619 C   0  0  0  0  0  0  0  0  0  0  0  0
    8.5111   46.8453  130.7139 N   0  0  0  0  0  0  0  0  0  0  0  0
   11.1446   43.8650  132.2914 C   0  0  0  0  0  0  0  0  0  0  0  0
   12.2601   43.6237  131.5178 C   0  0  0  0  0  0  0  0  0  0  0  0
   12.3578   44.1784  130.2589 C   0  0  0  0  0  0  0  0  0  0  0  0
   11.3613   44.9781  129.7416 C   0  0  0  0  0  0  0  0  0  0  0  0
   10.2535   45.2182  130.5088 C   0  0  0  0  0  0  0  0  0  0  0  0
   10.1590   44.6639  131.7631 C   0  0  0  0  0  0  0  0  0  0  0  0
   11.6028   43.9414  134.6740 C   0  0  0  0  0  0  0  0  0  0  0  0
   11.0166   43.3265  133.5516 O   0  0  0  0  0  0  0  0  0  0  0  0
 22 23  1  0  0  0
 23 16  1  0  0  0
 16 17  2  0  0  0
 17 18  1  0  0  0
 18 19  2  0  0  0
 19 20  1  0  0  0
 20 14  1  0  0  0
 14 15  2  0  0  0
 15  1  1  0  0  0
  1  2  1  0  0  0
  2  3  2  0  0  0
  2  4  1  0  0  0
  4  7  1  0  0  0
  7  8  2  0  0  0
  8  9  1  0  0  0
  9 10  2  0  0  0
 10 11  1  0  0  0
 10 12  1  0  0  0
 20 21  2  0  0  0
 21 16  1  0  0  0
 12  7  1  0  0  0
  1  5  1  0  0  0
  4  6  1  0  0  0
 11 13  1  0  0  0
M  END
> <minimizedAffinity>
0.50840

> <CNNscore>
0.5349746943

> <CNNaffinity>
6.3132009506

> <CNN_VS>
3.3774027824

> <CNNaffinity_variance>
0.6316276789

$$$$
[H]Sc1nnc(N([H])C(=O)N([H])N=C([H])c2c([H])c([H])c([H])c(OC([H])([H])[H])c2[H])s1


 23 24  0  0  0  0  0  0  0  0999 V2000
    9.8457   46.8227  129.2872 N   0  0  0  0  0  0  0  0  0  0  0  0
    9.7899   45.8588  130.3182 C   0  0  0  0  0  0  0  0  0  0  0  0
    9.1576   46.1102  131.3740 O   0  0  0  0  0  0  0  0  0  0  0  0
   10.4299   44.6102  130.1954 N   0  0  0  0  0  0  0  0  0  0  0  0
   10.3779   46.5930  128.4156 H   0  0  0  0  0  0  0  0  0  0  0  0
   10.9557   44.3800  129.3375 H   0  0  0  0  0  0  0  0  0  0  0  0
   10.3733   43.6345  131.2391 C   0  0  0  0  0  0  0  0  0  0  0  0
   11.2534   42.6938  131.5699 N   0  0  0  0  0  0  0  0  0  0  0  0
   11.0188   41.9168  132.5379 N   0  0  0  0  0  0  0  0  0  0  0  0
    9.8909   42.0405  133.2257 C   0  0  0  0  0  0  0  0  0  0  0  0
    9.4113   41.0279  134.6129 S   0  0  0  0  0  0  0  0  0  0  0  0
    9.1531   43.3474  132.4159 S   0  0  0  0  0  0  0  0  0  0  0  0
   10.5004   40.8113  135.5010 H   0  0  0  0  0  0  0  0  0  0  0  0
    7.9860   48.2655  129.1624 C   0  0  0  0  0  0  0  0  0  0  0  0
    9.2433   48.0613  129.3428 N   0  0  0  0  0  0  0  0  0  0  0  0
    7.0421   51.7803  128.2758 C   0  0  0  0  0  0  0  0  0  0  0  0
    6.3268   52.1272  129.4023 C   0  0  0  0  0  0  0  0  0  0  0  0
    6.1664   51.2146  130.4239 C   0  0  0  0  0  0  0  0  0  0  0  0
    6.7061   49.9481  130.3537 C   0  0  0  0  0  0  0  0  0  0  0  0
    7.4164   49.6028  129.2357 C   0  0  0  0  0  0  0  0  0  0  0  0
    7.5746   50.5145  128.2193 C   0  0  0  0  0  0  0  0  0  0  0  0
    7.3707   54.0477  127.4734 C   0  0  0  0  0  0  0  0  0  0  0  0
    7.2205   52.6678  127.2389 O   0  0  0  0  0  0  0  0  0  0  0  0
 22 23  1  0  0  0
 23 16  1  0  0  0
 16 17  2  0  0  0
 17 18  1  0  0  0
 18 19  2  0  0  0
 19 20  1  0  0  0
 20 14  1  0  0  0
 14 15  2  0  0  0
 15  1  1  0  0  0
  1  2  1  0  0  0
  2  3  2  0  0  0
  2  4  1  0  0  0
  4  7  1  0  0  0
  7  8  2  0  0  0
  8  9  1  0  0  0
  9 10  2  0  0  0
 10 11  1  0  0  0
 10 12  1  0  0  0
 20 21  2  0  0  0
 21 16  1  0  0  0
 12  7  1  0  0  0
  1  5  1  0  0  0
  4  6  1  0  0  0
 11 13  1  0  0  0
M  END
> <minimizedAffinity>
6.00558

> <CNNscore>
0.5110246539

> <CNNaffinity>
5.9959859848

> <CNN_VS>
3.0640966892

> <CNNaffinity_variance>
0.6763409376

$$$$
[H]Sc1nnc(N([H])C(=O)N([H])N=C([H])c2c([H])c([H])c([H])c(OC([H])([H])[H])c2[H])s1


 23 24  0  0  0  0  0  0  0  0999 V2000
    7.0665   46.1664  130.6709 N   0  0  0  0  0  0  0  0  0  0  0  0
    7.2737   47.5258  130.3478 C   0  0  0  0  0  0  0  0  0  0  0  0
    8.3895   48.0574  130.5715 O   0  0  0  0  0  0  0  0  0  0  0  0
    6.2539   48.3111  129.7759 N   0  0  0  0  0  0  0  0  0  0  0  0
    6.1293   45.7429  130.4763 H   0  0  0  0  0  0  0  0  0  0  0  0
    5.3284   47.8972  129.5826 H   0  0  0  0  0  0  0  0  0  0  0  0
    6.4637   49.6872  129.4489 C   0  0  0  0  0  0  0  0  0  0  0  0
    6.2482   50.7759  130.1819 N   0  0  0  0  0  0  0  0  0  0  0  0
    6.4999   51.9199  129.7089 N   0  0  0  0  0  0  0  0  0  0  0  0
    6.9804   52.0344  128.4774 C   0  0  0  0  0  0  0  0  0  0  0  0
    7.3861   53.5697  127.6661 S   0  0  0  0  0  0  0  0  0  0  0  0
    7.0632   50.3985  128.0029 S   0  0  0  0  0  0  0  0  0  0  0  0
    8.0747   54.4548  128.5404 H   0  0  0  0  0  0  0  0  0  0  0  0
    9.0067   44.8307  130.5848 C   0  0  0  0  0  0  0  0  0  0  0  0
    8.0195   45.3431  131.2313 N   0  0  0  0  0  0  0  0  0  0  0  0
   11.7300   43.6313  132.8598 C   0  0  0  0  0  0  0  0  0  0  0  0
   11.8062   42.3120  132.4667 C   0  0  0  0  0  0  0  0  0  0  0  0
   10.9735   41.8405  131.4734 C   0  0  0  0  0  0  0  0  0  0  0  0
   10.0541   42.6581  130.8519 C   0  0  0  0  0  0  0  0  0  0  0  0
    9.9777   43.9680  131.2414 C   0  0  0  0  0  0  0  0  0  0  0  0
   10.8089   44.4349  132.2317 C   0  0  0  0  0  0  0  0  0  0  0  0
   12.5745   45.5079  134.1474 C   0  0  0  0  0  0  0  0  0  0  0  0
   12.5467   44.1328  133.8478 O   0  0  0  0  0  0  0  0  0  0  0  0
 22 23  1  0  0  0
 23 16  1  0  0  0
 16 17  2  0  0  0
 17 18  1  0  0  0
 18 19  2  0  0  0
 19 20  1  0  0  0
 20 14  1  0  0  0
 14 15  2  0  0  0
 15  1  1  0  0  0
  1  2  1  0  0  0
  2  3  2  0  0  0
  2  4  1  0  0  0
  4  7  1  0  0  0
  7  8  2  0  0  0
  8  9  1  0  0  0
  9 10  2  0  0  0
 10 11  1  0  0  0
 10 12  1  0  0  0
 20 21  2  0  0  0
 21 16  1  0  0  0
 12  7  1  0  0  0
  1  5  1  0  0  0
  4  6  1  0  0  0
 11 13  1  0  0  0
M  END
> <minimizedAffinity>
0.31735

> <CNNscore>
0.5071446896

> <CNNaffinity>
6.3736066818

> <CNN_VS>
3.2323408127

> <CNNaffinity_variance>
1.1881917715

$$$$
[H]c1c([H])c(-c2c([H])c(SC([H])([H])[H])n([H])c2-c2c([H])c([H])c(S(=O)(=O)C([H])([H])[H])c([H])c2[H])c([H])c([H])c1F


 25 27  0  0  0  0  0  0  0  0999 V2000
    9.9404   45.3989  128.0006 C   0  0  0  0  0  0  0  0  0  0  0  0
    9.7580   46.7040  128.4818 C   0  0  0  0  0  0  0  0  0  0  0  0
    9.9350   46.6920  129.8431 C   0  0  0  0  0  0  0  0  0  0  0  0
   10.2214   45.3984  130.1893 C   0  0  0  0  0  0  0  0  0  0  0  0
   10.2202   44.6384  129.0707 N   0  0  0  0  0  0  0  0  0  0  0  0
   10.4038   43.6190  129.0126 H   0  0  0  0  0  0  0  0  0  0  0  0
    9.8384   47.8284  130.7413 C   0  0  0  0  0  0  0  0  0  0  0  0
    9.1772   48.9761  130.3543 C   0  0  0  0  0  0  0  0  0  0  0  0
    9.0662   50.0601  131.1606 C   0  0  0  0  0  0  0  0  0  0  0  0
    9.6228   50.0436  132.4147 C   0  0  0  0  0  0  0  0  0  0  0  0
    9.4870   51.1420  133.1765 F   0  0  0  0  0  0  0  0  0  0  0  0
   10.2942   48.9033  132.8322 C   0  0  0  0  0  0  0  0  0  0  0  0
   10.3991   47.8130  132.0059 C   0  0  0  0  0  0  0  0  0  0  0  0
   10.4749   44.9468  131.5436 C   0  0  0  0  0  0  0  0  0  0  0  0
   11.7928   44.7542  131.9717 C   0  0  0  0  0  0  0  0  0  0  0  0
   11.9553   44.3281  133.2723 C   0  0  0  0  0  0  0  0  0  0  0  0
   10.9184   44.0912  134.1402 C   0  0  0  0  0  0  0  0  0  0  0  0
    9.6221   44.2840  133.7076 C   0  0  0  0  0  0  0  0  0  0  0  0
    9.4276   44.7049  132.4277 C   0  0  0  0  0  0  0  0  0  0  0  0
   11.1619   43.5570  135.7820 S   0  0  0  0  0  0  0  0  0  0  0  0
   10.4592   44.7739  136.8790 C   0  0  0  0  0  0  0  0  0  0  0  0
   12.6501   43.4869  136.0563 O   0  0  0  0  0  0  0  0  0  0  0  0
   10.6089   42.1945  136.0019 O   0  0  0  0  0  0  0  0  0  0  0  0
    8.8377   43.3129  126.1707 C   0  0  0  0  0  0  0  0  0  0  0  0
    9.8314   44.8122  126.3276 S   0  0  0  0  0  0  0  0  0  0  0  0
 24 25  1  0  0  0
 25  1  1  0  0  0
  1  2  2  0  0  0
  2  3  1  0  0  0
  3  7  1  0  0  0
  7  8  2  0  0  0
  8  9  1  0  0  0
  9 10  2  0  0  0
 10 11  1  0  0  0
 10 12  1  0  0  0
 12 13  2  0  0  0
  3  4  2  0  0  0
  4 14  1  0  0  0
 14 15  2  0  0  0
 15 16  1  0  0  0
 16 17  2  0  0  0
 17 20  1  0  0  0
 20 21  1  0  0  0
 20 22  2  0  0  0
 20 23  2  0  0  0
 17 18  1  0  0  0
 18 19  2  0  0  0
  4  5  1  0  0  0
  5  1  1  0  0  0
 13  7  1  0  0  0
 19 14  1  0  0  0
  5  6  1  0  0  0
M  END
> <minimizedAffinity>
10.14467

> <CNNscore>
0.4488418698

> <CNNaffinity>
7.3478255272

> <CNN_VS>
3.2980117798

> <CNNaffinity_variance>
1.8595504761

$$$$
[H]c1c([H])c(-c2c([H])c(SC([H])([H])[H])n([H])c2-c2c([H])c([H])c(S(=O)(=O)C([H])([H])[H])c([H])c2[H])c([H])c([H])c1F


 25 27  0  0  0  0  0  0  0  0999 V2000
    9.5665   43.0149  129.8207 C   0  0  0  0  0  0  0  0  0  0  0  0
    9.7823   43.3004  131.1773 C   0  0  0  0  0  0  0  0  0  0  0  0
    9.3042   44.5611  131.4355 C   0  0  0  0  0  0  0  0  0  0  0  0
    8.8034   45.0396  130.2542 C   0  0  0  0  0  0  0  0  0  0  0  0
    8.9698   44.0977  129.2981 N   0  0  0  0  0  0  0  0  0  0  0  0
    8.6902   44.1685  128.3016 H   0  0  0  0  0  0  0  0  0  0  0  0
    9.3244   45.2527  132.7117 C   0  0  0  0  0  0  0  0  0  0  0  0
   10.5053   45.7512  133.2226 C   0  0  0  0  0  0  0  0  0  0  0  0
   10.5686   46.4005  134.4108 C   0  0  0  0  0  0  0  0  0  0  0  0
    9.4307   46.5835  135.1554 C   0  0  0  0  0  0  0  0  0  0  0  0
    9.5441   47.2323  136.3265 F   0  0  0  0  0  0  0  0  0  0  0  0
    8.2276   46.0933  134.6677 C   0  0  0  0  0  0  0  0  0  0  0  0
    8.1778   45.4379  133.4633 C   0  0  0  0  0  0  0  0  0  0  0  0
    8.2032   46.3487  130.0860 C   0  0  0  0  0  0  0  0  0  0  0  0
    6.8196   46.4562  129.9095 C   0  0  0  0  0  0  0  0  0  0  0  0
    6.3213   47.7325  129.7602 C   0  0  0  0  0  0  0  0  0  0  0  0
    7.0936   48.8673  129.7760 C   0  0  0  0  0  0  0  0  0  0  0  0
    8.4576   48.7500  129.9505 C   0  0  0  0  0  0  0  0  0  0  0  0
    8.9813   47.5025  130.1010 C   0  0  0  0  0  0  0  0  0  0  0  0
    6.4276   50.4678  129.5889 S   0  0  0  0  0  0  0  0  0  0  0  0
    4.6694   50.3189  129.3351 C   0  0  0  0  0  0  0  0  0  0  0  0
    7.0249   51.1026  128.3498 O   0  0  0  0  0  0  0  0  0  0  0  0
    6.7721   51.3421  130.7411 O   0  0  0  0  0  0  0  0  0  0  0  0
   10.0423   41.7978  127.1360 C   0  0  0  0  0  0  0  0  0  0  0  0
    9.9812   41.5400  128.9219 S   0  0  0  0  0  0  0  0  0  0  0  0
 24 25  1  0  0  0
 25  1  1  0  0  0
  1  2  2  0  0  0
  2  3  1  0  0  0
  3  7  1  0  0  0
  7  8  2  0  0  0
  8  9  1  0  0  0
  9 10  2  0  0  0
 10 11  1  0  0  0
 10 12  1  0  0  0
 12 13  2  0  0  0
  3  4  2  0  0  0
  4 14  1  0  0  0
 14 15  2  0  0  0
 15 16  1  0  0  0
 16 17  2  0  0  0
 17 20  1  0  0  0
 20 21  1  0  0  0
 20 22  2  0  0  0
 20 23  2  0  0  0
 17 18  1  0  0  0
 18 19  2  0  0  0
  4  5  1  0  0  0
  5  1  1  0  0  0
 13  7  1  0  0  0
 19 14  1  0  0  0
  5  6  1  0  0  0
M  END
> <minimizedAffinity>
1.54243

> <CNNscore>
0.4265364707

> <CNNaffinity>
7.2746367455

> <CNN_VS>
3.1028978825

> <CNNaffinity_variance>
1.0699459314

$$$$
[H]c1c([H])c(-c2c([H])c(SC([H])([H])[H])n([H])c2-c2c([H])c([H])c(S(=O)(=O)C([H])([H])[H])c([H])c2[H])c([H])c([H])c1F


 25 27  0  0  0  0  0  0  0  0999 V2000
    9.1128   40.8100  130.2841 C   0  0  0  0  0  0  0  0  0  0  0  0
    9.3826   41.0420  131.6412 C   0  0  0  0  0  0  0  0  0  0  0  0
    9.4586   42.3980  131.8415 C   0  0  0  0  0  0  0  0  0  0  0  0
    9.2386   42.9866  130.6248 C   0  0  0  0  0  0  0  0  0  0  0  0
    9.0331   42.0177  129.7039 N   0  0  0  0  0  0  0  0  0  0  0  0
    8.8404   42.1525  128.6936 H   0  0  0  0  0  0  0  0  0  0  0  0
    9.7204   43.0767  133.0979 C   0  0  0  0  0  0  0  0  0  0  0  0
   10.8946   42.8522  133.7869 C   0  0  0  0  0  0  0  0  0  0  0  0
   11.1771   43.4628  134.9637 C   0  0  0  0  0  0  0  0  0  0  0  0
   10.2795   44.3425  135.5143 C   0  0  0  0  0  0  0  0  0  0  0  0
   10.6040   44.9221  136.6823 F   0  0  0  0  0  0  0  0  0  0  0  0
    9.0894   44.5888  134.8446 C   0  0  0  0  0  0  0  0  0  0  0  0
    8.8162   43.9639  133.6540 C   0  0  0  0  0  0  0  0  0  0  0  0
    9.2375   44.4178  130.3922 C   0  0  0  0  0  0  0  0  0  0  0  0
    9.7999   44.9264  129.2166 C   0  0  0  0  0  0  0  0  0  0  0  0
    9.7585   46.2955  129.0636 C   0  0  0  0  0  0  0  0  0  0  0  0
    9.2092   47.1565  129.9808 C   0  0  0  0  0  0  0  0  0  0  0  0
    8.6572   46.6443  131.1373 C   0  0  0  0  0  0  0  0  0  0  0  0
    8.6821   45.2954  131.3186 C   0  0  0  0  0  0  0  0  0  0  0  0
    9.1699   48.8845  129.7514 S   0  0  0  0  0  0  0  0  0  0  0  0
    9.4141   49.6674  131.3342 C   0  0  0  0  0  0  0  0  0  0  0  0
    7.7978   49.2780  129.2440 O   0  0  0  0  0  0  0  0  0  0  0  0
   10.1590   49.3239  128.7319 O   0  0  0  0  0  0  0  0  0  0  0  0
    8.9218   39.4191  127.6489 C   0  0  0  0  0  0  0  0  0  0  0  0
    8.9117   39.2563  129.4470 S   0  0  0  0  0  0  0  0  0  0  0  0
 24 25  1  0  0  0
 25  1  1  0  0  0
  1  2  2  0  0  0
  2  3  1  0  0  0
  3  7  1  0  0  0
  7  8  2  0  0  0
  8  9  1  0  0  0
  9 10  2  0  0  0
 10 11  1  0  0  0
 10 12  1  0  0  0
 12 13  2  0  0  0
  3  4  2  0  0  0
  4 14  1  0  0  0
 14 15  2  0  0  0
 15 16  1  0  0  0
 16 17  2  0  0  0
 17 20  1  0  0  0
 20 21  1  0  0  0
 20 22  2  0  0  0
 20 23  2  0  0  0
 17 18  1  0  0  0
 18 19  2  0  0  0
  4  5  1  0  0  0
  5  1  1  0  0  0
 13  7  1  0  0  0
 19 14  1  0  0  0
  5  6  1  0  0  0
M  END
> <minimizedAffinity>
17.87792

> <CNNscore>
0.4220372140

> <CNNaffinity>
7.3078751564

> <CNN_VS>
3.0841953754

> <CNNaffinity_variance>
2.4073369503

$$$$
[H]c1c([H])c(-c2c([H])c(SC([H])([H])[H])n([H])c2-c2c([H])c([H])c(S(=O)(=O)C([H])([H])[H])c([H])c2[H])c([H])c([H])c1F


 25 27  0  0  0  0  0  0  0  0999 V2000
    9.5519   43.1049  129.8408 C   0  0  0  0  0  0  0  0  0  0  0  0
    9.8249   43.4259  131.1790 C   0  0  0  0  0  0  0  0  0  0  0  0
    9.3191   44.6761  131.4359 C   0  0  0  0  0  0  0  0  0  0  0  0
    8.7452   45.1132  130.2719 C   0  0  0  0  0  0  0  0  0  0  0  0
    8.8951   44.1569  129.3274 N   0  0  0  0  0  0  0  0  0  0  0  0
    8.5645   44.1976  128.3450 H   0  0  0  0  0  0  0  0  0  0  0  0
    9.3796   45.3950  132.6957 C   0  0  0  0  0  0  0  0  0  0  0  0
    8.2879   45.4288  133.5390 C   0  0  0  0  0  0  0  0  0  0  0  0
    8.3013   46.0901  134.7222 C   0  0  0  0  0  0  0  0  0  0  0  0
    9.4299   46.7603  135.1221 C   0  0  0  0  0  0  0  0  0  0  0  0
    9.3945   47.4014  136.3023 F   0  0  0  0  0  0  0  0  0  0  0  0
   10.5441   46.7445  134.2952 C   0  0  0  0  0  0  0  0  0  0  0  0
   10.5169   46.0710  133.1000 C   0  0  0  0  0  0  0  0  0  0  0  0
    8.0951   46.3988  130.1082 C   0  0  0  0  0  0  0  0  0  0  0  0
    8.8595   47.5695  130.1532 C   0  0  0  0  0  0  0  0  0  0  0  0
    8.1730   48.7528  129.9858 C   0  0  0  0  0  0  0  0  0  0  0  0
    6.8176   48.8347  129.7836 C   0  0  0  0  0  0  0  0  0  0  0  0
    6.0728   47.6736  129.7412 C   0  0  0  0  0  0  0  0  0  0  0  0
    6.7214   46.4877  129.9031 C   0  0  0  0  0  0  0  0  0  0  0  0
    5.9825   50.3504  129.5705 S   0  0  0  0  0  0  0  0  0  0  0  0
    7.0259   51.4381  128.6188 C   0  0  0  0  0  0  0  0  0  0  0  0
    5.7669   50.9834  130.9299 O   0  0  0  0  0  0  0  0  0  0  0  0
    4.6418   50.1551  128.9581 O   0  0  0  0  0  0  0  0  0  0  0  0
   10.0727   41.8814  127.1674 C   0  0  0  0  0  0  0  0  0  0  0  0
    9.9699   41.6251  128.9516 S   0  0  0  0  0  0  0  0  0  0  0  0
 24 25  1  0  0  0
 25  1  1  0  0  0
  1  2  2  0  0  0
  2  3  1  0  0  0
  3  7  1  0  0  0
  7  8  2  0  0  0
  8  9  1  0  0  0
  9 10  2  0  0  0
 10 11  1  0  0  0
 10 12  1  0  0  0
 12 13  2  0  0  0
  3  4  2  0  0  0
  4 14  1  0  0  0
 14 15  2  0  0  0
 15 16  1  0  0  0
 16 17  2  0  0  0
 17 20  1  0  0  0
 20 21  1  0  0  0
 20 22  2  0  0  0
 20 23  2  0  0  0
 17 18  1  0  0  0
 18 19  2  0  0  0
  4  5  1  0  0  0
  5  1  1  0  0  0
 13  7  1  0  0  0
 19 14  1  0  0  0
  5  6  1  0  0  0
M  END
> <minimizedAffinity>
0.95582

> <CNNscore>
0.4199601412

> <CNNaffinity>
7.2489309311

> <CNN_VS>
3.0442621708

> <CNNaffinity_variance>
1.0327252150

$$$$
[H]c1c([H])c(-c2c([H])c(SC([H])([H])[H])n([H])c2-c2c([H])c([H])c(S(=O)(=O)C([H])([H])[H])c([H])c2[H])c([H])c([H])c1F


 25 27  0  0  0  0  0  0  0  0999 V2000
   11.6535   44.6501  133.6190 C   0  0  0  0  0  0  0  0  0  0  0  0
   11.5167   43.8859  132.4504 C   0  0  0  0  0  0  0  0  0  0  0  0
   10.7133   44.5738  131.5751 C   0  0  0  0  0  0  0  0  0  0  0  0
   10.3639   45.7415  132.1993 C   0  0  0  0  0  0  0  0  0  0  0  0
   10.9376   45.7686  133.4237 N   0  0  0  0  0  0  0  0  0  0  0  0
   10.8574   46.5241  134.1301 H   0  0  0  0  0  0  0  0  0  0  0  0
   10.3124   44.1477  130.2465 C   0  0  0  0  0  0  0  0  0  0  0  0
   10.9684   44.6210  129.1286 C   0  0  0  0  0  0  0  0  0  0  0  0
   10.6245   44.2510  127.8707 C   0  0  0  0  0  0  0  0  0  0  0  0
    9.5886   43.3735  127.6715 C   0  0  0  0  0  0  0  0  0  0  0  0
    9.2848   43.0373  126.4066 F   0  0  0  0  0  0  0  0  0  0  0  0
    8.9097   42.8800  128.7765 C   0  0  0  0  0  0  0  0  0  0  0  0
    9.2682   43.2630  130.0444 C   0  0  0  0  0  0  0  0  0  0  0  0
    9.5118   46.7609  131.6186 C   0  0  0  0  0  0  0  0  0  0  0  0
    9.9349   48.0943  131.6151 C   0  0  0  0  0  0  0  0  0  0  0  0
    9.0740   49.0057  131.0426 C   0  0  0  0  0  0  0  0  0  0  0  0
    7.8595   48.6777  130.4932 C   0  0  0  0  0  0  0  0  0  0  0  0
    7.4515   47.3593  130.5022 C   0  0  0  0  0  0  0  0  0  0  0  0
    8.2795   46.4342  131.0604 C   0  0  0  0  0  0  0  0  0  0  0  0
    6.7974   49.8577  129.7723 S   0  0  0  0  0  0  0  0  0  0  0  0
    5.3974   49.0022  129.0752 C   0  0  0  0  0  0  0  0  0  0  0  0
    7.5316   50.5480  128.6413 O   0  0  0  0  0  0  0  0  0  0  0  0
    6.4040   50.9084  130.7480 O   0  0  0  0  0  0  0  0  0  0  0  0
   11.6106   43.3159  136.2898 C   0  0  0  0  0  0  0  0  0  0  0  0
   12.5703   44.2649  135.0907 S   0  0  0  0  0  0  0  0  0  0  0  0
 24 25  1  0  0  0
 25  1  1  0  0  0
  1  2  2  0  0  0
  2  3  1  0  0  0
  3  7  1  0  0  0
  7  8  2  0  0  0
  8  9  1  0  0  0
  9 10  2  0  0  0
 10 11  1  0  0  0
 10 12  1  0  0  0
 12 13  2  0  0  0
  3  4  2  0  0  0
  4 14  1  0  0  0
 14 15  2  0  0  0
 15 16  1  0  0  0
 16 17  2  0  0  0
 17 20  1  0  0  0
 20 21  1  0  0  0
 20 22  2  0  0  0
 20 23  2  0  0  0
 17 18  1  0  0  0
 18 19  2  0  0  0
  4  5  1  0  0  0
  5  1  1  0  0  0
 13  7  1  0  0  0
 19 14  1  0  0  0
  5  6  1  0  0  0
M  END
> <minimizedAffinity>
-2.54497

> <CNNscore>
0.4074937105

> <CNNaffinity>
7.3325142860

> <CNN_VS>
2.9879534245

> <CNNaffinity_variance>
0.8453205824

$$$$
[H]c1c([H])c(-c2c([H])c(SC([H])([H])[H])n([H])c2-c2c([H])c([H])c(S(=O)(=O)C([H])([H])[H])c([H])c2[H])c([H])c([H])c1F


 25 27  0  0  0  0  0  0  0  0999 V2000
   10.2860   45.6143  127.5561 C   0  0  0  0  0  0  0  0  0  0  0  0
    9.4128   46.7119  127.5859 C   0  0  0  0  0  0  0  0  0  0  0  0
    9.1358   47.0090  128.8973 C   0  0  0  0  0  0  0  0  0  0  0  0
    9.8295   46.1062  129.6583 C   0  0  0  0  0  0  0  0  0  0  0  0
   10.5130   45.2785  128.8357 N   0  0  0  0  0  0  0  0  0  0  0  0
   11.1289   44.4929  129.1176 H   0  0  0  0  0  0  0  0  0  0  0  0
    8.2761   48.0730  129.3836 C   0  0  0  0  0  0  0  0  0  0  0  0
    8.7884   49.0902  130.1626 C   0  0  0  0  0  0  0  0  0  0  0  0
    8.0205   50.1005  130.6390 C   0  0  0  0  0  0  0  0  0  0  0  0
    6.6794   50.1388  130.3514 C   0  0  0  0  0  0  0  0  0  0  0  0
    5.9598   51.1596  130.8467 F   0  0  0  0  0  0  0  0  0  0  0  0
    6.1350   49.1296  129.5700 C   0  0  0  0  0  0  0  0  0  0  0  0
    6.9238   48.1127  129.0942 C   0  0  0  0  0  0  0  0  0  0  0  0
    9.8101   46.0662  131.1075 C   0  0  0  0  0  0  0  0  0  0  0  0
   10.9597   46.4176  131.8232 C   0  0  0  0  0  0  0  0  0  0  0  0
   10.8643   46.3592  133.1969 C   0  0  0  0  0  0  0  0  0  0  0  0
    9.7310   45.9844  133.8748 C   0  0  0  0  0  0  0  0  0  0  0  0
    8.6026   45.6394  133.1592 C   0  0  0  0  0  0  0  0  0  0  0  0
    8.6640   45.6868  131.8001 C   0  0  0  0  0  0  0  0  0  0  0  0
    9.6451   45.9268  135.6154 S   0  0  0  0  0  0  0  0  0  0  0  0
   10.5851   44.5207  136.1783 C   0  0  0  0  0  0  0  0  0  0  0  0
    8.2020   45.7167  136.0255 O   0  0  0  0  0  0  0  0  0  0  0  0
   10.0954   47.2045  136.2281 O   0  0  0  0  0  0  0  0  0  0  0  0
   10.4497   45.5160  124.5763 C   0  0  0  0  0  0  0  0  0  0  0  0
   10.9790   44.7912  126.1429 S   0  0  0  0  0  0  0  0  0  0  0  0
 24 25  1  0  0  0
 25  1  1  0  0  0
  1  2  2  0  0  0
  2  3  1  0  0  0
  3  7  1  0  0  0
  7  8  2  0  0  0
  8  9  1  0  0  0
  9 10  2  0  0  0
 10 11  1  0  0  0
 10 12  1  0  0  0
 12 13  2  0  0  0
  3  4  2  0  0  0
  4 14  1  0  0  0
 14 15  2  0  0  0
 15 16  1  0  0  0
 16 17  2  0  0  0
 17 20  1  0  0  0
 20 21  1  0  0  0
 20 22  2  0  0  0
 20 23  2  0  0  0
 17 18  1  0  0  0
 18 19  2  0  0  0
  4  5  1  0  0  0
  5  1  1  0  0  0
 13  7  1  0  0  0
 19 14  1  0  0  0
  5  6  1  0  0  0
M  END
> <minimizedAffinity>
10.09788

> <CNNscore>
0.3980972171

> <CNNaffinity>
7.0782990456

> <CNN_VS>
2.8178510666

> <CNNaffinity_variance>
1.7506870031

$$$$
[H]c1c([H])c(-c2c([H])c(SC([H])([H])[H])n([H])c2-c2c([H])c([H])c(S(=O)(=O)C([H])([H])[H])c([H])c2[H])c([H])c([H])c1F


 25 27  0  0  0  0  0  0  0  0999 V2000
   10.0210   42.9894  128.5676 C   0  0  0  0  0  0  0  0  0  0  0  0
   10.6131   43.2343  129.8157 C   0  0  0  0  0  0  0  0  0  0  0  0
   10.1472   44.4365  130.2872 C   0  0  0  0  0  0  0  0  0  0  0  0
    9.2829   44.9198  129.3412 C   0  0  0  0  0  0  0  0  0  0  0  0
    9.2207   44.0377  128.3180 N   0  0  0  0  0  0  0  0  0  0  0  0
    8.6508   44.1265  127.4557 H   0  0  0  0  0  0  0  0  0  0  0  0
   10.5007   45.0721  131.5436 C   0  0  0  0  0  0  0  0  0  0  0  0
   11.7295   45.6791  131.7032 C   0  0  0  0  0  0  0  0  0  0  0  0
   12.1001   46.2811  132.8598 C   0  0  0  0  0  0  0  0  0  0  0  0
   11.2406   46.3032  133.9292 C   0  0  0  0  0  0  0  0  0  0  0  0
   11.6532   46.9112  135.0541 F   0  0  0  0  0  0  0  0  0  0  0  0
    9.9973   45.7010  133.7990 C   0  0  0  0  0  0  0  0  0  0  0  0
    9.6349   45.0950  132.6224 C   0  0  0  0  0  0  0  0  0  0  0  0
    8.5698   46.1779  129.4456 C   0  0  0  0  0  0  0  0  0  0  0  0
    9.2463   47.3773  129.1993 C   0  0  0  0  0  0  0  0  0  0  0  0
    8.5022   48.5317  129.3138 C   0  0  0  0  0  0  0  0  0  0  0  0
    7.1709   48.5597  129.6476 C   0  0  0  0  0  0  0  0  0  0  0  0
    6.5131   47.3708  129.8889 C   0  0  0  0  0  0  0  0  0  0  0  0
    7.2202   46.2123  129.7839 C   0  0  0  0  0  0  0  0  0  0  0  0
    6.2591   50.0402  129.7785 S   0  0  0  0  0  0  0  0  0  0  0  0
    4.8194   49.9077  128.7357 C   0  0  0  0  0  0  0  0  0  0  0  0
    7.1072   51.1827  129.2585 O   0  0  0  0  0  0  0  0  0  0  0  0
    5.9206   50.3512  131.1925 O   0  0  0  0  0  0  0  0  0  0  0  0
   11.4594   41.9053  126.1862 C   0  0  0  0  0  0  0  0  0  0  0  0
   10.2495   41.5959  127.4901 S   0  0  0  0  0  0  0  0  0  0  0  0
 24 25  1  0  0  0
 25  1  1  0  0  0
  1  2  2  0  0  0
  2  3  1  0  0  0
  3  7  1  0  0  0
  7  8  2  0  0  0
  8  9  1  0  0  0
  9 10  2  0  0  0
 10 11  1  0  0  0
 10 12  1  0  0  0
 12 13  2  0  0  0
  3  4  2  0  0  0
  4 14  1  0  0  0
 14 15  2  0  0  0
 15 16  1  0  0  0
 16 17  2  0  0  0
 17 20  1  0  0  0
 20 21  1  0  0  0
 20 22  2  0  0  0
 20 23  2  0  0  0
 17 18  1  0  0  0
 18 19  2  0  0  0
  4  5  1  0  0  0
  5  1  1  0  0  0
 13  7  1  0  0  0
 19 14  1  0  0  0
  5  6  1  0  0  0
M  END
> <minimizedAffinity>
7.85617

> <CNNscore>
0.3952079415

> <CNNaffinity>
7.1870965958

> <CNN_VS>
2.8403975964

> <CNNaffinity_variance>
1.7649494410

$$$$
[H]c1c([H])c(-c2c([H])c(SC([H])([H])[H])n([H])c2-c2c([H])c([H])c(S(=O)(=O)C([H])([H])[H])c([H])c2[H])c([H])c([H])c1F


 25 27  0  0  0  0  0  0  0  0999 V2000
   11.5486   48.4728  134.7066 C   0  0  0  0  0  0  0  0  0  0  0  0
   10.7118   49.2582  133.8997 C   0  0  0  0  0  0  0  0  0  0  0  0
   10.1562   48.4512  132.9380 C   0  0  0  0  0  0  0  0  0  0  0  0
   10.6461   47.1907  133.1537 C   0  0  0  0  0  0  0  0  0  0  0  0
   11.4791   47.2243  134.2185 N   0  0  0  0  0  0  0  0  0  0  0  0
   12.0015   46.4247  134.6234 H   0  0  0  0  0  0  0  0  0  0  0  0
    9.2293   48.8543  131.8959 C   0  0  0  0  0  0  0  0  0  0  0  0
    9.1186   50.1794  131.5275 C   0  0  0  0  0  0  0  0  0  0  0  0
    8.2645   50.5983  130.5619 C   0  0  0  0  0  0  0  0  0  0  0  0
    7.4674   49.6921  129.9090 C   0  0  0  0  0  0  0  0  0  0  0  0
    6.6367   50.1555  128.9602 F   0  0  0  0  0  0  0  0  0  0  0  0
    7.5563   48.3519  130.2576 C   0  0  0  0  0  0  0  0  0  0  0  0
    8.4253   47.9415  131.2369 C   0  0  0  0  0  0  0  0  0  0  0  0
   10.3119   46.0305  132.3509 C   0  0  0  0  0  0  0  0  0  0  0  0
    9.2420   45.2131  132.7311 C   0  0  0  0  0  0  0  0  0  0  0  0
    8.9818   44.1317  131.9174 C   0  0  0  0  0  0  0  0  0  0  0  0
    9.6997   43.8279  130.7874 C   0  0  0  0  0  0  0  0  0  0  0  0
   10.7533   44.6407  130.4214 C   0  0  0  0  0  0  0  0  0  0  0  0
   11.0363   45.7176  131.2045 C   0  0  0  0  0  0  0  0  0  0  0  0
    9.3385   42.4528  129.7780 S   0  0  0  0  0  0  0  0  0  0  0  0
    9.4759   42.9555  128.0732 C   0  0  0  0  0  0  0  0  0  0  0  0
    7.9048   42.0301  130.0247 O   0  0  0  0  0  0  0  0  0  0  0  0
   10.2036   41.2895  130.1079 O   0  0  0  0  0  0  0  0  0  0  0  0
   14.1857   48.2579  136.0905 C   0  0  0  0  0  0  0  0  0  0  0  0
   12.5285   48.9744  136.1006 S   0  0  0  0  0  0  0  0  0  0  0  0
 24 25  1  0  0  0
 25  1  1  0  0  0
  1  2  2  0  0  0
  2  3  1  0  0  0
  3  7  1  0  0  0
  7  8  2  0  0  0
  8  9  1  0  0  0
  9 10  2  0  0  0
 10 11  1  0  0  0
 10 12  1  0  0  0
 12 13  2  0  0  0
  3  4  2  0  0  0
  4 14  1  0  0  0
 14 15  2  0  0  0
 15 16  1  0  0  0
 16 17  2  0  0  0
 17 20  1  0  0  0
 20 21  1  0  0  0
 20 22  2  0  0  0
 20 23  2  0  0  0
 17 18  1  0  0  0
 18 19  2  0  0  0
  4  5  1  0  0  0
  5  1  1  0  0  0
 13  7  1  0  0  0
 19 14  1  0  0  0
  5  6  1  0  0  0
M  END
> <minimizedAffinity>
3.35679

> <CNNscore>
0.3939336240

> <CNNaffinity>
7.1489167213

> <CNN_VS>
2.8161985874

> <CNNaffinity_variance>
0.9934310913

$$$$
[H]c1c([H])c(-c2c([H])c(SC([H])([H])[H])n([H])c2-c2c([H])c([H])c(S(=O)(=O)C([H])([H])[H])c([H])c2[H])c([H])c([H])c1F


 25 27  0  0  0  0  0  0  0  0999 V2000
    9.8625   50.8031  133.1141 C   0  0  0  0  0  0  0  0  0  0  0  0
    8.9647   50.7601  132.0368 C   0  0  0  0  0  0  0  0  0  0  0  0
    8.8175   49.4517  131.6483 C   0  0  0  0  0  0  0  0  0  0  0  0
    9.6136   48.7055  132.4758 C   0  0  0  0  0  0  0  0  0  0  0  0
   10.2317   49.5340  133.3477 N   0  0  0  0  0  0  0  0  0  0  0  0
   10.8965   49.2630  134.0966 H   0  0  0  0  0  0  0  0  0  0  0  0
    7.9807   48.9549  130.5710 C   0  0  0  0  0  0  0  0  0  0  0  0
    6.7511   49.5264  130.3150 C   0  0  0  0  0  0  0  0  0  0  0  0
    5.9381   49.0916  129.3214 C   0  0  0  0  0  0  0  0  0  0  0  0
    6.3269   48.0449  128.5238 C   0  0  0  0  0  0  0  0  0  0  0  0
    5.4868   47.6495  127.5527 F   0  0  0  0  0  0  0  0  0  0  0  0
    7.5585   47.4496  128.7568 C   0  0  0  0  0  0  0  0  0  0  0  0
    8.3717   47.8997  129.7661 C   0  0  0  0  0  0  0  0  0  0  0  0
    9.7540   47.2643  132.4012 C   0  0  0  0  0  0  0  0  0  0  0  0
    8.7455   46.4448  132.9192 C   0  0  0  0  0  0  0  0  0  0  0  0
    8.9472   45.0859  132.8087 C   0  0  0  0  0  0  0  0  0  0  0  0
   10.0556   44.5163  132.2329 C   0  0  0  0  0  0  0  0  0  0  0  0
   11.0448   45.3339  131.7252 C   0  0  0  0  0  0  0  0  0  0  0  0
   10.8756   46.6814  131.8188 C   0  0  0  0  0  0  0  0  0  0  0  0
   10.2751   42.7912  132.1058 S   0  0  0  0  0  0  0  0  0  0  0  0
    9.3501   42.2091  130.6975 C   0  0  0  0  0  0  0  0  0  0  0  0
    9.7007   42.1342  133.3441 O   0  0  0  0  0  0  0  0  0  0  0  0
   11.7149   42.4260  132.0412 O   0  0  0  0  0  0  0  0  0  0  0  0
    9.1118   53.0672  134.9101 C   0  0  0  0  0  0  0  0  0  0  0  0
   10.4345   52.2196  134.0204 S   0  0  0  0  0  0  0  0  0  0  0  0
 24 25  1  0  0  0
 25  1  1  0  0  0
  1  2  2  0  0  0
  2  3  1  0  0  0
  3  7  1  0  0  0
  7  8  2  0  0  0
  8  9  1  0  0  0
  9 10  2  0  0  0
 10 11  1  0  0  0
 10 12  1  0  0  0
 12 13  2  0  0  0
  3  4  2  0  0  0
  4 14  1  0  0  0
 14 15  2  0  0  0
 15 16  1  0  0  0
 16 17  2  0  0  0
 17 20  1  0  0  0
 20 21  1  0  0  0
 20 22  2  0  0  0
 20 23  2  0  0  0
 17 18  1  0  0  0
 18 19  2  0  0  0
  4  5  1  0  0  0
  5  1  1  0  0  0
 13  7  1  0  0  0
 19 14  1  0  0  0
  5  6  1  0  0  0
M  END
> <minimizedAffinity>
3.60878

> <CNNscore>
0.3936678767

> <CNNaffinity>
7.1314406395

> <CNN_VS>
2.8074190617

> <CNNaffinity_variance>
0.4112662673

$$$$
[H]OC([H])([H])C([H])([H])N([H])C(=O)[C@@]1([H])O[C@@]([H])(n2c([H])nc3c(N([H])C([H])([H])c4c([H])c([H])c([H])c([H])c4C([H])([H])[H])nc([H])nc32)[C@]([H])(O[H])[C@]1([H])O[H]


 36 39  0  0  0  0  0  0  0  0999 V2000
    7.3955   50.4938  128.7392 C   0  0  0  0  0  0  0  0  0  0  0  0
    7.6712   51.1528  129.8863 N   0  0  0  0  0  0  0  0  0  0  0  0
    8.0176   50.5148  131.0127 C   0  0  0  0  0  0  0  0  0  0  0  0
    8.0932   49.1771  131.0005 N   0  0  0  0  0  0  0  0  0  0  0  0
    7.8329   48.4708  129.8989 C   0  0  0  0  0  0  0  0  0  0  0  0
    7.4805   49.1145  128.7518 C   0  0  0  0  0  0  0  0  0  0  0  0
    7.2751   48.1840  127.8010 N   0  0  0  0  0  0  0  0  0  0  0  0
    7.4899   46.9642  128.3219 C   0  0  0  0  0  0  0  0  0  0  0  0
    7.8312   47.1463  129.6066 N   0  0  0  0  0  0  0  0  0  0  0  0
    8.1434   46.0978  130.5217 C   0  0  0  0  0  0  0  0  0  0  0  0
    9.3279   46.3118  131.2222 O   0  0  0  0  0  0  0  0  0  0  0  0
    9.5787   45.0502  131.7949 C   0  0  0  0  0  0  0  0  0  0  0  0
    9.4880   44.1718  130.5522 C   0  0  0  0  0  0  0  0  0  0  0  0
    9.3909   42.8371  130.8462 O   0  0  0  0  0  0  0  0  0  0  0  0
    8.2159   44.7322  129.9274 C   0  0  0  0  0  0  0  0  0  0  0  0
    7.1665   43.9110  130.3723 O   0  0  0  0  0  0  0  0  0  0  0  0
    9.6958   42.3122  130.0519 H   0  0  0  0  0  0  0  0  0  0  0  0
    6.6168   43.5978  129.6039 H   0  0  0  0  0  0  0  0  0  0  0  0
   10.8707   44.9805  132.4572 C   0  0  0  0  0  0  0  0  0  0  0  0
   11.4896   46.0248  132.7581 O   0  0  0  0  0  0  0  0  0  0  0  0
   11.4538   43.7314  132.7749 N   0  0  0  0  0  0  0  0  0  0  0  0
   10.9575   42.8510  132.5344 H   0  0  0  0  0  0  0  0  0  0  0  0
   12.7455   43.6337  133.4377 C   0  0  0  0  0  0  0  0  0  0  0  0
   12.6334   44.0883  134.8545 C   0  0  0  0  0  0  0  0  0  0  0  0
   11.3076   43.9661  135.2750 O   0  0  0  0  0  0  0  0  0  0  0  0
   11.2466   43.8153  136.2654 H   0  0  0  0  0  0  0  0  0  0  0  0
    7.0131   51.1903  127.5627 N   0  0  0  0  0  0  0  0  0  0  0  0
    6.7417   50.6140  126.7283 H   0  0  0  0  0  0  0  0  0  0  0  0
    6.9834   52.6164  127.4703 C   0  0  0  0  0  0  0  0  0  0  0  0
    8.7352   54.8486  127.5518 C   0  0  0  0  0  0  0  0  0  0  0  0
    8.3439   54.2865  126.2526 C   0  0  0  0  0  0  0  0  0  0  0  0
    8.8138   54.8424  125.1019 C   0  0  0  0  0  0  0  0  0  0  0  0
    8.4646   54.3371  123.8665 C   0  0  0  0  0  0  0  0  0  0  0  0
    7.6247   53.2489  123.7725 C   0  0  0  0  0  0  0  0  0  0  0  0
    7.1639   52.7067  124.9629 C   0  0  0  0  0  0  0  0  0  0  0  0
    7.4896   53.1812  126.2094 C   0  0  0  0  0  0  0  0  0  0  0  0
 30 31  1  0  0  0
 31 32  2  0  0  0
 32 33  1  0  0  0
 33 34  2  0  0  0
 34 35  1  0  0  0
 35 36  2  0  0  0
 36 29  1  0  0  0
 29 27  1  0  0  0
 27  1  1  0  0  0
  1  2  2  0  0  0
  2  3  1  0  0  0
  3  4  2  0  0  0
  4  5  1  0  0  0
  5  6  2  0  0  0
  6  7  1  0  0  0
  7  8  2  0  0  0
  8  9  1  0  0  0
  9 10  1  0  0  0
 10 11  1  0  0  0
 11 12  1  0  0  0
 12 19  1  0  0  0
 19 20  2  0  0  0
 19 21  1  0  0  0
 21 23  1  0  0  0
 23 24  1  0  0  0
 24 25  1  0  0  0
 12 13  1  0  0  0
 13 14  1  0  0  0
 13 15  1  0  0  0
 15 16  1  0  0  0
 36 31  1  0  0  0
  6  1  1  0  0  0
 15 10  1  0  0  0
  9  5  1  0  0  0
 27 28  1  0  0  0
 21 22  1  0  0  0
 25 26  1  0  0  0
 14 17  1  0  0  0
 16 18  1  0  0  0
M  END
> <minimizedAffinity>
6.66688

> <CNNscore>
0.3915970027

> <CNNaffinity>
6.5318422318

> <CNN_VS>
2.5578498840

> <CNNaffinity_variance>
1.0398204327

$$$$
[H]OC([H])([H])C([H])([H])N([H])C(=O)[C@@]1([H])O[C@@]([H])(n2c([H])nc3c(N([H])C([H])([H])c4c([H])c([H])c([H])c([H])c4C([H])([H])[H])nc([H])nc32)[C@]([H])(O[H])[C@]1([H])O[H]


 36 39  0  0  0  0  0  0  0  0999 V2000
    8.8554   43.4049  131.8365 C   0  0  0  0  0  0  0  0  0  0  0  0
    8.8873   42.6659  130.7056 N   0  0  0  0  0  0  0  0  0  0  0  0
    8.6347   43.1923  129.4993 C   0  0  0  0  0  0  0  0  0  0  0  0
    8.3404   44.4965  129.4123 N   0  0  0  0  0  0  0  0  0  0  0  0
    8.2937   45.2778  130.4928 C   0  0  0  0  0  0  0  0  0  0  0  0
    8.5496   44.7477  131.7208 C   0  0  0  0  0  0  0  0  0  0  0  0
    8.4386   45.7347  132.6294 N   0  0  0  0  0  0  0  0  0  0  0  0
    8.1176   46.8790  132.0026 C   0  0  0  0  0  0  0  0  0  0  0  0
    8.0303   46.5929  130.6948 N   0  0  0  0  0  0  0  0  0  0  0  0
    7.7075   47.5369  129.6755 C   0  0  0  0  0  0  0  0  0  0  0  0
    8.0988   48.8374  129.9843 O   0  0  0  0  0  0  0  0  0  0  0  0
    7.4138   49.6016  129.0203 C   0  0  0  0  0  0  0  0  0  0  0  0
    5.9957   49.0823  129.2285 C   0  0  0  0  0  0  0  0  0  0  0  0
    5.1440   49.4300  128.2130 O   0  0  0  0  0  0  0  0  0  0  0  0
    6.2703   47.5842  129.2811 C   0  0  0  0  0  0  0  0  0  0  0  0
    6.0690   47.1031  127.9766 O   0  0  0  0  0  0  0  0  0  0  0  0
    4.2059   49.3941  128.5568 H   0  0  0  0  0  0  0  0  0  0  0  0
    5.4540   46.3206  127.9828 H   0  0  0  0  0  0  0  0  0  0  0  0
    7.5424   51.0324  129.2425 C   0  0  0  0  0  0  0  0  0  0  0  0
    7.9655   51.4721  130.3341 O   0  0  0  0  0  0  0  0  0  0  0  0
    7.1920   51.9556  128.2295 N   0  0  0  0  0  0  0  0  0  0  0  0
    6.8384   51.6128  127.3148 H   0  0  0  0  0  0  0  0  0  0  0  0
    7.3113   53.3925  128.4260 C   0  0  0  0  0  0  0  0  0  0  0  0
    7.3309   54.0927  127.1085 C   0  0  0  0  0  0  0  0  0  0  0  0
    6.0338   54.4888  126.7767 O   0  0  0  0  0  0  0  0  0  0  0  0
    6.0348   55.3046  126.1922 H   0  0  0  0  0  0  0  0  0  0  0  0
    9.1090   42.8214  133.1056 N   0  0  0  0  0  0  0  0  0  0  0  0
    8.4313   42.0959  133.4466 H   0  0  0  0  0  0  0  0  0  0  0  0
   10.2278   43.1752  133.9219 C   0  0  0  0  0  0  0  0  0  0  0  0
    9.2635   45.5208  135.1973 C   0  0  0  0  0  0  0  0  0  0  0  0
   10.3694   45.6255  134.2365 C   0  0  0  0  0  0  0  0  0  0  0  0
   10.9156   46.8413  133.9583 C   0  0  0  0  0  0  0  0  0  0  0  0
   11.9553   46.9720  133.0608 C   0  0  0  0  0  0  0  0  0  0  0  0
   12.4660   45.8631  132.4219 C   0  0  0  0  0  0  0  0  0  0  0  0
   11.8874   44.6404  132.7275 C   0  0  0  0  0  0  0  0  0  0  0  0
   10.8531   44.4711  133.6144 C   0  0  0  0  0  0  0  0  0  0  0  0
 30 31  1  0  0  0
 31 32  2  0  0  0
 32 33  1  0  0  0
 33 34  2  0  0  0
 34 35  1  0  0  0
 35 36  2  0  0  0
 36 29  1  0  0  0
 29 27  1  0  0  0
 27  1  1  0  0  0
  1  2  2  0  0  0
  2  3  1  0  0  0
  3  4  2  0  0  0
  4  5  1  0  0  0
  5  6  2  0  0  0
  6  7  1  0  0  0
  7  8  2  0  0  0
  8  9  1  0  0  0
  9 10  1  0  0  0
 10 11  1  0  0  0
 11 12  1  0  0  0
 12 19  1  0  0  0
 19 20  2  0  0  0
 19 21  1  0  0  0
 21 23  1  0  0  0
 23 24  1  0  0  0
 24 25  1  0  0  0
 12 13  1  0  0  0
 13 14  1  0  0  0
 13 15  1  0  0  0
 15 16  1  0  0  0
 36 31  1  0  0  0
  6  1  1  0  0  0
 15 10  1  0  0  0
  9  5  1  0  0  0
 27 28  1  0  0  0
 21 22  1  0  0  0
 25 26  1  0  0  0
 14 17  1  0  0  0
 16 18  1  0  0  0
M  END
> <minimizedAffinity>
-1.71747

> <CNNscore>
0.3771159947

> <CNNaffinity>
7.1284608841

> <CNN_VS>
2.6882565022

> <CNNaffinity_variance>
0.2359079421

$$$$
[H]OC([H])([H])C([H])([H])N([H])C(=O)[C@@]1([H])O[C@@]([H])(n2c([H])nc3c(N([H])C([H])([H])c4c([H])c([H])c([H])c([H])c4C([H])([H])[H])nc([H])nc32)[C@]([H])(O[H])[C@]1([H])O[H]


 36 39  0  0  0  0  0  0  0  0999 V2000
    7.0213   49.5441  129.5858 C   0  0  0  0  0  0  0  0  0  0  0  0
    5.7774   49.1031  129.2955 N   0  0  0  0  0  0  0  0  0  0  0  0
    5.5428   47.8564  128.8635 C   0  0  0  0  0  0  0  0  0  0  0  0
    6.5778   47.0187  128.7144 N   0  0  0  0  0  0  0  0  0  0  0  0
    7.8287   47.3957  128.9849 C   0  0  0  0  0  0  0  0  0  0  0  0
    8.0724   48.6614  129.4242 C   0  0  0  0  0  0  0  0  0  0  0  0
    9.3984   48.7835  129.6211 N   0  0  0  0  0  0  0  0  0  0  0  0
    9.9999   47.6215  129.3157 C   0  0  0  0  0  0  0  0  0  0  0  0
    9.0338   46.7758  128.9268 N   0  0  0  0  0  0  0  0  0  0  0  0
    9.2503   45.4276  128.5147 C   0  0  0  0  0  0  0  0  0  0  0  0
    9.2386   44.5196  129.5707 O   0  0  0  0  0  0  0  0  0  0  0  0
    9.7729   43.3572  128.9825 C   0  0  0  0  0  0  0  0  0  0  0  0
   11.0533   43.9276  128.3830 C   0  0  0  0  0  0  0  0  0  0  0  0
   11.6434   43.0834  127.4793 O   0  0  0  0  0  0  0  0  0  0  0  0
   10.4993   45.1910  127.7355 C   0  0  0  0  0  0  0  0  0  0  0  0
   10.2271   44.8585  126.3979 O   0  0  0  0  0  0  0  0  0  0  0  0
   12.6112   43.3223  127.4041 H   0  0  0  0  0  0  0  0  0  0  0  0
   10.6435   45.5192  125.7809 H   0  0  0  0  0  0  0  0  0  0  0  0
   10.0107   42.2972  129.9483 C   0  0  0  0  0  0  0  0  0  0  0  0
    9.7292   41.1101  129.6736 O   0  0  0  0  0  0  0  0  0  0  0  0
   10.5651   42.5864  131.2172 N   0  0  0  0  0  0  0  0  0  0  0  0
   10.8067   43.5654  131.4670 H   0  0  0  0  0  0  0  0  0  0  0  0
   10.8133   41.5443  132.2020 C   0  0  0  0  0  0  0  0  0  0  0  0
   10.4355   42.0221  133.5642 C   0  0  0  0  0  0  0  0  0  0  0  0
   10.1699   43.3920  133.5157 O   0  0  0  0  0  0  0  0  0  0  0  0
    9.5113   43.6658  134.2218 H   0  0  0  0  0  0  0  0  0  0  0  0
    7.2477   50.8751  130.0250 N   0  0  0  0  0  0  0  0  0  0  0  0
    6.9188   51.6514  129.3997 H   0  0  0  0  0  0  0  0  0  0  0  0
    7.8928   51.1943  131.2599 C   0  0  0  0  0  0  0  0  0  0  0  0
   10.1054   51.5663  132.9990 C   0  0  0  0  0  0  0  0  0  0  0  0
    9.5087   50.2307  132.8672 C   0  0  0  0  0  0  0  0  0  0  0  0
   10.0238   49.1837  133.5689 C   0  0  0  0  0  0  0  0  0  0  0  0
    9.4853   47.9176  133.4665 C   0  0  0  0  0  0  0  0  0  0  0  0
    8.4049   47.6859  132.6434 C   0  0  0  0  0  0  0  0  0  0  0  0
    7.9047   48.7733  131.9429 C   0  0  0  0  0  0  0  0  0  0  0  0
    8.4129   50.0464  132.0195 C   0  0  0  0  0  0  0  0  0  0  0  0
 30 31  1  0  0  0
 31 32  2  0  0  0
 32 33  1  0  0  0
 33 34  2  0  0  0
 34 35  1  0  0  0
 35 36  2  0  0  0
 36 29  1  0  0  0
 29 27  1  0  0  0
 27  1  1  0  0  0
  1  2  2  0  0  0
  2  3  1  0  0  0
  3  4  2  0  0  0
  4  5  1  0  0  0
  5  6  2  0  0  0
  6  7  1  0  0  0
  7  8  2  0  0  0
  8  9  1  0  0  0
  9 10  1  0  0  0
 10 11  1  0  0  0
 11 12  1  0  0  0
 12 19  1  0  0  0
 19 20  2  0  0  0
 19 21  1  0  0  0
 21 23  1  0  0  0
 23 24  1  0  0  0
 24 25  1  0  0  0
 12 13  1  0  0  0
 13 14  1  0  0  0
 13 15  1  0  0  0
 15 16  1  0  0  0
 36 31  1  0  0  0
  6  1  1  0  0  0
 15 10  1  0  0  0
  9  5  1  0  0  0
 27 28  1  0  0  0
 21 22  1  0  0  0
 25 26  1  0  0  0
 14 17  1  0  0  0
 16 18  1  0  0  0
M  END
> <minimizedAffinity>
6.14627

> <CNNscore>
0.3567965329

> <CNNaffinity>
6.7803697586

> <CNN_VS>
2.4192123413

> <CNNaffinity_variance>
0.5366813540

$$$$
[H]OC([H])([H])C([H])([H])N([H])C(=O)[C@@]1([H])O[C@@]([H])(n2c([H])nc3c(N([H])C([H])([H])c4c([H])c([H])c([H])c([H])c4C([H])([H])[H])nc([H])nc32)[C@]([H])(O[H])[C@]1([H])O[H]


 36 39  0  0  0  0  0  0  0  0999 V2000
   10.6737   44.2126  130.5194 C   0  0  0  0  0  0  0  0  0  0  0  0
   10.1039   43.3184  129.6818 N   0  0  0  0  0  0  0  0  0  0  0  0
    9.1300   43.6588  128.8264 C   0  0  0  0  0  0  0  0  0  0  0  0
    8.7072   44.9299  128.8013 N   0  0  0  0  0  0  0  0  0  0  0  0
    9.2308   45.8583  129.6038 C   0  0  0  0  0  0  0  0  0  0  0  0
   10.2206   45.5175  130.4747 C   0  0  0  0  0  0  0  0  0  0  0  0
   10.5693   46.6231  131.1589 N   0  0  0  0  0  0  0  0  0  0  0  0
    9.8209   47.6573  130.7396 C   0  0  0  0  0  0  0  0  0  0  0  0
    9.0034   47.1828  129.7875 N   0  0  0  0  0  0  0  0  0  0  0  0
    8.0410   47.9618  129.0795 C   0  0  0  0  0  0  0  0  0  0  0  0
    8.2748   49.3325  129.1590 O   0  0  0  0  0  0  0  0  0  0  0  0
    7.0683   49.8784  128.6803 C   0  0  0  0  0  0  0  0  0  0  0  0
    6.0729   49.1457  129.5728 C   0  0  0  0  0  0  0  0  0  0  0  0
    4.7802   49.2498  129.1305 O   0  0  0  0  0  0  0  0  0  0  0  0
    6.6203   47.7273  129.4666 C   0  0  0  0  0  0  0  0  0  0  0  0
    5.8936   47.1031  128.4389 O   0  0  0  0  0  0  0  0  0  0  0  0
    4.1650   49.0856  129.9011 H   0  0  0  0  0  0  0  0  0  0  0  0
    5.5275   46.2309  128.7487 H   0  0  0  0  0  0  0  0  0  0  0  0
    7.0117   51.3242  128.8191 C   0  0  0  0  0  0  0  0  0  0  0  0
    6.8062   51.8495  129.9352 O   0  0  0  0  0  0  0  0  0  0  0  0
    7.1879   52.1657  127.6957 N   0  0  0  0  0  0  0  0  0  0  0  0
    7.3599   51.7511  126.7588 H   0  0  0  0  0  0  0  0  0  0  0  0
    7.1360   53.6156  127.8071 C   0  0  0  0  0  0  0  0  0  0  0  0
    7.4977   54.2458  126.5037 C   0  0  0  0  0  0  0  0  0  0  0  0
    6.3655   54.8489  125.9526 O   0  0  0  0  0  0  0  0  0  0  0  0
    6.6093   55.6267  125.3671 H   0  0  0  0  0  0  0  0  0  0  0  0
   11.6918   43.8249  131.4298 N   0  0  0  0  0  0  0  0  0  0  0  0
   12.6667   43.7326  131.0517 H   0  0  0  0  0  0  0  0  0  0  0  0
   11.4476   43.5602  132.8130 C   0  0  0  0  0  0  0  0  0  0  0  0
    8.6619   43.0235  132.9163 C   0  0  0  0  0  0  0  0  0  0  0  0
    9.1831   44.2500  133.5338 C   0  0  0  0  0  0  0  0  0  0  0  0
    8.3304   45.1213  134.1401 C   0  0  0  0  0  0  0  0  0  0  0  0
    8.7894   46.2814  134.7291 C   0  0  0  0  0  0  0  0  0  0  0  0
   10.1336   46.5839  134.7147 C   0  0  0  0  0  0  0  0  0  0  0  0
   10.9748   45.6758  134.0892 C   0  0  0  0  0  0  0  0  0  0  0  0
   10.5554   44.5122  133.4934 C   0  0  0  0  0  0  0  0  0  0  0  0
 30 31  1  0  0  0
 31 32  2  0  0  0
 32 33  1  0  0  0
 33 34  2  0  0  0
 34 35  1  0  0  0
 35 36  2  0  0  0
 36 29  1  0  0  0
 29 27  1  0  0  0
 27  1  1  0  0  0
  1  2  2  0  0  0
  2  3  1  0  0  0
  3  4  2  0  0  0
  4  5  1  0  0  0
  5  6  2  0  0  0
  6  7  1  0  0  0
  7  8  2  0  0  0
  8  9  1  0  0  0
  9 10  1  0  0  0
 10 11  1  0  0  0
 11 12  1  0  0  0
 12 19  1  0  0  0
 19 20  2  0  0  0
 19 21  1  0  0  0
 21 23  1  0  0  0
 23 24  1  0  0  0
 24 25  1  0  0  0
 12 13  1  0  0  0
 13 14  1  0  0  0
 13 15  1  0  0  0
 15 16  1  0  0  0
 36 31  1  0  0  0
  6  1  1  0  0  0
 15 10  1  0  0  0
  9  5  1  0  0  0
 27 28  1  0  0  0
 21 22  1  0  0  0
 25 26  1  0  0  0
 14 17  1  0  0  0
 16 18  1  0  0  0
M  END
> <minimizedAffinity>
-7.20669

> <CNNscore>
0.3289677799

> <CNNaffinity>
7.2191872597

> <CNN_VS>
2.3748800755

> <CNNaffinity_variance>
0.1579440385

$$$$
[H]OC([H])([H])C([H])([H])N([H])C(=O)[C@@]1([H])O[C@@]([H])(n2c([H])nc3c(N([H])C([H])([H])c4c([H])c([H])c([H])c([H])c4C([H])([H])[H])nc([H])nc32)[C@]([H])(O[H])[C@]1([H])O[H]


 36 39  0  0  0  0  0  0  0  0999 V2000
    6.7303   48.0591  128.6923 C   0  0  0  0  0  0  0  0  0  0  0  0
    5.4841   47.7539  129.1163 N   0  0  0  0  0  0  0  0  0  0  0  0
    5.2128   46.6271  129.7889 C   0  0  0  0  0  0  0  0  0  0  0  0
    6.2124   45.7738  130.0498 N   0  0  0  0  0  0  0  0  0  0  0  0
    7.4636   46.0196  129.6574 C   0  0  0  0  0  0  0  0  0  0  0  0
    7.7444   47.1633  128.9736 C   0  0  0  0  0  0  0  0  0  0  0  0
    9.0623   47.1689  128.6991 N   0  0  0  0  0  0  0  0  0  0  0  0
    9.6222   46.0526  129.1948 C   0  0  0  0  0  0  0  0  0  0  0  0
    8.6385   45.3530  129.7803 N   0  0  0  0  0  0  0  0  0  0  0  0
    8.8110   44.0961  130.4320 C   0  0  0  0  0  0  0  0  0  0  0  0
    8.9896   44.2087  131.8086 O   0  0  0  0  0  0  0  0  0  0  0  0
    9.4431   42.9244  132.1658 C   0  0  0  0  0  0  0  0  0  0  0  0
   10.5971   42.7673  131.1820 C   0  0  0  0  0  0  0  0  0  0  0  0
   11.0479   41.4769  131.0876 O   0  0  0  0  0  0  0  0  0  0  0  0
    9.9204   43.2506  129.9049 C   0  0  0  0  0  0  0  0  0  0  0  0
    9.4399   42.1004  129.2570 O   0  0  0  0  0  0  0  0  0  0  0  0
   11.9857   41.4909  130.7415 H   0  0  0  0  0  0  0  0  0  0  0  0
    9.7370   42.0834  128.3072 H   0  0  0  0  0  0  0  0  0  0  0  0
    9.8560   42.8411  133.5570 C   0  0  0  0  0  0  0  0  0  0  0  0
    9.3851   41.9604  134.3097 O   0  0  0  0  0  0  0  0  0  0  0  0
   10.7981   43.7536  134.0873 N   0  0  0  0  0  0  0  0  0  0  0  0
   11.2025   44.4933  133.4804 H   0  0  0  0  0  0  0  0  0  0  0  0
   11.2284   43.6921  135.4761 C   0  0  0  0  0  0  0  0  0  0  0  0
   10.5101   44.7206  136.2840 C   0  0  0  0  0  0  0  0  0  0  0  0
    9.9133   45.6470  135.4267 O   0  0  0  0  0  0  0  0  0  0  0  0
    9.0943   46.0564  135.8377 H   0  0  0  0  0  0  0  0  0  0  0  0
    6.9906   49.2506  127.9655 N   0  0  0  0  0  0  0  0  0  0  0  0
    6.5906   49.3217  126.9976 H   0  0  0  0  0  0  0  0  0  0  0  0
    7.7602   50.3357  128.4883 C   0  0  0  0  0  0  0  0  0  0  0  0
    6.2838   50.5544  130.9030 C   0  0  0  0  0  0  0  0  0  0  0  0
    7.7066   50.1944  130.9581 C   0  0  0  0  0  0  0  0  0  0  0  0
    8.3071   49.9783  132.1609 C   0  0  0  0  0  0  0  0  0  0  0  0
    9.6417   49.6387  132.2453 C   0  0  0  0  0  0  0  0  0  0  0  0
   10.4004   49.5105  131.1024 C   0  0  0  0  0  0  0  0  0  0  0  0
    9.7586   49.7374  129.8941 C   0  0  0  0  0  0  0  0  0  0  0  0
    8.4338   50.0761  129.7704 C   0  0  0  0  0  0  0  0  0  0  0  0
 30 31  1  0  0  0
 31 32  2  0  0  0
 32 33  1  0  0  0
 33 34  2  0  0  0
 34 35  1  0  0  0
 35 36  2  0  0  0
 36 29  1  0  0  0
 29 27  1  0  0  0
 27  1  1  0  0  0
  1  2  2  0  0  0
  2  3  1  0  0  0
  3  4  2  0  0  0
  4  5  1  0  0  0
  5  6  2  0  0  0
  6  7  1  0  0  0
  7  8  2  0  0  0
  8  9  1  0  0  0
  9 10  1  0  0  0
 10 11  1  0  0  0
 11 12  1  0  0  0
 12 19  1  0  0  0
 19 20  2  0  0  0
 19 21  1  0  0  0
 21 23  1  0  0  0
 23 24  1  0  0  0
 24 25  1  0  0  0
 12 13  1  0  0  0
 13 14  1  0  0  0
 13 15  1  0  0  0
 15 16  1  0  0  0
 36 31  1  0  0  0
  6  1  1  0  0  0
 15 10  1  0  0  0
  9  5  1  0  0  0
 27 28  1  0  0  0
 21 22  1  0  0  0
 25 26  1  0  0  0
 14 17  1  0  0  0
 16 18  1  0  0  0
M  END
> <minimizedAffinity>
1.51617

> <CNNscore>
0.3204594851

> <CNNaffinity>
6.8322896957

> <CNN_VS>
2.1894719601

> <CNNaffinity_variance>
0.3254146576

$$$$
[H]OC([H])([H])C([H])([H])N([H])C(=O)[C@@]1([H])O[C@@]([H])(n2c([H])nc3c(N([H])C([H])([H])c4c([H])c([H])c([H])c([H])c4C([H])([H])[H])nc([H])nc32)[C@]([H])(O[H])[C@]1([H])O[H]


 36 39  0  0  0  0  0  0  0  0999 V2000
    7.2789   50.9272  129.0779 C   0  0  0  0  0  0  0  0  0  0  0  0
    8.0529   51.3775  130.0899 N   0  0  0  0  0  0  0  0  0  0  0  0
    8.5763   50.5564  131.0106 C   0  0  0  0  0  0  0  0  0  0  0  0
    8.3228   49.2436  130.9243 N   0  0  0  0  0  0  0  0  0  0  0  0
    7.5660   48.7389  129.9483 C   0  0  0  0  0  0  0  0  0  0  0  0
    7.0320   49.5691  129.0102 C   0  0  0  0  0  0  0  0  0  0  0  0
    6.3199   48.8180  128.1495 N   0  0  0  0  0  0  0  0  0  0  0  0
    6.3916   47.5293  128.5228 C   0  0  0  0  0  0  0  0  0  0  0  0
    7.1559   47.4872  129.6247 N   0  0  0  0  0  0  0  0  0  0  0  0
    7.4829   46.2991  130.3429 C   0  0  0  0  0  0  0  0  0  0  0  0
    8.0122   46.5470  131.6070 O   0  0  0  0  0  0  0  0  0  0  0  0
    8.5343   45.2917  131.9733 C   0  0  0  0  0  0  0  0  0  0  0  0
    9.3935   44.9943  130.7495 C   0  0  0  0  0  0  0  0  0  0  0  0
    9.7962   43.6862  130.6834 O   0  0  0  0  0  0  0  0  0  0  0  0
    8.4126   45.3661  129.6440 C   0  0  0  0  0  0  0  0  0  0  0  0
    7.7734   44.1723  129.2699 O   0  0  0  0  0  0  0  0  0  0  0  0
   10.6125   43.6322  130.1089 H   0  0  0  0  0  0  0  0  0  0  0  0
    7.8146   44.0472  128.2833 H   0  0  0  0  0  0  0  0  0  0  0  0
    9.2925   45.3383  133.2126 C   0  0  0  0  0  0  0  0  0  0  0  0
    8.7081   45.4412  134.3134 O   0  0  0  0  0  0  0  0  0  0  0  0
   10.7053   45.2681  133.1988 N   0  0  0  0  0  0  0  0  0  0  0  0
   11.2118   45.1823  132.2959 H   0  0  0  0  0  0  0  0  0  0  0  0
   11.4880   45.3125  134.4248 C   0  0  0  0  0  0  0  0  0  0  0  0
   12.5282   44.2427  134.4109 C   0  0  0  0  0  0  0  0  0  0  0  0
   12.0710   43.1640  133.6516 O   0  0  0  0  0  0  0  0  0  0  0  0
   12.8308   42.6541  133.2392 H   0  0  0  0  0  0  0  0  0  0  0  0
    6.7205   51.8184  128.1242 N   0  0  0  0  0  0  0  0  0  0  0  0
    5.8087   51.5428  127.6831 H   0  0  0  0  0  0  0  0  0  0  0  0
    7.3379   53.0513  127.7476 C   0  0  0  0  0  0  0  0  0  0  0  0
    9.0938   53.3893  125.5427 C   0  0  0  0  0  0  0  0  0  0  0  0
    7.6997   53.8372  125.4292 C   0  0  0  0  0  0  0  0  0  0  0  0
    7.2635   54.4169  124.2770 C   0  0  0  0  0  0  0  0  0  0  0  0
    5.9600   54.8477  124.1398 C   0  0  0  0  0  0  0  0  0  0  0  0
    5.0653   54.6983  125.1770 C   0  0  0  0  0  0  0  0  0  0  0  0
    5.5415   54.1044  126.3362 C   0  0  0  0  0  0  0  0  0  0  0  0
    6.8300   53.6631  126.5094 C   0  0  0  0  0  0  0  0  0  0  0  0
 30 31  1  0  0  0
 31 32  2  0  0  0
 32 33  1  0  0  0
 33 34  2  0  0  0
 34 35  1  0  0  0
 35 36  2  0  0  0
 36 29  1  0  0  0
 29 27  1  0  0  0
 27  1  1  0  0  0
  1  2  2  0  0  0
  2  3  1  0  0  0
  3  4  2  0  0  0
  4  5  1  0  0  0
  5  6  2  0  0  0
  6  7  1  0  0  0
  7  8  2  0  0  0
  8  9  1  0  0  0
  9 10  1  0  0  0
 10 11  1  0  0  0
 11 12  1  0  0  0
 12 19  1  0  0  0
 19 20  2  0  0  0
 19 21  1  0  0  0
 21 23  1  0  0  0
 23 24  1  0  0  0
 24 25  1  0  0  0
 12 13  1  0  0  0
 13 14  1  0  0  0
 13 15  1  0  0  0
 15 16  1  0  0  0
 36 31  1  0  0  0
  6  1  1  0  0  0
 15 10  1  0  0  0
  9  5  1  0  0  0
 27 28  1  0  0  0
 21 22  1  0  0  0
 25 26  1  0  0  0
 14 17  1  0  0  0
 16 18  1  0  0  0
M  END
> <minimizedAffinity>
1.36548

> <CNNscore>
0.2971938848

> <CNNaffinity>
6.5412969589

> <CNN_VS>
1.9440335035

> <CNNaffinity_variance>
0.6264368296

$$$$
[H]OC([H])([H])C([H])([H])N([H])C(=O)[C@@]1([H])O[C@@]([H])(n2c([H])nc3c(N([H])C([H])([H])c4c([H])c([H])c([H])c([H])c4C([H])([H])[H])nc([H])nc32)[C@]([H])(O[H])[C@]1([H])O[H]


 36 39  0  0  0  0  0  0  0  0999 V2000
    8.6991   50.3894  130.3506 C   0  0  0  0  0  0  0  0  0  0  0  0
    8.7339   51.2780  131.3681 N   0  0  0  0  0  0  0  0  0  0  0  0
    9.2602   50.9771  132.5632 C   0  0  0  0  0  0  0  0  0  0  0  0
    9.7694   49.7528  132.7553 N   0  0  0  0  0  0  0  0  0  0  0  0
    9.7641   48.8324  131.7893 C   0  0  0  0  0  0  0  0  0  0  0  0
    9.2304   49.1332  130.5731 C   0  0  0  0  0  0  0  0  0  0  0  0
    9.3490   48.0460  129.7883 N   0  0  0  0  0  0  0  0  0  0  0  0
    9.9466   47.0626  130.4820 C   0  0  0  0  0  0  0  0  0  0  0  0
   10.1983   47.5501  131.7063 N   0  0  0  0  0  0  0  0  0  0  0  0
   10.8283   46.8215  132.7582 C   0  0  0  0  0  0  0  0  0  0  0  0
   11.0094   45.4725  132.4631 O   0  0  0  0  0  0  0  0  0  0  0  0
   11.3351   44.9241  133.7184 C   0  0  0  0  0  0  0  0  0  0  0  0
   10.1697   45.4505  134.5484 C   0  0  0  0  0  0  0  0  0  0  0  0
   10.3749   45.3271  135.8975 O   0  0  0  0  0  0  0  0  0  0  0  0
   10.1521   46.9021  134.0847 C   0  0  0  0  0  0  0  0  0  0  0  0
   10.9162   47.6209  135.0192 O   0  0  0  0  0  0  0  0  0  0  0  0
    9.4873   45.3354  136.3575 H   0  0  0  0  0  0  0  0  0  0  0  0
   10.4110   48.4120  135.3503 H   0  0  0  0  0  0  0  0  0  0  0  0
   11.4165   43.4731  133.6937 C   0  0  0  0  0  0  0  0  0  0  0  0
   11.4157   42.8167  134.7581 O   0  0  0  0  0  0  0  0  0  0  0  0
   11.4981   42.7744  132.4663 N   0  0  0  0  0  0  0  0  0  0  0  0
   11.5003   43.2991  131.5697 H   0  0  0  0  0  0  0  0  0  0  0  0
   11.5804   41.3225  132.4135 C   0  0  0  0  0  0  0  0  0  0  0  0
   10.6899   40.7947  131.3388 C   0  0  0  0  0  0  0  0  0  0  0  0
   10.0970   41.8637  130.6641 O   0  0  0  0  0  0  0  0  0  0  0  0
    9.8787   41.6253  129.7139 H   0  0  0  0  0  0  0  0  0  0  0  0
    8.1200   50.7250  129.0985 N   0  0  0  0  0  0  0  0  0  0  0  0
    8.7721   51.0118  128.3274 H   0  0  0  0  0  0  0  0  0  0  0  0
    6.7128   50.6891  128.8505 C   0  0  0  0  0  0  0  0  0  0  0  0
    7.7262   48.3969  127.5174 C   0  0  0  0  0  0  0  0  0  0  0  0
    6.5590   48.2611  128.3985 C   0  0  0  0  0  0  0  0  0  0  0  0
    5.9683   47.0453  128.5620 C   0  0  0  0  0  0  0  0  0  0  0  0
    4.8709   46.8858  129.3829 C   0  0  0  0  0  0  0  0  0  0  0  0
    4.3461   47.9650  130.0599 C   0  0  0  0  0  0  0  0  0  0  0  0
    4.9710   49.1886  129.8715 C   0  0  0  0  0  0  0  0  0  0  0  0
    6.0638   49.3859  129.0642 C   0  0  0  0  0  0  0  0  0  0  0  0
 30 31  1  0  0  0
 31 32  2  0  0  0
 32 33  1  0  0  0
 33 34  2  0  0  0
 34 35  1  0  0  0
 35 36  2  0  0  0
 36 29  1  0  0  0
 29 27  1  0  0  0
 27  1  1  0  0  0
  1  2  2  0  0  0
  2  3  1  0  0  0
  3  4  2  0  0  0
  4  5  1  0  0  0
  5  6  2  0  0  0
  6  7  1  0  0  0
  7  8  2  0  0  0
  8  9  1  0  0  0
  9 10  1  0  0  0
 10 11  1  0  0  0
 11 12  1  0  0  0
 12 19  1  0  0  0
 19 20  2  0  0  0
 19 21  1  0  0  0
 21 23  1  0  0  0
 23 24  1  0  0  0
 24 25  1  0  0  0
 12 13  1  0  0  0
 13 14  1  0  0  0
 13 15  1  0  0  0
 15 16  1  0  0  0
 36 31  1  0  0  0
  6  1  1  0  0  0
 15 10  1  0  0  0
  9  5  1  0  0  0
 27 28  1  0  0  0
 21 22  1  0  0  0
 25 26  1  0  0  0
 14 17  1  0  0  0
 16 18  1  0  0  0
M  END
> <minimizedAffinity>
7.13442

> <CNNscore>
0.2864549756

> <CNNaffinity>
6.6959328651

> <CNN_VS>
1.9180833101

> <CNNaffinity_variance>
1.0966187716

$$$$
[H]OC([H])([H])C([H])([H])N([H])C(=O)[C@@]1([H])O[C@@]([H])(n2c([H])nc3c(N([H])C([H])([H])c4c([H])c([H])c([H])c([H])c4C([H])([H])[H])nc([H])nc32)[C@]([H])(O[H])[C@]1([H])O[H]


 36 39  0  0  0  0  0  0  0  0999 V2000
    8.2313   47.2030  128.2784 C   0  0  0  0  0  0  0  0  0  0  0  0
    9.4038   46.8962  127.6808 N   0  0  0  0  0  0  0  0  0  0  0  0
   10.2150   45.9368  128.1469 C   0  0  0  0  0  0  0  0  0  0  0  0
    9.8504   45.2586  129.2433 N   0  0  0  0  0  0  0  0  0  0  0  0
    8.7049   45.5155  129.8773 C   0  0  0  0  0  0  0  0  0  0  0  0
    7.8771   46.4895  129.4077 C   0  0  0  0  0  0  0  0  0  0  0  0
    6.8034   46.5467  130.2176 N   0  0  0  0  0  0  0  0  0  0  0  0
    6.9338   45.6293  131.1906 C   0  0  0  0  0  0  0  0  0  0  0  0
    8.0999   45.0012  130.9769 N   0  0  0  0  0  0  0  0  0  0  0  0
    8.6189   43.9506  131.7901 C   0  0  0  0  0  0  0  0  0  0  0  0
    9.4876   44.3989  132.7820 O   0  0  0  0  0  0  0  0  0  0  0  0
   10.0929   43.2064  133.2226 C   0  0  0  0  0  0  0  0  0  0  0  0
   10.5661   42.6403  131.8885 C   0  0  0  0  0  0  0  0  0  0  0  0
   10.9332   41.3226  131.9663 O   0  0  0  0  0  0  0  0  0  0  0  0
    9.3099   42.8544  131.0526 C   0  0  0  0  0  0  0  0  0  0  0  0
    8.5905   41.6490  131.1112 O   0  0  0  0  0  0  0  0  0  0  0  0
   11.5511   41.1180  131.2075 H   0  0  0  0  0  0  0  0  0  0  0  0
    8.3478   41.3411  130.1964 H   0  0  0  0  0  0  0  0  0  0  0  0
   11.1739   43.4401  134.1658 C   0  0  0  0  0  0  0  0  0  0  0  0
   10.9807   43.3295  135.3964 O   0  0  0  0  0  0  0  0  0  0  0  0
   12.4653   43.7968  133.7115 N   0  0  0  0  0  0  0  0  0  0  0  0
   12.6486   43.8943  132.6936 H   0  0  0  0  0  0  0  0  0  0  0  0
   13.5646   44.0361  134.6343 C   0  0  0  0  0  0  0  0  0  0  0  0
   13.7689   45.5021  134.8232 C   0  0  0  0  0  0  0  0  0  0  0  0
   12.7765   46.1994  134.1316 O   0  0  0  0  0  0  0  0  0  0  0  0
   12.5822   47.0865  134.5590 H   0  0  0  0  0  0  0  0  0  0  0  0
    7.3964   48.2360  127.7767 N   0  0  0  0  0  0  0  0  0  0  0  0
    6.8084   48.0147  126.9358 H   0  0  0  0  0  0  0  0  0  0  0  0
    7.3259   49.5395  128.3590 C   0  0  0  0  0  0  0  0  0  0  0  0
    5.9163   50.4471  130.6497 C   0  0  0  0  0  0  0  0  0  0  0  0
    7.3536   50.1634  130.7534 C   0  0  0  0  0  0  0  0  0  0  0  0
    7.9988   50.3454  131.9384 C   0  0  0  0  0  0  0  0  0  0  0  0
    9.3480   50.0874  132.0674 C   0  0  0  0  0  0  0  0  0  0  0  0
   10.0760   49.6361  130.9882 C   0  0  0  0  0  0  0  0  0  0  0  0
    9.3889   49.4614  129.7962 C   0  0  0  0  0  0  0  0  0  0  0  0
    8.0484   49.7068  129.6299 C   0  0  0  0  0  0  0  0  0  0  0  0
 30 31  1  0  0  0
 31 32  2  0  0  0
 32 33  1  0  0  0
 33 34  2  0  0  0
 34 35  1  0  0  0
 35 36  2  0  0  0
 36 29  1  0  0  0
 29 27  1  0  0  0
 27  1  1  0  0  0
  1  2  2  0  0  0
  2  3  1  0  0  0
  3  4  2  0  0  0
  4  5  1  0  0  0
  5  6  2  0  0  0
  6  7  1  0  0  0
  7  8  2  0  0  0
  8  9  1  0  0  0
  9 10  1  0  0  0
 10 11  1  0  0  0
 11 12  1  0  0  0
 12 19  1  0  0  0
 19 20  2  0  0  0
 19 21  1  0  0  0
 21 23  1  0  0  0
 23 24  1  0  0  0
 24 25  1  0  0  0
 12 13  1  0  0  0
 13 14  1  0  0  0
 13 15  1  0  0  0
 15 16  1  0  0  0
 36 31  1  0  0  0
  6  1  1  0  0  0
 15 10  1  0  0  0
  9  5  1  0  0  0
 27 28  1  0  0  0
 21 22  1  0  0  0
 25 26  1  0  0  0
 14 17  1  0  0  0
 16 18  1  0  0  0
M  END
> <minimizedAffinity>
3.60910

> <CNNscore>
0.2678494155

> <CNNaffinity>
6.7152643204

> <CNN_VS>
1.7986795902

> <CNNaffinity_variance>
0.4048306048

$$$$
[H]OC([H])([H])C([H])([H])N([H])C(=O)[C@@]1([H])O[C@@]([H])(n2c([H])nc3c(N([H])C([H])([H])c4c([H])c([H])c([H])c([H])c4C([H])([H])[H])nc([H])nc32)[C@]([H])(O[H])[C@]1([H])O[H]


 36 39  0  0  0  0  0  0  0  0999 V2000
   10.0963   45.4857  129.9825 C   0  0  0  0  0  0  0  0  0  0  0  0
    9.2951   44.6959  129.2340 N   0  0  0  0  0  0  0  0  0  0  0  0
    8.1923   45.1612  128.6313 C   0  0  0  0  0  0  0  0  0  0  0  0
    7.8736   46.4544  128.7764 N   0  0  0  0  0  0  0  0  0  0  0  0
    8.6249   47.2839  129.5027 C   0  0  0  0  0  0  0  0  0  0  0  0
    9.7465   46.8160  130.1171 C   0  0  0  0  0  0  0  0  0  0  0  0
   10.3162   47.8418  130.7767 N   0  0  0  0  0  0  0  0  0  0  0  0
    9.5787   48.9499  130.5932 C   0  0  0  0  0  0  0  0  0  0  0  0
    8.5447   48.6020  129.8124 N   0  0  0  0  0  0  0  0  0  0  0  0
    7.5181   49.4918  129.3779 C   0  0  0  0  0  0  0  0  0  0  0  0
    7.9882   50.5223  128.5675 O   0  0  0  0  0  0  0  0  0  0  0  0
    6.8964   51.4109  128.5358 C   0  0  0  0  0  0  0  0  0  0  0  0
    6.6411   51.5711  130.0302 C   0  0  0  0  0  0  0  0  0  0  0  0
    5.4314   52.1519  130.3072 O   0  0  0  0  0  0  0  0  0  0  0  0
    6.7086   50.1122  130.4656 C   0  0  0  0  0  0  0  0  0  0  0  0
    5.3846   49.6422  130.4662 O   0  0  0  0  0  0  0  0  0  0  0  0
    5.4722   52.5539  131.2216 H   0  0  0  0  0  0  0  0  0  0  0  0
    5.1693   49.2029  131.3330 H   0  0  0  0  0  0  0  0  0  0  0  0
    7.2100   52.6627  127.8669 C   0  0  0  0  0  0  0  0  0  0  0  0
    7.1765   53.7451  128.4924 O   0  0  0  0  0  0  0  0  0  0  0  0
    7.5593   52.6821  126.4962 N   0  0  0  0  0  0  0  0  0  0  0  0
    7.5936   51.7950  125.9568 H   0  0  0  0  0  0  0  0  0  0  0  0
    7.8777   53.9212  125.8027 C   0  0  0  0  0  0  0  0  0  0  0  0
    8.5720   53.6272  124.5150 C   0  0  0  0  0  0  0  0  0  0  0  0
    8.5821   54.7769  123.7229 O   0  0  0  0  0  0  0  0  0  0  0  0
    9.3716   54.7918  123.1035 H   0  0  0  0  0  0  0  0  0  0  0  0
   11.2501   44.9663  130.6263 N   0  0  0  0  0  0  0  0  0  0  0  0
   12.1676   45.0677  130.1265 H   0  0  0  0  0  0  0  0  0  0  0  0
   11.2135   44.3233  131.9023 C   0  0  0  0  0  0  0  0  0  0  0  0
   12.5789   45.7396  133.9488 C   0  0  0  0  0  0  0  0  0  0  0  0
   11.1106   45.7053  133.9524 C   0  0  0  0  0  0  0  0  0  0  0  0
   10.4180   46.3415  134.9370 C   0  0  0  0  0  0  0  0  0  0  0  0
    9.0388   46.3276  134.9675 C   0  0  0  0  0  0  0  0  0  0  0  0
    8.3283   45.6624  133.9922 C   0  0  0  0  0  0  0  0  0  0  0  0
    9.0637   45.0249  133.0043 C   0  0  0  0  0  0  0  0  0  0  0  0
   10.4352   45.0172  132.9405 C   0  0  0  0  0  0  0  0  0  0  0  0
 30 31  1  0  0  0
 31 32  2  0  0  0
 32 33  1  0  0  0
 33 34  2  0  0  0
 34 35  1  0  0  0
 35 36  2  0  0  0
 36 29  1  0  0  0
 29 27  1  0  0  0
 27  1  1  0  0  0
  1  2  2  0  0  0
  2  3  1  0  0  0
  3  4  2  0  0  0
  4  5  1  0  0  0
  5  6  2  0  0  0
  6  7  1  0  0  0
  7  8  2  0  0  0
  8  9  1  0  0  0
  9 10  1  0  0  0
 10 11  1  0  0  0
 11 12  1  0  0  0
 12 19  1  0  0  0
 19 20  2  0  0  0
 19 21  1  0  0  0
 21 23  1  0  0  0
 23 24  1  0  0  0
 24 25  1  0  0  0
 12 13  1  0  0  0
 13 14  1  0  0  0
 13 15  1  0  0  0
 15 16  1  0  0  0
 36 31  1  0  0  0
  6  1  1  0  0  0
 15 10  1  0  0  0
  9  5  1  0  0  0
 27 28  1  0  0  0
 21 22  1  0  0  0
 25 26  1  0  0  0
 14 17  1  0  0  0
 16 18  1  0  0  0
M  END
> <minimizedAffinity>
1.98912

> <CNNscore>
0.2536462247

> <CNNaffinity>
6.6807861328

> <CNN_VS>
1.6945562363

> <CNNaffinity_variance>
0.1400640309

$$$$
[H]c1c([H])c([H])c(S(=O)(=O)c2c([H])c([H])c3c(c2[H])c2c(n3[H])C([H])([H])C([H])([H])C([H])(N([H])[H])C2([H])[H])c([H])c1[H]


 26 29  0  0  0  0  0  0  0  0999 V2000
   14.8895   47.1480  135.5697 N   0  0  0  0  0  0  0  0  0  0  0  0
   13.4318   47.2212  135.5108 C   0  0  0  0  0  0  0  0  0  0  0  0
   13.0100   48.5761  135.9498 C   0  0  0  0  0  0  0  0  0  0  0  0
   11.8060   49.1301  135.2589 C   0  0  0  0  0  0  0  0  0  0  0  0
   10.9859   48.1245  134.5621 C   0  0  0  0  0  0  0  0  0  0  0  0
    9.6742   48.0724  134.3295 N   0  0  0  0  0  0  0  0  0  0  0  0
    9.3693   46.9665  133.6546 C   0  0  0  0  0  0  0  0  0  0  0  0
    8.1675   46.4379  133.1687 C   0  0  0  0  0  0  0  0  0  0  0  0
    8.2340   45.2372  132.4976 C   0  0  0  0  0  0  0  0  0  0  0  0
    9.4005   44.5561  132.2918 C   0  0  0  0  0  0  0  0  0  0  0  0
   10.5804   45.0816  132.7726 C   0  0  0  0  0  0  0  0  0  0  0  0
   10.5336   46.2793  133.4450 C   0  0  0  0  0  0  0  0  0  0  0  0
   11.5491   47.0060  134.0145 C   0  0  0  0  0  0  0  0  0  0  0  0
   13.0134   46.8295  134.1406 C   0  0  0  0  0  0  0  0  0  0  0  0
   15.2273   46.4347  134.9082 H   0  0  0  0  0  0  0  0  0  0  0  0
   15.2211   47.0386  136.5439 H   0  0  0  0  0  0  0  0  0  0  0  0
    8.9459   48.7779  134.6170 H   0  0  0  0  0  0  0  0  0  0  0  0
    9.4239   43.0340  131.4317 S   0  0  0  0  0  0  0  0  0  0  0  0
    8.0558   42.4430  131.4757 O   0  0  0  0  0  0  0  0  0  0  0  0
   10.3853   42.1104  132.1200 O   0  0  0  0  0  0  0  0  0  0  0  0
    9.9378   43.3656  129.7926 C   0  0  0  0  0  0  0  0  0  0  0  0
   11.0163   44.1861  129.5737 C   0  0  0  0  0  0  0  0  0  0  0  0
   11.4915   44.5027  128.3146 C   0  0  0  0  0  0  0  0  0  0  0  0
   10.8254   43.9491  127.2366 C   0  0  0  0  0  0  0  0  0  0  0  0
    9.7332   43.1169  127.4276 C   0  0  0  0  0  0  0  0  0  0  0  0
    9.3006   42.8337  128.6998 C   0  0  0  0  0  0  0  0  0  0  0  0
  1  2  1  0  0  0
  2  3  1  0  0  0
  3  4  1  0  0  0
  4  5  1  0  0  0
  5  6  1  0  0  0
  6  7  1  0  0  0
  7  8  2  0  0  0
  8  9  1  0  0  0
  9 10  2  0  0  0
 10 18  1  0  0  0
 18 19  2  0  0  0
 18 20  2  0  0  0
 18 21  1  0  0  0
 21 22  2  0  0  0
 22 23  1  0  0  0
 23 24  2  0  0  0
 24 25  1  0  0  0
 25 26  2  0  0  0
 10 11  1  0  0  0
 11 12  2  0  0  0
 12 13  1  0  0  0
 13 14  1  0  0  0
 14  2  1  0  0  0
 13  5  2  0  0  0
 12  7  1  0  0  0
 26 21  1  0  0  0
  1 15  1  0  0  0
  1 16  1  0  0  0
  6 17  1  0  0  0
M  END
> <minimizedAffinity>
10.52524

> <CNNscore>
0.5398687124

> <CNNaffinity>
7.0620260239

> <CNN_VS>
3.8125669956

> <CNNaffinity_variance>
1.2846632004

$$$$
[H]c1c([H])c([H])c(S(=O)(=O)c2c([H])c([H])c3c(c2[H])c2c(n3[H])C([H])([H])C([H])([H])C([H])(N([H])[H])C2([H])[H])c([H])c1[H]


 26 29  0  0  0  0  0  0  0  0999 V2000
    4.8932   43.4005  135.4922 N   0  0  0  0  0  0  0  0  0  0  0  0
    6.1327   42.8323  134.9681 C   0  0  0  0  0  0  0  0  0  0  0  0
    5.8395   41.4806  134.4269 C   0  0  0  0  0  0  0  0  0  0  0  0
    6.6302   41.0849  133.2218 C   0  0  0  0  0  0  0  0  0  0  0  0
    7.8422   41.8907  132.9959 C   0  0  0  0  0  0  0  0  0  0  0  0
    9.0166   41.5726  132.4509 N   0  0  0  0  0  0  0  0  0  0  0  0
    9.8267   42.6287  132.4527 C   0  0  0  0  0  0  0  0  0  0  0  0
   11.1387   42.8339  132.0098 C   0  0  0  0  0  0  0  0  0  0  0  0
   11.6701   44.0932  132.1787 C   0  0  0  0  0  0  0  0  0  0  0  0
   10.9829   45.1274  132.7489 C   0  0  0  0  0  0  0  0  0  0  0  0
    9.6915   44.9191  133.1829 C   0  0  0  0  0  0  0  0  0  0  0  0
    9.1444   43.6686  133.0225 C   0  0  0  0  0  0  0  0  0  0  0  0
    7.8981   43.2058  133.3639 C   0  0  0  0  0  0  0  0  0  0  0  0
    6.7023   43.8036  133.9995 C   0  0  0  0  0  0  0  0  0  0  0  0
    4.9507   44.4286  135.4786 H   0  0  0  0  0  0  0  0  0  0  0  0
    4.6467   42.9844  136.4072 H   0  0  0  0  0  0  0  0  0  0  0  0
    9.3080   40.6374  132.0620 H   0  0  0  0  0  0  0  0  0  0  0  0
   11.7098   46.7063  132.9375 S   0  0  0  0  0  0  0  0  0  0  0  0
   13.1167   46.6426  132.4479 O   0  0  0  0  0  0  0  0  0  0  0  0
   11.7076   47.0629  134.3948 O   0  0  0  0  0  0  0  0  0  0  0  0
   10.7493   47.8397  132.0135 C   0  0  0  0  0  0  0  0  0  0  0  0
   10.3813   49.0349  132.5796 C   0  0  0  0  0  0  0  0  0  0  0  0
    9.6244   49.9887  131.9248 C   0  0  0  0  0  0  0  0  0  0  0  0
    9.2310   49.6963  130.6318 C   0  0  0  0  0  0  0  0  0  0  0  0
    9.5881   48.4972  130.0346 C   0  0  0  0  0  0  0  0  0  0  0  0
   10.3416   47.5826  130.7287 C   0  0  0  0  0  0  0  0  0  0  0  0
  1  2  1  0  0  0
  2  3  1  0  0  0
  3  4  1  0  0  0
  4  5  1  0  0  0
  5  6  1  0  0  0
  6  7  1  0  0  0
  7  8  2  0  0  0
  8  9  1  0  0  0
  9 10  2  0  0  0
 10 18  1  0  0  0
 18 19  2  0  0  0
 18 20  2  0  0  0
 18 21  1  0  0  0
 21 22  2  0  0  0
 22 23  1  0  0  0
 23 24  2  0  0  0
 24 25  1  0  0  0
 25 26  2  0  0  0
 10 11  1  0  0  0
 11 12  2  0  0  0
 12 13  1  0  0  0
 13 14  1  0  0  0
 14  2  1  0  0  0
 13  5  2  0  0  0
 12  7  1  0  0  0
 26 21  1  0  0  0
  1 15  1  0  0  0
  1 16  1  0  0  0
  6 17  1  0  0  0
M  END
> <minimizedAffinity>
22.08787

> <CNNscore>
0.5278972983

> <CNNaffinity>
6.9115357399

> <CNN_VS>
3.6485810280

> <CNNaffinity_variance>
1.5693641901

$$$$
[H]c1c([H])c([H])c(S(=O)(=O)c2c([H])c([H])c3c(c2[H])c2c(n3[H])C([H])([H])C([H])([H])C([H])(N([H])[H])C2([H])[H])c([H])c1[H]


 26 29  0  0  0  0  0  0  0  0999 V2000
   11.2396   49.1897  134.6611 N   0  0  0  0  0  0  0  0  0  0  0  0
   10.1921   49.1487  133.6437 C   0  0  0  0  0  0  0  0  0  0  0  0
    9.7204   50.5354  133.3971 C   0  0  0  0  0  0  0  0  0  0  0  0
    9.3235   50.8386  131.9884 C   0  0  0  0  0  0  0  0  0  0  0  0
    9.0668   49.6498  131.1575 C   0  0  0  0  0  0  0  0  0  0  0  0
    8.2304   49.4583  130.1372 N   0  0  0  0  0  0  0  0  0  0  0  0
    8.3358   48.2118  129.6826 C   0  0  0  0  0  0  0  0  0  0  0  0
    7.7013   47.5080  128.6522 C   0  0  0  0  0  0  0  0  0  0  0  0
    8.0735   46.1954  128.4646 C   0  0  0  0  0  0  0  0  0  0  0  0
    9.0167   45.5665  129.2275 C   0  0  0  0  0  0  0  0  0  0  0  0
    9.6379   46.2648  130.2404 C   0  0  0  0  0  0  0  0  0  0  0  0
    9.2792   47.5760  130.4424 C   0  0  0  0  0  0  0  0  0  0  0  0
    9.7387   48.4786  131.3689 C   0  0  0  0  0  0  0  0  0  0  0  0
   10.7370   48.4345  132.4609 C   0  0  0  0  0  0  0  0  0  0  0  0
   11.8564   48.3717  134.5561 H   0  0  0  0  0  0  0  0  0  0  0  0
   10.8400   49.3225  135.6065 H   0  0  0  0  0  0  0  0  0  0  0  0
    7.5648   50.1589  129.7167 H   0  0  0  0  0  0  0  0  0  0  0  0
    9.4490   43.8965  128.9429 S   0  0  0  0  0  0  0  0  0  0  0  0
   10.6405   43.8607  128.0474 O   0  0  0  0  0  0  0  0  0  0  0  0
    8.2982   43.2134  128.2646 O   0  0  0  0  0  0  0  0  0  0  0  0
    9.7813   43.1683  130.4986 C   0  0  0  0  0  0  0  0  0  0  0  0
    8.7926   43.1217  131.4498 C   0  0  0  0  0  0  0  0  0  0  0  0
    8.9656   42.5665  132.7040 C   0  0  0  0  0  0  0  0  0  0  0  0
   10.2111   42.0373  132.9880 C   0  0  0  0  0  0  0  0  0  0  0  0
   11.2285   42.0703  132.0467 C   0  0  0  0  0  0  0  0  0  0  0  0
   11.0050   42.6338  130.8145 C   0  0  0  0  0  0  0  0  0  0  0  0
  1  2  1  0  0  0
  2  3  1  0  0  0
  3  4  1  0  0  0
  4  5  1  0  0  0
  5  6  1  0  0  0
  6  7  1  0  0  0
  7  8  2  0  0  0
  8  9  1  0  0  0
  9 10  2  0  0  0
 10 18  1  0  0  0
 18 19  2  0  0  0
 18 20  2  0  0  0
 18 21  1  0  0  0
 21 22  2  0  0  0
 22 23  1  0  0  0
 23 24  2  0  0  0
 24 25  1  0  0  0
 25 26  2  0  0  0
 10 11  1  0  0  0
 11 12  2  0  0  0
 12 13  1  0  0  0
 13 14  1  0  0  0
 14  2  1  0  0  0
 13  5  2  0  0  0
 12  7  1  0  0  0
 26 21  1  0  0  0
  1 15  1  0  0  0
  1 16  1  0  0  0
  6 17  1  0  0  0
M  END
> <minimizedAffinity>
-0.38730

> <CNNscore>
0.5142694116

> <CNNaffinity>
7.4471788406

> <CNN_VS>
3.8298563957

> <CNNaffinity_variance>
1.9221073389

$$$$
[H]c1c([H])c([H])c(S(=O)(=O)c2c([H])c([H])c3c(c2[H])c2c(n3[H])C([H])([H])C([H])([H])C([H])(N([H])[H])C2([H])[H])c([H])c1[H]


 26 29  0  0  0  0  0  0  0  0999 V2000
    8.7346   51.4455  130.9213 N   0  0  0  0  0  0  0  0  0  0  0  0
    7.9969   50.1882  131.0166 C   0  0  0  0  0  0  0  0  0  0  0  0
    6.6827   50.3613  130.3463 C   0  0  0  0  0  0  0  0  0  0  0  0
    6.1586   49.1544  129.6374 C   0  0  0  0  0  0  0  0  0  0  0  0
    6.7933   47.8873  130.0390 C   0  0  0  0  0  0  0  0  0  0  0  0
    6.3114   46.6456  130.0954 N   0  0  0  0  0  0  0  0  0  0  0  0
    7.2521   45.8051  130.5198 C   0  0  0  0  0  0  0  0  0  0  0  0
    7.2734   44.4247  130.7523 C   0  0  0  0  0  0  0  0  0  0  0  0
    8.4559   43.8805  131.2018 C   0  0  0  0  0  0  0  0  0  0  0  0
    9.5844   44.6178  131.4251 C   0  0  0  0  0  0  0  0  0  0  0  0
    9.5572   45.9763  131.1944 C   0  0  0  0  0  0  0  0  0  0  0  0
    8.3856   46.5372  130.7453 C   0  0  0  0  0  0  0  0  0  0  0  0
    8.0981   47.8450  130.4436 C   0  0  0  0  0  0  0  0  0  0  0  0
    8.8621   49.1126  130.4684 C   0  0  0  0  0  0  0  0  0  0  0  0
    9.7458   51.2587  130.9782 H   0  0  0  0  0  0  0  0  0  0  0  0
    8.3762   52.1434  131.5962 H   0  0  0  0  0  0  0  0  0  0  0  0
    5.3372   46.3267  129.8507 H   0  0  0  0  0  0  0  0  0  0  0  0
   11.0586   43.8716  131.9966 S   0  0  0  0  0  0  0  0  0  0  0  0
   10.7832   42.4343  132.2819 O   0  0  0  0  0  0  0  0  0  0  0  0
   11.4815   44.5562  133.2630 O   0  0  0  0  0  0  0  0  0  0  0  0
   12.2651   44.0676  130.7451 C   0  0  0  0  0  0  0  0  0  0  0  0
   11.8767   44.4388  129.4818 C   0  0  0  0  0  0  0  0  0  0  0  0
   12.7597   44.6169  128.4331 C   0  0  0  0  0  0  0  0  0  0  0  0
   14.0996   44.4028  128.6996 C   0  0  0  0  0  0  0  0  0  0  0  0
   14.5209   44.0273  129.9660 C   0  0  0  0  0  0  0  0  0  0  0  0
   13.6027   43.8636  130.9740 C   0  0  0  0  0  0  0  0  0  0  0  0
  1  2  1  0  0  0
  2  3  1  0  0  0
  3  4  1  0  0  0
  4  5  1  0  0  0
  5  6  1  0  0  0
  6  7  1  0  0  0
  7  8  2  0  0  0
  8  9  1  0  0  0
  9 10  2  0  0  0
 10 18  1  0  0  0
 18 19  2  0  0  0
 18 20  2  0  0  0
 18 21  1  0  0  0
 21 22  2  0  0  0
 22 23  1  0  0  0
 23 24  2  0  0  0
 24 25  1  0  0  0
 25 26  2  0  0  0
 10 11  1  0  0  0
 11 12  2  0  0  0
 12 13  1  0  0  0
 13 14  1  0  0  0
 14  2  1  0  0  0
 13  5  2  0  0  0
 12  7  1  0  0  0
 26 21  1  0  0  0
  1 15  1  0  0  0
  1 16  1  0  0  0
  6 17  1  0  0  0
M  END
> <minimizedAffinity>
-0.20498

> <CNNscore>
0.4813299477

> <CNNaffinity>
7.6084418297

> <CNN_VS>
3.6621708870

> <CNNaffinity_variance>
2.4781250954

$$$$
[H]c1c([H])c([H])c(S(=O)(=O)c2c([H])c([H])c3c(c2[H])c2c(n3[H])C([H])([H])C([H])([H])C([H])(N([H])[H])C2([H])[H])c([H])c1[H]


 26 29  0  0  0  0  0  0  0  0999 V2000
    6.6572   48.7100  126.7452 N   0  0  0  0  0  0  0  0  0  0  0  0
    7.3934   48.9813  127.9774 C   0  0  0  0  0  0  0  0  0  0  0  0
    7.3136   50.4367  128.2631 C   0  0  0  0  0  0  0  0  0  0  0  0
    7.2502   50.8054  129.7102 C   0  0  0  0  0  0  0  0  0  0  0  0
    7.6817   49.7397  130.6307 C   0  0  0  0  0  0  0  0  0  0  0  0
    8.2733   49.7994  131.8240 N   0  0  0  0  0  0  0  0  0  0  0  0
    8.4795   48.5729  132.2980 C   0  0  0  0  0  0  0  0  0  0  0  0
    9.0518   48.0823  133.4777 C   0  0  0  0  0  0  0  0  0  0  0  0
    9.0975   46.7148  133.6335 C   0  0  0  0  0  0  0  0  0  0  0  0
    8.6172   45.8370  132.7030 C   0  0  0  0  0  0  0  0  0  0  0  0
    8.0550   46.3260  131.5437 C   0  0  0  0  0  0  0  0  0  0  0  0
    8.0006   47.6884  131.3707 C   0  0  0  0  0  0  0  0  0  0  0  0
    7.4994   48.4205  130.3234 C   0  0  0  0  0  0  0  0  0  0  0  0
    6.8535   48.0877  129.0338 C   0  0  0  0  0  0  0  0  0  0  0  0
    6.3360   47.7316  126.7420 H   0  0  0  0  0  0  0  0  0  0  0  0
    7.1993   48.9991  125.9124 H   0  0  0  0  0  0  0  0  0  0  0  0
    8.5555   50.6652  132.3545 H   0  0  0  0  0  0  0  0  0  0  0  0
    8.7024   44.1090  132.9555 S   0  0  0  0  0  0  0  0  0  0  0  0
    7.8600   43.4367  131.9253 O   0  0  0  0  0  0  0  0  0  0  0  0
    8.1604   43.7976  134.3195 O   0  0  0  0  0  0  0  0  0  0  0  0
   10.3837   43.6425  132.8277 C   0  0  0  0  0  0  0  0  0  0  0  0
   11.2984   44.1561  133.7133 C   0  0  0  0  0  0  0  0  0  0  0  0
   12.6448   43.8437  133.6870 C   0  0  0  0  0  0  0  0  0  0  0  0
   13.0645   42.9645  132.7056 C   0  0  0  0  0  0  0  0  0  0  0  0
   12.1631   42.4301  131.7979 C   0  0  0  0  0  0  0  0  0  0  0  0
   10.8352   42.7730  131.8669 C   0  0  0  0  0  0  0  0  0  0  0  0
  1  2  1  0  0  0
  2  3  1  0  0  0
  3  4  1  0  0  0
  4  5  1  0  0  0
  5  6  1  0  0  0
  6  7  1  0  0  0
  7  8  2  0  0  0
  8  9  1  0  0  0
  9 10  2  0  0  0
 10 18  1  0  0  0
 18 19  2  0  0  0
 18 20  2  0  0  0
 18 21  1  0  0  0
 21 22  2  0  0  0
 22 23  1  0  0  0
 23 24  2  0  0  0
 24 25  1  0  0  0
 25 26  2  0  0  0
 10 11  1  0  0  0
 11 12  2  0  0  0
 12 13  1  0  0  0
 13 14  1  0  0  0
 14  2  1  0  0  0
 13  5  2  0  0  0
 12  7  1  0  0  0
 26 21  1  0  0  0
  1 15  1  0  0  0
  1 16  1  0  0  0
  6 17  1  0  0  0
M  END
> <minimizedAffinity>
-0.05719

> <CNNscore>
0.4680405259

> <CNNaffinity>
7.1970291138

> <CNN_VS>
3.3685011864

> <CNNaffinity_variance>
1.2787435055

$$$$
[H]c1c([H])c([H])c(S(=O)(=O)c2c([H])c([H])c3c(c2[H])c2c(n3[H])C([H])([H])C([H])([H])C([H])(N([H])[H])C2([H])[H])c([H])c1[H]


 26 29  0  0  0  0  0  0  0  0999 V2000
    9.2440   46.3531  136.4846 N   0  0  0  0  0  0  0  0  0  0  0  0
    8.7812   46.9292  135.2245 C   0  0  0  0  0  0  0  0  0  0  0  0
    8.2738   48.2995  135.4912 C   0  0  0  0  0  0  0  0  0  0  0  0
    8.5102   49.2960  134.4026 C   0  0  0  0  0  0  0  0  0  0  0  0
    8.8284   48.7038  133.0921 C   0  0  0  0  0  0  0  0  0  0  0  0
    8.5751   49.1287  131.8541 N   0  0  0  0  0  0  0  0  0  0  0  0
    9.0528   48.2632  130.9630 C   0  0  0  0  0  0  0  0  0  0  0  0
    9.0566   48.2287  129.5635 C   0  0  0  0  0  0  0  0  0  0  0  0
    9.6598   47.1463  128.9624 C   0  0  0  0  0  0  0  0  0  0  0  0
   10.2419   46.1272  129.6621 C   0  0  0  0  0  0  0  0  0  0  0  0
   10.2350   46.1670  131.0397 C   0  0  0  0  0  0  0  0  0  0  0  0
    9.6375   47.2396  131.6573 C   0  0  0  0  0  0  0  0  0  0  0  0
    9.4970   47.5157  132.9944 C   0  0  0  0  0  0  0  0  0  0  0  0
    9.8953   46.8346  134.2468 C   0  0  0  0  0  0  0  0  0  0  0  0
    9.9541   45.6317  136.2953 H   0  0  0  0  0  0  0  0  0  0  0  0
    8.4489   46.0462  137.0717 H   0  0  0  0  0  0  0  0  0  0  0  0
    8.0742   50.0120  131.5718 H   0  0  0  0  0  0  0  0  0  0  0  0
   10.9935   44.7772  128.8441 S   0  0  0  0  0  0  0  0  0  0  0  0
   12.3606   45.1857  128.4116 O   0  0  0  0  0  0  0  0  0  0  0  0
   10.1733   44.4332  127.6358 O   0  0  0  0  0  0  0  0  0  0  0  0
   11.0394   43.4403  129.9716 C   0  0  0  0  0  0  0  0  0  0  0  0
   10.0199   42.5210  129.9743 C   0  0  0  0  0  0  0  0  0  0  0  0
    9.9734   41.4351  130.8286 C   0  0  0  0  0  0  0  0  0  0  0  0
   11.0232   41.2923  131.7173 C   0  0  0  0  0  0  0  0  0  0  0  0
   12.0664   42.2052  131.7371 C   0  0  0  0  0  0  0  0  0  0  0  0
   12.0650   43.2676  130.8669 C   0  0  0  0  0  0  0  0  0  0  0  0
  1  2  1  0  0  0
  2  3  1  0  0  0
  3  4  1  0  0  0
  4  5  1  0  0  0
  5  6  1  0  0  0
  6  7  1  0  0  0
  7  8  2  0  0  0
  8  9  1  0  0  0
  9 10  2  0  0  0
 10 18  1  0  0  0
 18 19  2  0  0  0
 18 20  2  0  0  0
 18 21  1  0  0  0
 21 22  2  0  0  0
 22 23  1  0  0  0
 23 24  2  0  0  0
 24 25  1  0  0  0
 25 26  2  0  0  0
 10 11  1  0  0  0
 11 12  2  0  0  0
 12 13  1  0  0  0
 13 14  1  0  0  0
 14  2  1  0  0  0
 13  5  2  0  0  0
 12  7  1  0  0  0
 26 21  1  0  0  0
  1 15  1  0  0  0
  1 16  1  0  0  0
  6 17  1  0  0  0
M  END
> <minimizedAffinity>
3.77789

> <CNNscore>
0.4655746818

> <CNNaffinity>
7.2495269775

> <CNN_VS>
3.3751962185

> <CNNaffinity_variance>
2.3226027489

$$$$
[H]c1c([H])c([H])c(S(=O)(=O)c2c([H])c([H])c3c(c2[H])c2c(n3[H])C([H])([H])C([H])([H])C([H])(N([H])[H])C2([H])[H])c([H])c1[H]


 26 29  0  0  0  0  0  0  0  0999 V2000
    7.0625   51.7540  130.6843 N   0  0  0  0  0  0  0  0  0  0  0  0
    6.8663   50.4214  130.1191 C   0  0  0  0  0  0  0  0  0  0  0  0
    6.7664   50.5461  128.6424 C   0  0  0  0  0  0  0  0  0  0  0  0
    7.3499   49.4137  127.8605 C   0  0  0  0  0  0  0  0  0  0  0  0
    7.5606   48.1804  128.6377 C   0  0  0  0  0  0  0  0  0  0  0  0
    7.5188   46.8984  128.2746 N   0  0  0  0  0  0  0  0  0  0  0  0
    7.7761   46.1148  129.3193 C   0  0  0  0  0  0  0  0  0  0  0  0
    7.8552   44.7268  129.4829 C   0  0  0  0  0  0  0  0  0  0  0  0
    8.1511   44.2576  130.7434 C   0  0  0  0  0  0  0  0  0  0  0  0
    8.3659   45.0749  131.8171 C   0  0  0  0  0  0  0  0  0  0  0  0
    8.2867   46.4406  131.6497 C   0  0  0  0  0  0  0  0  0  0  0  0
    7.9923   46.9273  130.3985 C   0  0  0  0  0  0  0  0  0  0  0  0
    7.8572   48.2246  129.9712 C   0  0  0  0  0  0  0  0  0  0  0  0
    7.9616   49.5516  130.6188 C   0  0  0  0  0  0  0  0  0  0  0  0
    7.5408   51.6777  131.5931 H   0  0  0  0  0  0  0  0  0  0  0  0
    6.1781   52.2914  130.6951 H   0  0  0  0  0  0  0  0  0  0  0  0
    7.3163   46.5125  127.3150 H   0  0  0  0  0  0  0  0  0  0  0  0
    8.7384   44.4218  133.3956 S   0  0  0  0  0  0  0  0  0  0  0  0
    7.9177   43.1952  133.6074 O   0  0  0  0  0  0  0  0  0  0  0  0
    8.3790   45.4442  134.4332 O   0  0  0  0  0  0  0  0  0  0  0  0
   10.4523   44.0723  133.4274 C   0  0  0  0  0  0  0  0  0  0  0  0
   11.0154   43.3494  132.4052 C   0  0  0  0  0  0  0  0  0  0  0  0
   12.3585   43.0270  132.3479 C   0  0  0  0  0  0  0  0  0  0  0  0
   13.1535   43.4692  133.3893 C   0  0  0  0  0  0  0  0  0  0  0  0
   12.6122   44.2013  134.4349 C   0  0  0  0  0  0  0  0  0  0  0  0
   11.2708   44.4951  134.4444 C   0  0  0  0  0  0  0  0  0  0  0  0
  1  2  1  0  0  0
  2  3  1  0  0  0
  3  4  1  0  0  0
  4  5  1  0  0  0
  5  6  1  0  0  0
  6  7  1  0  0  0
  7  8  2  0  0  0
  8  9  1  0  0  0
  9 10  2  0  0  0
 10 18  1  0  0  0
 18 19  2  0  0  0
 18 20  2  0  0  0
 18 21  1  0  0  0
 21 22  2  0  0  0
 22 23  1  0  0  0
 23 24  2  0  0  0
 24 25  1  0  0  0
 25 26  2  0  0  0
 10 11  1  0  0  0
 11 12  2  0  0  0
 12 13  1  0  0  0
 13 14  1  0  0  0
 14  2  1  0  0  0
 13  5  2  0  0  0
 12  7  1  0  0  0
 26 21  1  0  0  0
  1 15  1  0  0  0
  1 16  1  0  0  0
  6 17  1  0  0  0
M  END
> <minimizedAffinity>
-1.63355

> <CNNscore>
0.4591776431

> <CNNaffinity>
7.2757811546

> <CNN_VS>
3.3408761024

> <CNNaffinity_variance>
1.9061653614

$$$$
[H]c1c([H])c([H])c(S(=O)(=O)c2c([H])c([H])c3c(c2[H])c2c(n3[H])C([H])([H])C([H])([H])C([H])(N([H])[H])C2([H])[H])c([H])c1[H]


 26 29  0  0  0  0  0  0  0  0999 V2000
    5.0412   48.0245  128.1036 N   0  0  0  0  0  0  0  0  0  0  0  0
    6.1738   48.6714  128.7612 C   0  0  0  0  0  0  0  0  0  0  0  0
    5.7966   50.0725  129.0789 C   0  0  0  0  0  0  0  0  0  0  0  0
    6.3691   50.6210  130.3459 C   0  0  0  0  0  0  0  0  0  0  0  0
    7.5209   49.8681  130.8711 C   0  0  0  0  0  0  0  0  0  0  0  0
    8.5848   50.2682  131.5679 N   0  0  0  0  0  0  0  0  0  0  0  0
    9.3791   49.2331  131.8312 C   0  0  0  0  0  0  0  0  0  0  0  0
   10.5943   49.1038  132.5141 C   0  0  0  0  0  0  0  0  0  0  0  0
   11.1422   47.8426  132.5903 C   0  0  0  0  0  0  0  0  0  0  0  0
   10.5597   46.7368  132.0380 C   0  0  0  0  0  0  0  0  0  0  0  0
    9.3634   46.8705  131.3670 C   0  0  0  0  0  0  0  0  0  0  0  0
    8.8015   48.1218  131.2807 C   0  0  0  0  0  0  0  0  0  0  0  0
    7.6345   48.5199  130.6777 C   0  0  0  0  0  0  0  0  0  0  0  0
    6.5641   47.8311  129.9220 C   0  0  0  0  0  0  0  0  0  0  0  0
    5.0917   47.0063  128.2493 H   0  0  0  0  0  0  0  0  0  0  0  0
    4.9578   48.3254  127.1169 H   0  0  0  0  0  0  0  0  0  0  0  0
    8.8083   51.2475  131.8867 H   0  0  0  0  0  0  0  0  0  0  0  0
   11.3023   45.1592  132.1667 S   0  0  0  0  0  0  0  0  0  0  0  0
   11.6453   44.9113  133.5964 O   0  0  0  0  0  0  0  0  0  0  0  0
   12.5592   45.1539  131.3473 O   0  0  0  0  0  0  0  0  0  0  0  0
   10.1535   43.9876  131.5599 C   0  0  0  0  0  0  0  0  0  0  0  0
    9.0796   43.6274  132.3354 C   0  0  0  0  0  0  0  0  0  0  0  0
    8.1238   42.7112  131.9376 C   0  0  0  0  0  0  0  0  0  0  0  0
    8.2834   42.1431  130.6870 C   0  0  0  0  0  0  0  0  0  0  0  0
    9.3582   42.4880  129.8820 C   0  0  0  0  0  0  0  0  0  0  0  0
   10.2806   43.4041  130.3244 C   0  0  0  0  0  0  0  0  0  0  0  0
  1  2  1  0  0  0
  2  3  1  0  0  0
  3  4  1  0  0  0
  4  5  1  0  0  0
  5  6  1  0  0  0
  6  7  1  0  0  0
  7  8  2  0  0  0
  8  9  1  0  0  0
  9 10  2  0  0  0
 10 18  1  0  0  0
 18 19  2  0  0  0
 18 20  2  0  0  0
 18 21  1  0  0  0
 21 22  2  0  0  0
 22 23  1  0  0  0
 23 24  2  0  0  0
 24 25  1  0  0  0
 25 26  2  0  0  0
 10 11  1  0  0  0
 11 12  2  0  0  0
 12 13  1  0  0  0
 13 14  1  0  0  0
 14  2  1  0  0  0
 13  5  2  0  0  0
 12  7  1  0  0  0
 26 21  1  0  0  0
  1 15  1  0  0  0
  1 16  1  0  0  0
  6 17  1  0  0  0
M  END
> <minimizedAffinity>
-4.35186

> <CNNscore>
0.4471505880

> <CNNaffinity>
7.3074278831

> <CNN_VS>
3.2675206661

> <CNNaffinity_variance>
0.7250781655

$$$$
[H]c1c([H])c([H])c(S(=O)(=O)c2c([H])c([H])c3c(c2[H])c2c(n3[H])C([H])([H])C([H])([H])C([H])(N([H])[H])C2([H])[H])c([H])c1[H]


 26 29  0  0  0  0  0  0  0  0999 V2000
    9.4770   51.0821  132.2525 N   0  0  0  0  0  0  0  0  0  0  0  0
    8.6423   50.1007  131.5639 C   0  0  0  0  0  0  0  0  0  0  0  0
    7.7812   50.8166  130.5881 C   0  0  0  0  0  0  0  0  0  0  0  0
    7.4948   50.0783  129.3205 C   0  0  0  0  0  0  0  0  0  0  0  0
    7.7501   48.6292  129.3875 C   0  0  0  0  0  0  0  0  0  0  0  0
    7.1625   47.6067  128.7658 N   0  0  0  0  0  0  0  0  0  0  0  0
    7.7265   46.4584  129.1331 C   0  0  0  0  0  0  0  0  0  0  0  0
    7.4961   45.1213  128.7885 C   0  0  0  0  0  0  0  0  0  0  0  0
    8.2966   44.1714  129.3830 C   0  0  0  0  0  0  0  0  0  0  0  0
    9.2850   44.4753  130.2762 C   0  0  0  0  0  0  0  0  0  0  0  0
    9.5070   45.7936  130.6114 C   0  0  0  0  0  0  0  0  0  0  0  0
    8.7178   46.7556  130.0280 C   0  0  0  0  0  0  0  0  0  0  0  0
    8.7331   48.1187  130.1881 C   0  0  0  0  0  0  0  0  0  0  0  0
    9.5397   49.0648  130.9916 C   0  0  0  0  0  0  0  0  0  0  0  0
   10.3347   50.6271  132.5959 H   0  0  0  0  0  0  0  0  0  0  0  0
    8.9360   51.6000  132.9668 H   0  0  0  0  0  0  0  0  0  0  0  0
    6.3659   47.6502  128.0771 H   0  0  0  0  0  0  0  0  0  0  0  0
   10.2709   43.2258  130.9998 S   0  0  0  0  0  0  0  0  0  0  0  0
   11.1884   42.6822  129.9579 O   0  0  0  0  0  0  0  0  0  0  0  0
    9.3708   42.1295  131.4887 O   0  0  0  0  0  0  0  0  0  0  0  0
   11.1498   43.9534  132.3261 C   0  0  0  0  0  0  0  0  0  0  0  0
   10.9090   43.5322  133.6103 C   0  0  0  0  0  0  0  0  0  0  0  0
   11.5555   44.0498  134.7173 C   0  0  0  0  0  0  0  0  0  0  0  0
   12.4894   45.0436  134.4890 C   0  0  0  0  0  0  0  0  0  0  0  0
   12.7533   45.4887  133.2028 C   0  0  0  0  0  0  0  0  0  0  0  0
   12.0831   44.9413  132.1364 C   0  0  0  0  0  0  0  0  0  0  0  0
  1  2  1  0  0  0
  2  3  1  0  0  0
  3  4  1  0  0  0
  4  5  1  0  0  0
  5  6  1  0  0  0
  6  7  1  0  0  0
  7  8  2  0  0  0
  8  9  1  0  0  0
  9 10  2  0  0  0
 10 18  1  0  0  0
 18 19  2  0  0  0
 18 20  2  0  0  0
 18 21  1  0  0  0
 21 22  2  0  0  0
 22 23  1  0  0  0
 23 24  2  0  0  0
 24 25  1  0  0  0
 25 26  2  0  0  0
 10 11  1  0  0  0
 11 12  2  0  0  0
 12 13  1  0  0  0
 13 14  1  0  0  0
 14  2  1  0  0  0
 13  5  2  0  0  0
 12  7  1  0  0  0
 26 21  1  0  0  0
  1 15  1  0  0  0
  1 16  1  0  0  0
  6 17  1  0  0  0
M  END
> <minimizedAffinity>
-2.83599

> <CNNscore>
0.4443832934

> <CNNaffinity>
7.3282866478

> <CNN_VS>
3.2565681934

> <CNNaffinity_variance>
0.9052559137

$$$$
[H]c1c([H])c(OC([H])([H])[H])c2c(c1[H])[C@]([H])(C([H])([H])N(C([H])([H])[H])C([H])([H])C([H])([H])c1c([H])c([H])c3c(c1[H])C([H])([H])N(S(=O)(=O)C([H])([H])[H])C3([H])[H])C([H])([H])C([H])([H])C2([H])[H]


 30 33  0  0  0  0  0  0  0  0999 V2000
    7.5145   49.9102  129.9823 N   0  0  0  0  0  0  0  0  0  0  0  0
    8.1282   50.2200  128.7671 C   0  0  0  0  0  0  0  0  0  0  0  0
    8.2307   49.4740  131.0815 C   0  0  0  0  0  0  0  0  0  0  0  0
   10.0531   45.4342  133.1834 C   0  0  0  0  0  0  0  0  0  0  0  0
    9.5752   45.8680  134.4131 C   0  0  0  0  0  0  0  0  0  0  0  0
    8.8920   47.0853  134.4608 C   0  0  0  0  0  0  0  0  0  0  0  0
    8.6772   47.8650  133.3350 C   0  0  0  0  0  0  0  0  0  0  0  0
    9.1546   47.4313  132.1106 C   0  0  0  0  0  0  0  0  0  0  0  0
    9.8208   46.2348  132.0887 C   0  0  0  0  0  0  0  0  0  0  0  0
   10.2845   45.8163  130.7133 C   0  0  0  0  0  0  0  0  0  0  0  0
    9.0616   45.9275  129.8127 C   0  0  0  0  0  0  0  0  0  0  0  0
    8.5747   47.3558  129.7335 C   0  0  0  0  0  0  0  0  0  0  0  0
    9.0068   48.2095  130.8646 C   0  0  0  0  0  0  0  0  0  0  0  0
   10.1587   42.9750  133.3108 C   0  0  0  0  0  0  0  0  0  0  0  0
   10.7521   44.2260  133.0304 O   0  0  0  0  0  0  0  0  0  0  0  0
    6.1001   49.9084  130.0460 C   0  0  0  0  0  0  0  0  0  0  0  0
    5.4019   51.2122  129.8490 C   0  0  0  0  0  0  0  0  0  0  0  0
    6.2069   52.1230  128.9559 C   0  0  0  0  0  0  0  0  0  0  0  0
    7.5526   52.3510  129.1129 C   0  0  0  0  0  0  0  0  0  0  0  0
    8.2637   53.1976  128.2971 C   0  0  0  0  0  0  0  0  0  0  0  0
    7.6389   53.8759  127.2536 C   0  0  0  0  0  0  0  0  0  0  0  0
    6.3047   53.6568  127.0896 C   0  0  0  0  0  0  0  0  0  0  0  0
    5.5812   52.7921  127.9228 C   0  0  0  0  0  0  0  0  0  0  0  0
    5.8153   54.4655  125.9412 C   0  0  0  0  0  0  0  0  0  0  0  0
    7.0026   55.0041  125.3591 N   0  0  0  0  0  0  0  0  0  0  0  0
    8.1140   54.8235  126.2308 C   0  0  0  0  0  0  0  0  0  0  0  0
    7.3841   54.2673  123.8445 S   0  0  0  0  0  0  0  0  0  0  0  0
    8.5729   55.2164  122.9390 C   0  0  0  0  0  0  0  0  0  0  0  0
    7.9073   52.8903  124.1365 O   0  0  0  0  0  0  0  0  0  0  0  0
    6.1111   54.0698  123.0526 O   0  0  0  0  0  0  0  0  0  0  0  0
 14 15  1  0  0  0
 15  4  1  0  0  0
  4  5  2  0  0  0
  5  6  1  0  0  0
  6  7  2  0  0  0
  7  8  1  0  0  0
  8  9  2  0  0  0
  9 10  1  0  0  0
 10 11  1  0  0  0
 11 12  1  0  0  0
 12 13  1  0  0  0
 13  3  1  0  0  0
  3  1  1  0  0  0
  1  2  1  0  0  0
  1 16  1  0  0  0
 16 17  1  0  0  0
 17 18  1  0  0  0
 18 19  2  0  0  0
 19 20  1  0  0  0
 20 21  2  0  0  0
 21 22  1  0  0  0
 22 23  2  0  0  0
 22 24  1  0  0  0
 24 25  1  0  0  0
 25 27  1  0  0  0
 27 28  1  0  0  0
 27 29  2  0  0  0
 27 30  2  0  0  0
 25 26  1  0  0  0
  9  4  1  0  0  0
 23 18  1  0  0  0
 13  8  1  0  0  0
 26 21  1  0  0  0
M  END
> <minimizedAffinity>
11.98318

> <CNNscore>
0.4461253285

> <CNNaffinity>
6.9654016495

> <CNN_VS>
3.1074421406

> <CNNaffinity_variance>
0.4625895619

$$$$
[H]c1c([H])c(OC([H])([H])[H])c2c(c1[H])[C@]([H])(C([H])([H])N(C([H])([H])[H])C([H])([H])C([H])([H])c1c([H])c([H])c3c(c1[H])C([H])([H])N(S(=O)(=O)C([H])([H])[H])C3([H])[H])C([H])([H])C([H])([H])C2([H])[H]


 30 33  0  0  0  0  0  0  0  0999 V2000
    7.5491   49.9060  130.0086 N   0  0  0  0  0  0  0  0  0  0  0  0
    8.2721   50.4281  128.9344 C   0  0  0  0  0  0  0  0  0  0  0  0
    8.1207   49.0637  130.9442 C   0  0  0  0  0  0  0  0  0  0  0  0
    9.0044   44.2912  131.6518 C   0  0  0  0  0  0  0  0  0  0  0  0
    8.3920   44.3704  132.8958 C   0  0  0  0  0  0  0  0  0  0  0  0
    7.8817   45.6060  133.3000 C   0  0  0  0  0  0  0  0  0  0  0  0
    7.9645   46.7421  132.5101 C   0  0  0  0  0  0  0  0  0  0  0  0
    8.5755   46.6613  131.2710 C   0  0  0  0  0  0  0  0  0  0  0  0
    9.0678   45.4395  130.8963 C   0  0  0  0  0  0  0  0  0  0  0  0
    9.6925   45.4256  129.5210 C   0  0  0  0  0  0  0  0  0  0  0  0
    8.6627   46.0549  128.5924 C   0  0  0  0  0  0  0  0  0  0  0  0
    8.3937   47.4918  128.9754 C   0  0  0  0  0  0  0  0  0  0  0  0
    8.7435   47.8237  130.3762 C   0  0  0  0  0  0  0  0  0  0  0  0
    8.7480   41.9675  130.8710 C   0  0  0  0  0  0  0  0  0  0  0  0
    9.5489   43.0961  131.1548 O   0  0  0  0  0  0  0  0  0  0  0  0
    6.1527   50.1342  130.0602 C   0  0  0  0  0  0  0  0  0  0  0  0
    5.6838   51.5478  129.9698 C   0  0  0  0  0  0  0  0  0  0  0  0
    6.4315   52.2938  128.8929 C   0  0  0  0  0  0  0  0  0  0  0  0
    7.7871   52.1908  128.6942 C   0  0  0  0  0  0  0  0  0  0  0  0
    8.4508   52.8922  127.7167 C   0  0  0  0  0  0  0  0  0  0  0  0
    7.7648   53.7560  126.8668 C   0  0  0  0  0  0  0  0  0  0  0  0
    6.4205   53.8652  127.0556 C   0  0  0  0  0  0  0  0  0  0  0  0
    5.7450   53.1483  128.0532 C   0  0  0  0  0  0  0  0  0  0  0  0
    5.8662   54.8299  126.0685 C   0  0  0  0  0  0  0  0  0  0  0  0
    6.9610   55.1075  125.1951 N   0  0  0  0  0  0  0  0  0  0  0  0
    8.1794   54.6223  125.7499 C   0  0  0  0  0  0  0  0  0  0  0  0
    6.7576   54.3889  123.6380 S   0  0  0  0  0  0  0  0  0  0  0  0
    7.7460   55.1981  122.4124 C   0  0  0  0  0  0  0  0  0  0  0  0
    7.1354   52.9407  123.7611 O   0  0  0  0  0  0  0  0  0  0  0  0
    5.2911   54.4066  123.2695 O   0  0  0  0  0  0  0  0  0  0  0  0
 14 15  1  0  0  0
 15  4  1  0  0  0
  4  5  2  0  0  0
  5  6  1  0  0  0
  6  7  2  0  0  0
  7  8  1  0  0  0
  8  9  2  0  0  0
  9 10  1  0  0  0
 10 11  1  0  0  0
 11 12  1  0  0  0
 12 13  1  0  0  0
 13  3  1  0  0  0
  3  1  1  0  0  0
  1  2  1  0  0  0
  1 16  1  0  0  0
 16 17  1  0  0  0
 17 18  1  0  0  0
 18 19  2  0  0  0
 19 20  1  0  0  0
 20 21  2  0  0  0
 21 22  1  0  0  0
 22 23  2  0  0  0
 22 24  1  0  0  0
 24 25  1  0  0  0
 25 27  1  0  0  0
 27 28  1  0  0  0
 27 29  2  0  0  0
 27 30  2  0  0  0
 25 26  1  0  0  0
  9  4  1  0  0  0
 23 18  1  0  0  0
 13  8  1  0  0  0
 26 21  1  0  0  0
M  END
> <minimizedAffinity>
14.23589

> <CNNscore>
0.3512402773

> <CNNaffinity>
6.6982736588

> <CNN_VS>
2.3527035713

> <CNNaffinity_variance>
0.8232055902

$$$$
[H]c1c([H])c(OC([H])([H])[H])c2c(c1[H])[C@]([H])(C([H])([H])N(C([H])([H])[H])C([H])([H])C([H])([H])c1c([H])c([H])c3c(c1[H])C([H])([H])N(S(=O)(=O)C([H])([H])[H])C3([H])[H])C([H])([H])C([H])([H])C2([H])[H]


 30 33  0  0  0  0  0  0  0  0999 V2000
    7.1938   49.2418  129.0961 N   0  0  0  0  0  0  0  0  0  0  0  0
    7.2260   50.6318  128.9692 C   0  0  0  0  0  0  0  0  0  0  0  0
    6.6404   48.6130  130.1961 C   0  0  0  0  0  0  0  0  0  0  0  0
   10.3271   47.9958  133.3720 C   0  0  0  0  0  0  0  0  0  0  0  0
   10.4059   49.3727  133.5358 C   0  0  0  0  0  0  0  0  0  0  0  0
    9.5156   50.1726  132.8160 C   0  0  0  0  0  0  0  0  0  0  0  0
    8.5669   49.6443  131.9544 C   0  0  0  0  0  0  0  0  0  0  0  0
    8.4901   48.2720  131.7921 C   0  0  0  0  0  0  0  0  0  0  0  0
    9.3730   47.5084  132.5085 C   0  0  0  0  0  0  0  0  0  0  0  0
    9.2072   46.0215  132.3002 C   0  0  0  0  0  0  0  0  0  0  0  0
    7.7281   45.7350  132.5223 C   0  0  0  0  0  0  0  0  0  0  0  0
    6.8774   46.4536  131.5008 C   0  0  0  0  0  0  0  0  0  0  0  0
    7.5387   47.6199  130.8705 C   0  0  0  0  0  0  0  0  0  0  0  0
   12.3599   46.6050  133.4629 C   0  0  0  0  0  0  0  0  0  0  0  0
   11.1767   47.1065  134.0496 O   0  0  0  0  0  0  0  0  0  0  0  0
    7.8752   48.4576  128.1342 C   0  0  0  0  0  0  0  0  0  0  0  0
    7.4885   47.0210  128.0202 C   0  0  0  0  0  0  0  0  0  0  0  0
    8.6200   46.1240  128.4566 C   0  0  0  0  0  0  0  0  0  0  0  0
    9.9452   46.3960  128.2167 C   0  0  0  0  0  0  0  0  0  0  0  0
   10.9596   45.5566  128.6093 C   0  0  0  0  0  0  0  0  0  0  0  0
   10.6837   44.3686  129.2815 C   0  0  0  0  0  0  0  0  0  0  0  0
    9.3729   44.0896  129.5241 C   0  0  0  0  0  0  0  0  0  0  0  0
    8.3394   44.9478  129.1232 C   0  0  0  0  0  0  0  0  0  0  0  0
    9.2752   42.7883  130.2378 C   0  0  0  0  0  0  0  0  0  0  0  0
   10.6288   42.4525  130.5435 N   0  0  0  0  0  0  0  0  0  0  0  0
   11.5274   43.2886  129.8216 C   0  0  0  0  0  0  0  0  0  0  0  0
   10.9815   42.6138  132.2264 S   0  0  0  0  0  0  0  0  0  0  0  0
    9.5627   42.2650  133.2261 C   0  0  0  0  0  0  0  0  0  0  0  0
   12.1045   41.6676  132.5405 O   0  0  0  0  0  0  0  0  0  0  0  0
   11.5202   44.0017  132.4911 O   0  0  0  0  0  0  0  0  0  0  0  0
 14 15  1  0  0  0
 15  4  1  0  0  0
  4  5  2  0  0  0
  5  6  1  0  0  0
  6  7  2  0  0  0
  7  8  1  0  0  0
  8  9  2  0  0  0
  9 10  1  0  0  0
 10 11  1  0  0  0
 11 12  1  0  0  0
 12 13  1  0  0  0
 13  3  1  0  0  0
  3  1  1  0  0  0
  1  2  1  0  0  0
  1 16  1  0  0  0
 16 17  1  0  0  0
 17 18  1  0  0  0
 18 19  2  0  0  0
 19 20  1  0  0  0
 20 21  2  0  0  0
 21 22  1  0  0  0
 22 23  2  0  0  0
 22 24  1  0  0  0
 24 25  1  0  0  0
 25 27  1  0  0  0
 27 28  1  0  0  0
 27 29  2  0  0  0
 27 30  2  0  0  0
 25 26  1  0  0  0
  9  4  1  0  0  0
 23 18  1  0  0  0
 13  8  1  0  0  0
 26 21  1  0  0  0
M  END
> <minimizedAffinity>
-0.25624

> <CNNscore>
0.3463008404

> <CNNaffinity>
7.4749288559

> <CNN_VS>
2.5885741711

> <CNNaffinity_variance>
0.3349470496

$$$$
[H]c1c([H])c(OC([H])([H])[H])c2c(c1[H])[C@]([H])(C([H])([H])N(C([H])([H])[H])C([H])([H])C([H])([H])c1c([H])c([H])c3c(c1[H])C([H])([H])N(S(=O)(=O)C([H])([H])[H])C3([H])[H])C([H])([H])C([H])([H])C2([H])[H]


 30 33  0  0  0  0  0  0  0  0999 V2000
    9.9120   47.5759  133.1425 N   0  0  0  0  0  0  0  0  0  0  0  0
   10.4862   48.2955  134.1922 C   0  0  0  0  0  0  0  0  0  0  0  0
    9.5505   48.1723  131.9488 C   0  0  0  0  0  0  0  0  0  0  0  0
   12.7507   44.8655  130.2511 C   0  0  0  0  0  0  0  0  0  0  0  0
   13.1274   44.5723  131.5553 C   0  0  0  0  0  0  0  0  0  0  0  0
   12.4987   45.2644  132.5928 C   0  0  0  0  0  0  0  0  0  0  0  0
   11.5226   46.2223  132.3667 C   0  0  0  0  0  0  0  0  0  0  0  0
   11.1488   46.5135  131.0664 C   0  0  0  0  0  0  0  0  0  0  0  0
   11.7788   45.8218  130.0661 C   0  0  0  0  0  0  0  0  0  0  0  0
   11.2960   46.1741  128.6788 C   0  0  0  0  0  0  0  0  0  0  0  0
    9.7781   46.0621  128.7281 C   0  0  0  0  0  0  0  0  0  0  0  0
    9.1922   47.0595  129.7005 C   0  0  0  0  0  0  0  0  0  0  0  0
   10.1465   47.5425  130.7255 C   0  0  0  0  0  0  0  0  0  0  0  0
   14.6961   43.8986  129.0868 C   0  0  0  0  0  0  0  0  0  0  0  0
   13.3228   44.2257  129.1397 O   0  0  0  0  0  0  0  0  0  0  0  0
    9.5604   46.2220  133.3618 C   0  0  0  0  0  0  0  0  0  0  0  0
    9.3387   45.3665  132.1596 C   0  0  0  0  0  0  0  0  0  0  0  0
    8.9719   43.9597  132.5618 C   0  0  0  0  0  0  0  0  0  0  0  0
    9.8899   43.0113  132.9429 C   0  0  0  0  0  0  0  0  0  0  0  0
    9.5352   41.7302  133.2902 C   0  0  0  0  0  0  0  0  0  0  0  0
    8.2020   41.3282  133.2710 C   0  0  0  0  0  0  0  0  0  0  0  0
    7.2840   42.2611  132.8944 C   0  0  0  0  0  0  0  0  0  0  0  0
    7.6480   43.5680  132.5410 C   0  0  0  0  0  0  0  0  0  0  0  0
    5.9277   41.6515  132.9270 C   0  0  0  0  0  0  0  0  0  0  0  0
    6.1314   40.3725  133.5281 N   0  0  0  0  0  0  0  0  0  0  0  0
    7.5197   40.0606  133.5831 C   0  0  0  0  0  0  0  0  0  0  0  0
    5.5003   40.2933  135.1337 S   0  0  0  0  0  0  0  0  0  0  0  0
    5.1508   38.6259  135.6152 C   0  0  0  0  0  0  0  0  0  0  0  0
    6.5199   40.9124  136.0458 O   0  0  0  0  0  0  0  0  0  0  0  0
    4.2707   41.1684  135.2287 O   0  0  0  0  0  0  0  0  0  0  0  0
 14 15  1  0  0  0
 15  4  1  0  0  0
  4  5  2  0  0  0
  5  6  1  0  0  0
  6  7  2  0  0  0
  7  8  1  0  0  0
  8  9  2  0  0  0
  9 10  1  0  0  0
 10 11  1  0  0  0
 11 12  1  0  0  0
 12 13  1  0  0  0
 13  3  1  0  0  0
  3  1  1  0  0  0
  1  2  1  0  0  0
  1 16  1  0  0  0
 16 17  1  0  0  0
 17 18  1  0  0  0
 18 19  2  0  0  0
 19 20  1  0  0  0
 20 21  2  0  0  0
 21 22  1  0  0  0
 22 23  2  0  0  0
 22 24  1  0  0  0
 24 25  1  0  0  0
 25 27  1  0  0  0
 27 28  1  0  0  0
 27 29  2  0  0  0
 27 30  2  0  0  0
 25 26  1  0  0  0
  9  4  1  0  0  0
 23 18  1  0  0  0
 13  8  1  0  0  0
 26 21  1  0  0  0
M  END
> <minimizedAffinity>
32.92201

> <CNNscore>
0.2875233293

> <CNNaffinity>
6.9908895493

> <CNN_VS>
2.0100438595

> <CNNaffinity_variance>
0.7116395235

$$$$
[H]c1c([H])c(OC([H])([H])[H])c2c(c1[H])[C@]([H])(C([H])([H])N(C([H])([H])[H])C([H])([H])C([H])([H])c1c([H])c([H])c3c(c1[H])C([H])([H])N(S(=O)(=O)C([H])([H])[H])C3([H])[H])C([H])([H])C([H])([H])C2([H])[H]


 30 33  0  0  0  0  0  0  0  0999 V2000
    7.9233   49.6674  130.3594 N   0  0  0  0  0  0  0  0  0  0  0  0
    7.0586   50.7309  130.6249 C   0  0  0  0  0  0  0  0  0  0  0  0
    9.0385   49.4107  131.1352 C   0  0  0  0  0  0  0  0  0  0  0  0
   10.8356   45.6283  133.6892 C   0  0  0  0  0  0  0  0  0  0  0  0
   11.9319   45.5844  132.8375 C   0  0  0  0  0  0  0  0  0  0  0  0
   11.9948   46.5151  131.7981 C   0  0  0  0  0  0  0  0  0  0  0  0
   11.0115   47.4700  131.5910 C   0  0  0  0  0  0  0  0  0  0  0  0
    9.9197   47.5120  132.4404 C   0  0  0  0  0  0  0  0  0  0  0  0
    9.8803   46.5898  133.4522 C   0  0  0  0  0  0  0  0  0  0  0  0
    8.6742   46.7186  134.3526 C   0  0  0  0  0  0  0  0  0  0  0  0
    8.6224   48.1828  134.7679 C   0  0  0  0  0  0  0  0  0  0  0  0
    8.4157   49.0793  133.5691 C   0  0  0  0  0  0  0  0  0  0  0  0
    8.8061   48.4676  132.2775 C   0  0  0  0  0  0  0  0  0  0  0  0
   11.6937   43.8272  135.1365 C   0  0  0  0  0  0  0  0  0  0  0  0
   10.6794   44.7368  134.7627 O   0  0  0  0  0  0  0  0  0  0  0  0
    7.7287   48.9153  129.1758 C   0  0  0  0  0  0  0  0  0  0  0  0
    7.0869   47.5751  129.3112 C   0  0  0  0  0  0  0  0  0  0  0  0
    8.1220   46.4783  129.2800 C   0  0  0  0  0  0  0  0  0  0  0  0
    9.3568   46.6112  128.6924 C   0  0  0  0  0  0  0  0  0  0  0  0
   10.2791   45.5932  128.6616 C   0  0  0  0  0  0  0  0  0  0  0  0
    9.9973   44.3565  129.2363 C   0  0  0  0  0  0  0  0  0  0  0  0
    8.7757   44.2145  129.8214 C   0  0  0  0  0  0  0  0  0  0  0  0
    7.8362   45.2547  129.8523 C   0  0  0  0  0  0  0  0  0  0  0  0
    8.6543   42.8369  130.3688 C   0  0  0  0  0  0  0  0  0  0  0  0
    9.9606   42.2814  130.2160 N   0  0  0  0  0  0  0  0  0  0  0  0
   10.7570   43.1012  129.3667 C   0  0  0  0  0  0  0  0  0  0  0  0
   10.7838   42.1140  131.7248 S   0  0  0  0  0  0  0  0  0  0  0  0
   12.2550   43.0972  131.7774 C   0  0  0  0  0  0  0  0  0  0  0  0
    9.8252   42.5252  132.8051 O   0  0  0  0  0  0  0  0  0  0  0  0
   11.0836   40.6520  131.9686 O   0  0  0  0  0  0  0  0  0  0  0  0
 14 15  1  0  0  0
 15  4  1  0  0  0
  4  5  2  0  0  0
  5  6  1  0  0  0
  6  7  2  0  0  0
  7  8  1  0  0  0
  8  9  2  0  0  0
  9 10  1  0  0  0
 10 11  1  0  0  0
 11 12  1  0  0  0
 12 13  1  0  0  0
 13  3  1  0  0  0
  3  1  1  0  0  0
  1  2  1  0  0  0
  1 16  1  0  0  0
 16 17  1  0  0  0
 17 18  1  0  0  0
 18 19  2  0  0  0
 19 20  1  0  0  0
 20 21  2  0  0  0
 21 22  1  0  0  0
 22 23  2  0  0  0
 22 24  1  0  0  0
 24 25  1  0  0  0
 25 27  1  0  0  0
 27 28  1  0  0  0
 27 29  2  0  0  0
 27 30  2  0  0  0
 25 26  1  0  0  0
  9  4  1  0  0  0
 23 18  1  0  0  0
 13  8  1  0  0  0
 26 21  1  0  0  0
M  END
> <minimizedAffinity>
-4.07433

> <CNNscore>
0.2758141160

> <CNNaffinity>
7.4975662231

> <CNN_VS>
2.0679345131

> <CNNaffinity_variance>
0.2969743609

$$$$
[H]c1c([H])c(OC([H])([H])[H])c2c(c1[H])[C@]([H])(C([H])([H])N(C([H])([H])[H])C([H])([H])C([H])([H])c1c([H])c([H])c3c(c1[H])C([H])([H])N(S(=O)(=O)C([H])([H])[H])C3([H])[H])C([H])([H])C([H])([H])C2([H])[H]


 30 33  0  0  0  0  0  0  0  0999 V2000
    7.0262   49.6135  129.4214 N   0  0  0  0  0  0  0  0  0  0  0  0
    7.1302   50.9432  129.0087 C   0  0  0  0  0  0  0  0  0  0  0  0
    6.9121   49.2602  130.7532 C   0  0  0  0  0  0  0  0  0  0  0  0
    9.9392   46.6938  133.6359 C   0  0  0  0  0  0  0  0  0  0  0  0
    9.0505   45.6270  133.6059 C   0  0  0  0  0  0  0  0  0  0  0  0
    7.8745   45.7713  132.8662 C   0  0  0  0  0  0  0  0  0  0  0  0
    7.5690   46.9298  132.1691 C   0  0  0  0  0  0  0  0  0  0  0  0
    8.4556   47.9920  132.2005 C   0  0  0  0  0  0  0  0  0  0  0  0
    9.6017   47.8269  132.9319 C   0  0  0  0  0  0  0  0  0  0  0  0
   10.5307   49.0174  132.8931 C   0  0  0  0  0  0  0  0  0  0  0  0
   10.7102   49.3543  131.4189 C   0  0  0  0  0  0  0  0  0  0  0  0
    9.3964   49.7588  130.7913 C   0  0  0  0  0  0  0  0  0  0  0  0
    8.2001   49.2775  131.5208 C   0  0  0  0  0  0  0  0  0  0  0  0
   12.0919   45.6146  134.1616 C   0  0  0  0  0  0  0  0  0  0  0  0
   11.1473   46.6481  134.3501 O   0  0  0  0  0  0  0  0  0  0  0  0
    7.1844   48.5900  128.4560 C   0  0  0  0  0  0  0  0  0  0  0  0
    6.8415   47.1976  128.8684 C   0  0  0  0  0  0  0  0  0  0  0  0
    8.0895   46.3764  129.0767 C   0  0  0  0  0  0  0  0  0  0  0  0
    9.3618   46.8642  128.9011 C   0  0  0  0  0  0  0  0  0  0  0  0
   10.4851   46.0936  129.0809 C   0  0  0  0  0  0  0  0  0  0  0  0
   10.3814   44.7568  129.4568 C   0  0  0  0  0  0  0  0  0  0  0  0
    9.1243   44.2635  129.6333 C   0  0  0  0  0  0  0  0  0  0  0  0
    7.9795   45.0516  129.4499 C   0  0  0  0  0  0  0  0  0  0  0  0
    9.2128   42.8305  130.0220 C   0  0  0  0  0  0  0  0  0  0  0  0
   10.6073   42.6092  130.2340 N   0  0  0  0  0  0  0  0  0  0  0  0
   11.3702   43.6982  129.7242 C   0  0  0  0  0  0  0  0  0  0  0  0
   10.9955   42.4192  131.9060 S   0  0  0  0  0  0  0  0  0  0  0  0
    9.5800   42.6779  132.9373 C   0  0  0  0  0  0  0  0  0  0  0  0
   11.5416   41.0316  132.0832 O   0  0  0  0  0  0  0  0  0  0  0  0
   12.1238   43.3597  132.2649 O   0  0  0  0  0  0  0  0  0  0  0  0
 14 15  1  0  0  0
 15  4  1  0  0  0
  4  5  2  0  0  0
  5  6  1  0  0  0
  6  7  2  0  0  0
  7  8  1  0  0  0
  8  9  2  0  0  0
  9 10  1  0  0  0
 10 11  1  0  0  0
 11 12  1  0  0  0
 12 13  1  0  0  0
 13  3  1  0  0  0
  3  1  1  0  0  0
  1  2  1  0  0  0
  1 16  1  0  0  0
 16 17  1  0  0  0
 17 18  1  0  0  0
 18 19  2  0  0  0
 19 20  1  0  0  0
 20 21  2  0  0  0
 21 22  1  0  0  0
 22 23  2  0  0  0
 22 24  1  0  0  0
 24 25  1  0  0  0
 25 27  1  0  0  0
 27 28  1  0  0  0
 27 29  2  0  0  0
 27 30  2  0  0  0
 25 26  1  0  0  0
  9  4  1  0  0  0
 23 18  1  0  0  0
 13  8  1  0  0  0
 26 21  1  0  0  0
M  END
> <minimizedAffinity>
-5.03188

> <CNNscore>
0.2592216432

> <CNNaffinity>
7.5270433426

> <CNN_VS>
1.9511725903

> <CNNaffinity_variance>
0.4630337656

$$$$
[H]c1c([H])c(OC([H])([H])[H])c2c(c1[H])[C@]([H])(C([H])([H])N(C([H])([H])[H])C([H])([H])C([H])([H])c1c([H])c([H])c3c(c1[H])C([H])([H])N(S(=O)(=O)C([H])([H])[H])C3([H])[H])C([H])([H])C([H])([H])C2([H])[H]


 30 33  0  0  0  0  0  0  0  0999 V2000
    8.5534   49.5967  130.2679 N   0  0  0  0  0  0  0  0  0  0  0  0
    7.2787   50.1492  130.4063 C   0  0  0  0  0  0  0  0  0  0  0  0
    8.8295   48.5958  129.3550 C   0  0  0  0  0  0  0  0  0  0  0  0
    9.4233   43.7362  129.0542 C   0  0  0  0  0  0  0  0  0  0  0  0
   10.5895   43.9318  128.3257 C   0  0  0  0  0  0  0  0  0  0  0  0
   10.9875   45.2442  128.0615 C   0  0  0  0  0  0  0  0  0  0  0  0
   10.2662   46.3447  128.4975 C   0  0  0  0  0  0  0  0  0  0  0  0
    9.1042   46.1479  129.2229 C   0  0  0  0  0  0  0  0  0  0  0  0
    8.7345   44.8525  129.4698 C   0  0  0  0  0  0  0  0  0  0  0  0
    7.4735   44.7206  130.2910 C   0  0  0  0  0  0  0  0  0  0  0  0
    7.6782   45.6107  131.5094 C   0  0  0  0  0  0  0  0  0  0  0  0
    7.8295   47.0586  131.1039 C   0  0  0  0  0  0  0  0  0  0  0  0
    8.2510   47.2555  129.6973 C   0  0  0  0  0  0  0  0  0  0  0  0
    8.4398   42.1404  130.6546 C   0  0  0  0  0  0  0  0  0  0  0  0
    8.9387   42.4570  129.3714 O   0  0  0  0  0  0  0  0  0  0  0  0
    9.5596   49.9755  131.1890 C   0  0  0  0  0  0  0  0  0  0  0  0
    9.2164   49.9259  132.6403 C   0  0  0  0  0  0  0  0  0  0  0  0
    9.5616   48.5804  133.2282 C   0  0  0  0  0  0  0  0  0  0  0  0
    8.8107   47.9543  134.1934 C   0  0  0  0  0  0  0  0  0  0  0  0
    9.1524   46.7350  134.7268 C   0  0  0  0  0  0  0  0  0  0  0  0
   10.2984   46.0664  134.3040 C   0  0  0  0  0  0  0  0  0  0  0  0
   11.0499   46.6788  133.3474 C   0  0  0  0  0  0  0  0  0  0  0  0
   10.6991   47.9226  132.8040 C   0  0  0  0  0  0  0  0  0  0  0  0
   12.2267   45.8259  133.0315 C   0  0  0  0  0  0  0  0  0  0  0  0
   11.9803   44.6106  133.7392 N   0  0  0  0  0  0  0  0  0  0  0  0
   10.9163   44.7803  134.6702 C   0  0  0  0  0  0  0  0  0  0  0  0
   11.5659   43.3082  132.6834 S   0  0  0  0  0  0  0  0  0  0  0  0
   10.0214   42.5698  133.1342 C   0  0  0  0  0  0  0  0  0  0  0  0
   11.5081   43.8639  131.2895 O   0  0  0  0  0  0  0  0  0  0  0  0
   12.6872   42.2936  132.6810 O   0  0  0  0  0  0  0  0  0  0  0  0
 14 15  1  0  0  0
 15  4  1  0  0  0
  4  5  2  0  0  0
  5  6  1  0  0  0
  6  7  2  0  0  0
  7  8  1  0  0  0
  8  9  2  0  0  0
  9 10  1  0  0  0
 10 11  1  0  0  0
 11 12  1  0  0  0
 12 13  1  0  0  0
 13  3  1  0  0  0
  3  1  1  0  0  0
  1  2  1  0  0  0
  1 16  1  0  0  0
 16 17  1  0  0  0
 17 18  1  0  0  0
 18 19  2  0  0  0
 19 20  1  0  0  0
 20 21  2  0  0  0
 21 22  1  0  0  0
 22 23  2  0  0  0
 22 24  1  0  0  0
 24 25  1  0  0  0
 25 27  1  0  0  0
 27 28  1  0  0  0
 27 29  2  0  0  0
 27 30  2  0  0  0
 25 26  1  0  0  0
  9  4  1  0  0  0
 23 18  1  0  0  0
 13  8  1  0  0  0
 26 21  1  0  0  0
M  END
> <minimizedAffinity>
-7.40385

> <CNNscore>
0.2307766974

> <CNNaffinity>
7.6281976700

> <CNN_VS>
1.7604103088

> <CNNaffinity_variance>
0.5018181205

$$$$
[H]c1c([H])c(OC([H])([H])[H])c2c(c1[H])[C@]([H])(C([H])([H])N(C([H])([H])[H])C([H])([H])C([H])([H])c1c([H])c([H])c3c(c1[H])C([H])([H])N(S(=O)(=O)C([H])([H])[H])C3([H])[H])C([H])([H])C([H])([H])C2([H])[H]


 30 33  0  0  0  0  0  0  0  0999 V2000
    9.9805   49.8068  132.4325 N   0  0  0  0  0  0  0  0  0  0  0  0
    9.0418   50.8377  132.5057 C   0  0  0  0  0  0  0  0  0  0  0  0
   10.5781   49.4349  131.2425 C   0  0  0  0  0  0  0  0  0  0  0  0
    9.5223   45.1585  129.0847 C   0  0  0  0  0  0  0  0  0  0  0  0
   10.6007   44.5730  129.7355 C   0  0  0  0  0  0  0  0  0  0  0  0
   11.3699   45.3727  130.5837 C   0  0  0  0  0  0  0  0  0  0  0  0
   11.0959   46.7149  130.7955 C   0  0  0  0  0  0  0  0  0  0  0  0
   10.0212   47.2966  130.1458 C   0  0  0  0  0  0  0  0  0  0  0  0
    9.2816   46.4927  129.3197 C   0  0  0  0  0  0  0  0  0  0  0  0
    8.1104   47.1921  128.6711 C   0  0  0  0  0  0  0  0  0  0  0  0
    7.3568   47.8751  129.8045 C   0  0  0  0  0  0  0  0  0  0  0  0
    8.2182   48.9190  130.4766 C   0  0  0  0  0  0  0  0  0  0  0  0
    9.6737   48.7253  130.2798 C   0  0  0  0  0  0  0  0  0  0  0  0
    8.9373   43.0907  127.8777 C   0  0  0  0  0  0  0  0  0  0  0  0
    8.6889   44.4406  128.2119 O   0  0  0  0  0  0  0  0  0  0  0  0
   10.2212   49.0264  133.5891 C   0  0  0  0  0  0  0  0  0  0  0  0
    9.0487   48.3524  134.2194 C   0  0  0  0  0  0  0  0  0  0  0  0
    8.9064   46.9383  133.7140 C   0  0  0  0  0  0  0  0  0  0  0  0
    7.9516   46.5445  132.8079 C   0  0  0  0  0  0  0  0  0  0  0  0
    7.8296   45.2469  132.3728 C   0  0  0  0  0  0  0  0  0  0  0  0
    8.6859   44.2533  132.8406 C   0  0  0  0  0  0  0  0  0  0  0  0
    9.6360   44.6335  133.7393 C   0  0  0  0  0  0  0  0  0  0  0  0
    9.7591   45.9582  134.1815 C   0  0  0  0  0  0  0  0  0  0  0  0
   10.4437   43.4462  134.1268 C   0  0  0  0  0  0  0  0  0  0  0  0
   10.0019   42.4164  133.2419 N   0  0  0  0  0  0  0  0  0  0  0  0
    8.8093   42.8104  132.5711 C   0  0  0  0  0  0  0  0  0  0  0  0
   11.1851   42.0255  132.0463 S   0  0  0  0  0  0  0  0  0  0  0  0
   12.6305   43.0354  132.2049 C   0  0  0  0  0  0  0  0  0  0  0  0
   11.5254   40.5724  132.2124 O   0  0  0  0  0  0  0  0  0  0  0  0
   10.5658   42.1537  130.6727 O   0  0  0  0  0  0  0  0  0  0  0  0
 14 15  1  0  0  0
 15  4  1  0  0  0
  4  5  2  0  0  0
  5  6  1  0  0  0
  6  7  2  0  0  0
  7  8  1  0  0  0
  8  9  2  0  0  0
  9 10  1  0  0  0
 10 11  1  0  0  0
 11 12  1  0  0  0
 12 13  1  0  0  0
 13  3  1  0  0  0
  3  1  1  0  0  0
  1  2  1  0  0  0
  1 16  1  0  0  0
 16 17  1  0  0  0
 17 18  1  0  0  0
 18 19  2  0  0  0
 19 20  1  0  0  0
 20 21  2  0  0  0
 21 22  1  0  0  0
 22 23  2  0  0  0
 22 24  1  0  0  0
 24 25  1  0  0  0
 25 27  1  0  0  0
 27 28  1  0  0  0
 27 29  2  0  0  0
 27 30  2  0  0  0
 25 26  1  0  0  0
  9  4  1  0  0  0
 23 18  1  0  0  0
 13  8  1  0  0  0
 26 21  1  0  0  0
M  END
> <minimizedAffinity>
-1.70383

> <CNNscore>
0.2149271965

> <CNNaffinity>
7.5054268837

> <CNN_VS>
1.6131203175

> <CNNaffinity_variance>
0.3837949336

$$$$
[H]c1c([H])c(OC([H])([H])[H])c2c(c1[H])[C@]([H])(C([H])([H])N(C([H])([H])[H])C([H])([H])C([H])([H])c1c([H])c([H])c3c(c1[H])C([H])([H])N(S(=O)(=O)C([H])([H])[H])C3([H])[H])C([H])([H])C([H])([H])C2([H])[H]


 30 33  0  0  0  0  0  0  0  0999 V2000
   10.1888   49.3712  132.5666 N   0  0  0  0  0  0  0  0  0  0  0  0
    9.0337   49.8874  133.1569 C   0  0  0  0  0  0  0  0  0  0  0  0
   10.3554   49.3139  131.1953 C   0  0  0  0  0  0  0  0  0  0  0  0
    6.2314   47.1086  129.7161 C   0  0  0  0  0  0  0  0  0  0  0  0
    6.6291   45.9470  130.3654 C   0  0  0  0  0  0  0  0  0  0  0  0
    7.8506   45.9575  131.0425 C   0  0  0  0  0  0  0  0  0  0  0  0
    8.6690   47.0754  131.0880 C   0  0  0  0  0  0  0  0  0  0  0  0
    8.2712   48.2318  130.4401 C   0  0  0  0  0  0  0  0  0  0  0  0
    7.0698   48.1976  129.7834 C   0  0  0  0  0  0  0  0  0  0  0  0
    6.6923   49.5047  129.1270 C   0  0  0  0  0  0  0  0  0  0  0  0
    6.8448   50.5686  130.2058 C   0  0  0  0  0  0  0  0  0  0  0  0
    8.2795   50.6690  130.6694 C   0  0  0  0  0  0  0  0  0  0  0  0
    9.0913   49.4589  130.4019 C   0  0  0  0  0  0  0  0  0  0  0  0
    3.8028   46.7260  129.5413 C   0  0  0  0  0  0  0  0  0  0  0  0
    5.0222   47.1996  129.0080 O   0  0  0  0  0  0  0  0  0  0  0  0
   11.1583   48.7586  133.3970 C   0  0  0  0  0  0  0  0  0  0  0  0
   10.6644   47.8738  134.4922 C   0  0  0  0  0  0  0  0  0  0  0  0
   10.3057   46.5090  133.9596 C   0  0  0  0  0  0  0  0  0  0  0  0
    9.2738   45.7458  134.4498 C   0  0  0  0  0  0  0  0  0  0  0  0
    8.9743   44.4974  133.9601 C   0  0  0  0  0  0  0  0  0  0  0  0
    9.7186   43.9392  132.9239 C   0  0  0  0  0  0  0  0  0  0  0  0
   10.7440   44.6879  132.4309 C   0  0  0  0  0  0  0  0  0  0  0  0
   11.0476   45.9617  132.9317 C   0  0  0  0  0  0  0  0  0  0  0  0
   11.4225   43.9309  131.3452 C   0  0  0  0  0  0  0  0  0  0  0  0
   10.5894   42.7899  131.1384 N   0  0  0  0  0  0  0  0  0  0  0  0
    9.6471   42.6595  132.1980 C   0  0  0  0  0  0  0  0  0  0  0  0
    9.7154   42.8756  129.6515 S   0  0  0  0  0  0  0  0  0  0  0  0
   10.0790   44.3651  128.7665 C   0  0  0  0  0  0  0  0  0  0  0  0
   10.0891   41.6666  128.8430 O   0  0  0  0  0  0  0  0  0  0  0  0
    8.2359   42.7453  129.9357 O   0  0  0  0  0  0  0  0  0  0  0  0
 14 15  1  0  0  0
 15  4  1  0  0  0
  4  5  2  0  0  0
  5  6  1  0  0  0
  6  7  2  0  0  0
  7  8  1  0  0  0
  8  9  2  0  0  0
  9 10  1  0  0  0
 10 11  1  0  0  0
 11 12  1  0  0  0
 12 13  1  0  0  0
 13  3  1  0  0  0
  3  1  1  0  0  0
  1  2  1  0  0  0
  1 16  1  0  0  0
 16 17  1  0  0  0
 17 18  1  0  0  0
 18 19  2  0  0  0
 19 20  1  0  0  0
 20 21  2  0  0  0
 21 22  1  0  0  0
 22 23  2  0  0  0
 22 24  1  0  0  0
 24 25  1  0  0  0
 25 27  1  0  0  0
 27 28  1  0  0  0
 27 29  2  0  0  0
 27 30  2  0  0  0
 25 26  1  0  0  0
  9  4  1  0  0  0
 23 18  1  0  0  0
 13  8  1  0  0  0
 26 21  1  0  0  0
M  END
> <minimizedAffinity>
-2.77758

> <CNNscore>
0.1878384203

> <CNNaffinity>
7.4893517494

> <CNN_VS>
1.4067879915

> <CNNaffinity_variance>
0.2657395005

$$$$
[H]N=C(c1c([H])c([H])c(C([H])([H])N([H])C(=O)C2([H])N3C(=O)[C@](O[H])(C([H])([H])c4c([H])c([H])c([H])c([H])c4[H])C([H])([H])C([H])([H])[C@]3([H])C([H])([H])C2([H])[H])c([H])c1[H])N([H])[H]


 36 39  0  0  0  0  0  0  0  0999 V2000
    9.0816   43.9443  131.9544 C   0  0  0  0  0  0  0  0  0  0  0  0
    7.6029   43.6213  131.9881 C   0  0  0  0  0  0  0  0  0  0  0  0
    7.1360   44.2712  130.6945 C   0  0  0  0  0  0  0  0  0  0  0  0
    8.2094   43.8131  129.7339 C   0  0  0  0  0  0  0  0  0  0  0  0
    8.3674   44.7544  128.5696 C   0  0  0  0  0  0  0  0  0  0  0  0
    9.5639   44.4199  127.7412 C   0  0  0  0  0  0  0  0  0  0  0  0
   10.4966   43.4224  128.3691 C   0  0  0  0  0  0  0  0  0  0  0  0
   10.0149   42.1113  128.2162 O   0  0  0  0  0  0  0  0  0  0  0  0
   10.6494   43.7670  129.8071 C   0  0  0  0  0  0  0  0  0  0  0  0
   11.7333   43.9856  130.3791 O   0  0  0  0  0  0  0  0  0  0  0  0
    9.4284   43.8428  130.5572 N   0  0  0  0  0  0  0  0  0  0  0  0
    9.5635   42.1077  127.3203 H   0  0  0  0  0  0  0  0  0  0  0  0
   10.3849   46.0628  132.0784 N   0  0  0  0  0  0  0  0  0  0  0  0
    9.2067   45.3632  132.4457 C   0  0  0  0  0  0  0  0  0  0  0  0
    8.3331   45.9040  133.1363 O   0  0  0  0  0  0  0  0  0  0  0  0
   11.1421   45.6125  131.4888 H   0  0  0  0  0  0  0  0  0  0  0  0
   10.6537   47.4353  132.4708 C   0  0  0  0  0  0  0  0  0  0  0  0
    8.2318   50.1159  130.1974 C   0  0  0  0  0  0  0  0  0  0  0  0
    8.6471   48.9177  129.6872 C   0  0  0  0  0  0  0  0  0  0  0  0
    9.4343   48.0150  130.3937 C   0  0  0  0  0  0  0  0  0  0  0  0
    9.8127   48.3433  131.6647 C   0  0  0  0  0  0  0  0  0  0  0  0
    9.4108   49.5392  132.2030 C   0  0  0  0  0  0  0  0  0  0  0  0
    8.6248   50.4394  131.4965 C   0  0  0  0  0  0  0  0  0  0  0  0
    6.9631   50.8529  128.2577 N   0  0  0  0  0  0  0  0  0  0  0  0
    7.4081   51.0478  129.4413 C   0  0  0  0  0  0  0  0  0  0  0  0
    7.0390   52.3050  130.0357 N   0  0  0  0  0  0  0  0  0  0  0  0
    7.1860   49.9743  127.7661 H   0  0  0  0  0  0  0  0  0  0  0  0
    6.4389   52.3354  130.8867 H   0  0  0  0  0  0  0  0  0  0  0  0
    7.3850   53.1852  129.5966 H   0  0  0  0  0  0  0  0  0  0  0  0
   11.8260   43.4677  127.6533 C   0  0  0  0  0  0  0  0  0  0  0  0
   12.9168   43.9737  128.4835 C   0  0  0  0  0  0  0  0  0  0  0  0
   12.7184   44.6439  129.6746 C   0  0  0  0  0  0  0  0  0  0  0  0
   13.7795   45.1118  130.4333 C   0  0  0  0  0  0  0  0  0  0  0  0
   15.0754   44.9158  130.0094 C   0  0  0  0  0  0  0  0  0  0  0  0
   15.2928   44.2561  128.8357 C   0  0  0  0  0  0  0  0  0  0  0  0
   14.2214   43.7887  128.0785 C   0  0  0  0  0  0  0  0  0  0  0  0
 24 25  2  0  0  0
 25 26  1  0  0  0
 25 18  1  0  0  0
 18 19  2  0  0  0
 19 20  1  0  0  0
 20 21  2  0  0  0
 21 17  1  0  0  0
 17 13  1  0  0  0
 13 14  1  0  0  0
 14 15  2  0  0  0
 14  1  1  0  0  0
  1  2  1  0  0  0
  2  3  1  0  0  0
  3  4  1  0  0  0
  4  5  1  0  0  0
  5  6  1  0  0  0
  6  7  1  0  0  0
  7  8  1  0  0  0
  7 30  1  0  0  0
 30 31  1  0  0  0
 31 32  2  0  0  0
 32 33  1  0  0  0
 33 34  2  0  0  0
 34 35  1  0  0  0
 35 36  2  0  0  0
  7  9  1  0  0  0
  9 10  2  0  0  0
  9 11  1  0  0  0
 21 22  1  0  0  0
 22 23  2  0  0  0
 23 18  1  0  0  0
 11  1  1  0  0  0
 11  4  1  0  0  0
 36 31  1  0  0  0
 24 27  1  0  0  0
 26 28  1  0  0  0
 26 29  1  0  0  0
 13 16  1  0  0  0
  8 12  1  0  0  0
M  END
> <minimizedAffinity>
10.21934

> <CNNscore>
0.4815787375

> <CNNaffinity>
7.0969123840

> <CNN_VS>
3.4177222252

> <CNNaffinity_variance>
0.9601827860

$$$$
[H]N=C(c1c([H])c([H])c(C([H])([H])N([H])C(=O)C2([H])N3C(=O)[C@](O[H])(C([H])([H])c4c([H])c([H])c([H])c([H])c4[H])C([H])([H])C([H])([H])[C@]3([H])C([H])([H])C2([H])[H])c([H])c1[H])N([H])[H]


 36 39  0  0  0  0  0  0  0  0999 V2000
    8.9318   47.5333  128.3020 C   0  0  0  0  0  0  0  0  0  0  0  0
   10.0392   48.2337  127.5435 C   0  0  0  0  0  0  0  0  0  0  0  0
   11.2686   47.6347  128.2094 C   0  0  0  0  0  0  0  0  0  0  0  0
   10.8939   46.1709  128.2510 C   0  0  0  0  0  0  0  0  0  0  0  0
   11.5977   45.4369  129.3612 C   0  0  0  0  0  0  0  0  0  0  0  0
   11.0683   44.0517  129.5365 C   0  0  0  0  0  0  0  0  0  0  0  0
    9.7961   43.7721  128.7866 C   0  0  0  0  0  0  0  0  0  0  0  0
   10.0537   43.5101  127.4303 O   0  0  0  0  0  0  0  0  0  0  0  0
    8.8968   44.9460  128.9384 C   0  0  0  0  0  0  0  0  0  0  0  0
    7.7362   44.9049  129.3867 O   0  0  0  0  0  0  0  0  0  0  0  0
    9.4487   46.2043  128.5244 N   0  0  0  0  0  0  0  0  0  0  0  0
   10.9329   43.0268  127.4258 H   0  0  0  0  0  0  0  0  0  0  0  0
    9.9595   48.4808  130.3631 N   0  0  0  0  0  0  0  0  0  0  0  0
    8.7802   48.2838  129.5997 C   0  0  0  0  0  0  0  0  0  0  0  0
    7.6872   48.7124  129.9926 O   0  0  0  0  0  0  0  0  0  0  0  0
   10.9020   48.1185  130.0402 H   0  0  0  0  0  0  0  0  0  0  0  0
    9.9801   49.1850  131.6334 C   0  0  0  0  0  0  0  0  0  0  0  0
   10.2200   46.2959  134.7663 C   0  0  0  0  0  0  0  0  0  0  0  0
    9.5614   47.4818  134.9344 C   0  0  0  0  0  0  0  0  0  0  0  0
    9.4576   48.4489  133.9404 C   0  0  0  0  0  0  0  0  0  0  0  0
   10.0452   48.2003  132.7323 C   0  0  0  0  0  0  0  0  0  0  0  0
   10.7129   47.0186  132.5348 C   0  0  0  0  0  0  0  0  0  0  0  0
   10.8156   46.0541  133.5280 C   0  0  0  0  0  0  0  0  0  0  0  0
   10.6722   44.0779  135.6557 N   0  0  0  0  0  0  0  0  0  0  0  0
   10.3180   45.2963  135.8198 C   0  0  0  0  0  0  0  0  0  0  0  0
    9.9999   45.6653  137.1736 N   0  0  0  0  0  0  0  0  0  0  0  0
   10.9157   43.7389  134.7128 H   0  0  0  0  0  0  0  0  0  0  0  0
   10.5701   46.3753  137.6796 H   0  0  0  0  0  0  0  0  0  0  0  0
    9.1864   45.2069  137.6376 H   0  0  0  0  0  0  0  0  0  0  0  0
    9.1578   42.5208  129.3422 C   0  0  0  0  0  0  0  0  0  0  0  0
    9.3077   42.3846  130.7892 C   0  0  0  0  0  0  0  0  0  0  0  0
   10.4043   41.7966  131.3884 C   0  0  0  0  0  0  0  0  0  0  0  0
   10.5092   41.6830  132.7656 C   0  0  0  0  0  0  0  0  0  0  0  0
    9.5061   42.1614  133.5797 C   0  0  0  0  0  0  0  0  0  0  0  0
    8.4146   42.7455  133.0076 C   0  0  0  0  0  0  0  0  0  0  0  0
    8.3162   42.8562  131.6228 C   0  0  0  0  0  0  0  0  0  0  0  0
 24 25  2  0  0  0
 25 26  1  0  0  0
 25 18  1  0  0  0
 18 19  2  0  0  0
 19 20  1  0  0  0
 20 21  2  0  0  0
 21 17  1  0  0  0
 17 13  1  0  0  0
 13 14  1  0  0  0
 14 15  2  0  0  0
 14  1  1  0  0  0
  1  2  1  0  0  0
  2  3  1  0  0  0
  3  4  1  0  0  0
  4  5  1  0  0  0
  5  6  1  0  0  0
  6  7  1  0  0  0
  7  8  1  0  0  0
  7 30  1  0  0  0
 30 31  1  0  0  0
 31 32  2  0  0  0
 32 33  1  0  0  0
 33 34  2  0  0  0
 34 35  1  0  0  0
 35 36  2  0  0  0
  7  9  1  0  0  0
  9 10  2  0  0  0
  9 11  1  0  0  0
 21 22  1  0  0  0
 22 23  2  0  0  0
 23 18  1  0  0  0
 11  1  1  0  0  0
 11  4  1  0  0  0
 36 31  1  0  0  0
 24 27  1  0  0  0
 26 28  1  0  0  0
 26 29  1  0  0  0
 13 16  1  0  0  0
  8 12  1  0  0  0
M  END
> <minimizedAffinity>
8.32954

> <CNNscore>
0.4405150115

> <CNNaffinity>
7.3104858398

> <CNN_VS>
3.2203786373

> <CNNaffinity_variance>
0.5680359602

$$$$
[H]N=C(c1c([H])c([H])c(C([H])([H])N([H])C(=O)C2([H])N3C(=O)[C@](O[H])(C([H])([H])c4c([H])c([H])c([H])c([H])c4[H])C([H])([H])C([H])([H])[C@]3([H])C([H])([H])C2([H])[H])c([H])c1[H])N([H])[H]


 36 39  0  0  0  0  0  0  0  0999 V2000
    8.5309   49.1398  131.6091 C   0  0  0  0  0  0  0  0  0  0  0  0
    7.2728   49.2716  130.7773 C   0  0  0  0  0  0  0  0  0  0  0  0
    6.9234   47.8089  130.5488 C   0  0  0  0  0  0  0  0  0  0  0  0
    7.1161   47.2426  131.9370 C   0  0  0  0  0  0  0  0  0  0  0  0
    7.4386   45.7723  131.9095 C   0  0  0  0  0  0  0  0  0  0  0  0
    7.8381   45.2644  133.2557 C   0  0  0  0  0  0  0  0  0  0  0  0
    8.1011   46.3388  134.2734 C   0  0  0  0  0  0  0  0  0  0  0  0
    6.9006   46.8355  134.8087 O   0  0  0  0  0  0  0  0  0  0  0  0
    8.8780   47.4232  133.6174 C   0  0  0  0  0  0  0  0  0  0  0  0
    9.9780   47.8537  134.0106 O   0  0  0  0  0  0  0  0  0  0  0  0
    8.2776   47.9900  132.4437 N   0  0  0  0  0  0  0  0  0  0  0  0
    6.2879   46.0417  134.8421 H   0  0  0  0  0  0  0  0  0  0  0  0
   10.3092   47.6216  130.7522 N   0  0  0  0  0  0  0  0  0  0  0  0
    9.6463   48.8700  130.6328 C   0  0  0  0  0  0  0  0  0  0  0  0
    9.9785   49.6879  129.7648 O   0  0  0  0  0  0  0  0  0  0  0  0
   10.0368   46.9119  131.4912 H   0  0  0  0  0  0  0  0  0  0  0  0
   11.4016   47.2114  129.8870 C   0  0  0  0  0  0  0  0  0  0  0  0
   10.5730   43.3639  128.2348 C   0  0  0  0  0  0  0  0  0  0  0  0
    9.6128   44.3340  128.3079 C   0  0  0  0  0  0  0  0  0  0  0  0
    9.8406   45.6000  128.8361 C   0  0  0  0  0  0  0  0  0  0  0  0
   11.0901   45.8893  129.3070 C   0  0  0  0  0  0  0  0  0  0  0  0
   12.0737   44.9353  129.2464 C   0  0  0  0  0  0  0  0  0  0  0  0
   11.8449   43.6718  128.7188 C   0  0  0  0  0  0  0  0  0  0  0  0
   10.6430   41.6564  126.5042 N   0  0  0  0  0  0  0  0  0  0  0  0
   10.3145   42.0439  127.6785 C   0  0  0  0  0  0  0  0  0  0  0  0
    9.6361   41.0612  128.4810 N   0  0  0  0  0  0  0  0  0  0  0  0
   11.1326   42.3055  125.8701 H   0  0  0  0  0  0  0  0  0  0  0  0
   10.0684   40.6989  129.3568 H   0  0  0  0  0  0  0  0  0  0  0  0
    8.7023   40.7192  128.1673 H   0  0  0  0  0  0  0  0  0  0  0  0
    8.8651   45.7462  135.4340 C   0  0  0  0  0  0  0  0  0  0  0  0
   10.1410   45.1488  135.0463 C   0  0  0  0  0  0  0  0  0  0  0  0
   11.3553   45.5377  135.5767 C   0  0  0  0  0  0  0  0  0  0  0  0
   12.5458   44.9488  135.1812 C   0  0  0  0  0  0  0  0  0  0  0  0
   12.5440   43.9472  134.2355 C   0  0  0  0  0  0  0  0  0  0  0  0
   11.3550   43.5486  133.6993 C   0  0  0  0  0  0  0  0  0  0  0  0
   10.1626   44.1450  134.1017 C   0  0  0  0  0  0  0  0  0  0  0  0
 24 25  2  0  0  0
 25 26  1  0  0  0
 25 18  1  0  0  0
 18 19  2  0  0  0
 19 20  1  0  0  0
 20 21  2  0  0  0
 21 17  1  0  0  0
 17 13  1  0  0  0
 13 14  1  0  0  0
 14 15  2  0  0  0
 14  1  1  0  0  0
  1  2  1  0  0  0
  2  3  1  0  0  0
  3  4  1  0  0  0
  4  5  1  0  0  0
  5  6  1  0  0  0
  6  7  1  0  0  0
  7  8  1  0  0  0
  7 30  1  0  0  0
 30 31  1  0  0  0
 31 32  2  0  0  0
 32 33  1  0  0  0
 33 34  2  0  0  0
 34 35  1  0  0  0
 35 36  2  0  0  0
  7  9  1  0  0  0
  9 10  2  0  0  0
  9 11  1  0  0  0
 21 22  1  0  0  0
 22 23  2  0  0  0
 23 18  1  0  0  0
 11  1  1  0  0  0
 11  4  1  0  0  0
 36 31  1  0  0  0
 24 27  1  0  0  0
 26 28  1  0  0  0
 26 29  1  0  0  0
 13 16  1  0  0  0
  8 12  1  0  0  0
M  END
> <minimizedAffinity>
15.74385

> <CNNscore>
0.4318787456

> <CNNaffinity>
7.3676996231

> <CNN_VS>
3.1819529533

> <CNNaffinity_variance>
1.3232913017

$$$$
[H]N=C(c1c([H])c([H])c(C([H])([H])N([H])C(=O)C2([H])N3C(=O)[C@](O[H])(C([H])([H])c4c([H])c([H])c([H])c([H])c4[H])C([H])([H])C([H])([H])[C@]3([H])C([H])([H])C2([H])[H])c([H])c1[H])N([H])[H]


 36 39  0  0  0  0  0  0  0  0999 V2000
    8.5155   43.7659  128.9992 C   0  0  0  0  0  0  0  0  0  0  0  0
    9.0427   43.2525  127.6761 C   0  0  0  0  0  0  0  0  0  0  0  0
   10.3867   43.9613  127.6064 C   0  0  0  0  0  0  0  0  0  0  0  0
   10.9046   43.7433  129.0096 C   0  0  0  0  0  0  0  0  0  0  0  0
   11.8857   44.8077  129.4234 C   0  0  0  0  0  0  0  0  0  0  0  0
   12.2300   44.7146  130.8734 C   0  0  0  0  0  0  0  0  0  0  0  0
   11.3485   43.7890  131.6643 C   0  0  0  0  0  0  0  0  0  0  0  0
   11.7265   42.4482  131.4807 O   0  0  0  0  0  0  0  0  0  0  0  0
    9.9412   44.0064  131.2375 C   0  0  0  0  0  0  0  0  0  0  0  0
    9.0014   44.3058  131.9971 O   0  0  0  0  0  0  0  0  0  0  0  0
    9.6903   43.8489  129.8334 N   0  0  0  0  0  0  0  0  0  0  0  0
   12.7249   42.4749  131.3855 H   0  0  0  0  0  0  0  0  0  0  0  0
    8.8737   46.2086  128.6723 N   0  0  0  0  0  0  0  0  0  0  0  0
    7.9494   45.1334  128.7167 C   0  0  0  0  0  0  0  0  0  0  0  0
    6.7403   45.3238  128.5310 O   0  0  0  0  0  0  0  0  0  0  0  0
    9.9116   46.0612  128.8306 H   0  0  0  0  0  0  0  0  0  0  0  0
    8.4869   47.5839  128.4100 C   0  0  0  0  0  0  0  0  0  0  0  0
    9.4422   49.9733  131.8155 C   0  0  0  0  0  0  0  0  0  0  0  0
    8.1567   49.5981  131.5415 C   0  0  0  0  0  0  0  0  0  0  0  0
    7.8023   48.8193  130.4453 C   0  0  0  0  0  0  0  0  0  0  0  0
    8.7914   48.4079  129.5973 C   0  0  0  0  0  0  0  0  0  0  0  0
   10.0908   48.7691  129.8472 C   0  0  0  0  0  0  0  0  0  0  0  0
   10.4431   49.5466  130.9421 C   0  0  0  0  0  0  0  0  0  0  0  0
   10.5488   50.4242  133.9339 N   0  0  0  0  0  0  0  0  0  0  0  0
    9.7928   50.7896  132.9685 C   0  0  0  0  0  0  0  0  0  0  0  0
    9.2687   52.1255  133.0721 N   0  0  0  0  0  0  0  0  0  0  0  0
   10.9622   49.4795  133.9300 H   0  0  0  0  0  0  0  0  0  0  0  0
    9.5263   52.8539  132.3732 H   0  0  0  0  0  0  0  0  0  0  0  0
    8.6254   52.3491  133.8616 H   0  0  0  0  0  0  0  0  0  0  0  0
   11.5222   44.0766  133.1370 C   0  0  0  0  0  0  0  0  0  0  0  0
   10.6451   45.1360  133.6303 C   0  0  0  0  0  0  0  0  0  0  0  0
   10.7253   46.4483  133.2078 C   0  0  0  0  0  0  0  0  0  0  0  0
    9.8768   47.4264  133.7016 C   0  0  0  0  0  0  0  0  0  0  0  0
    8.9201   47.1061  134.6396 C   0  0  0  0  0  0  0  0  0  0  0  0
    8.8245   45.8155  135.0700 C   0  0  0  0  0  0  0  0  0  0  0  0
    9.6807   44.8379  134.5691 C   0  0  0  0  0  0  0  0  0  0  0  0
 24 25  2  0  0  0
 25 26  1  0  0  0
 25 18  1  0  0  0
 18 19  2  0  0  0
 19 20  1  0  0  0
 20 21  2  0  0  0
 21 17  1  0  0  0
 17 13  1  0  0  0
 13 14  1  0  0  0
 14 15  2  0  0  0
 14  1  1  0  0  0
  1  2  1  0  0  0
  2  3  1  0  0  0
  3  4  1  0  0  0
  4  5  1  0  0  0
  5  6  1  0  0  0
  6  7  1  0  0  0
  7  8  1  0  0  0
  7 30  1  0  0  0
 30 31  1  0  0  0
 31 32  2  0  0  0
 32 33  1  0  0  0
 33 34  2  0  0  0
 34 35  1  0  0  0
 35 36  2  0  0  0
  7  9  1  0  0  0
  9 10  2  0  0  0
  9 11  1  0  0  0
 21 22  1  0  0  0
 22 23  2  0  0  0
 23 18  1  0  0  0
 11  1  1  0  0  0
 11  4  1  0  0  0
 36 31  1  0  0  0
 24 27  1  0  0  0
 26 28  1  0  0  0
 26 29  1  0  0  0
 13 16  1  0  0  0
  8 12  1  0  0  0
M  END
> <minimizedAffinity>
2.65847

> <CNNscore>
0.3464863896

> <CNNaffinity>
7.2302055359

> <CNN_VS>
2.5051677227

> <CNNaffinity_variance>
0.2060620785

$$$$
[H]N=C(c1c([H])c([H])c(C([H])([H])N([H])C(=O)C2([H])N3C(=O)[C@](O[H])(C([H])([H])c4c([H])c([H])c([H])c([H])c4[H])C([H])([H])C([H])([H])[C@]3([H])C([H])([H])C2([H])[H])c([H])c1[H])N([H])[H]


 36 39  0  0  0  0  0  0  0  0999 V2000
   10.9022   44.4156  128.2552 C   0  0  0  0  0  0  0  0  0  0  0  0
   10.1501   43.1483  127.9080 C   0  0  0  0  0  0  0  0  0  0  0  0
    9.0817   43.1410  128.9906 C   0  0  0  0  0  0  0  0  0  0  0  0
    8.6252   44.5816  128.9598 C   0  0  0  0  0  0  0  0  0  0  0  0
    8.0443   45.0204  130.2776 C   0  0  0  0  0  0  0  0  0  0  0  0
    7.7939   46.4921  130.3136 C   0  0  0  0  0  0  0  0  0  0  0  0
    8.4094   47.2562  129.1750 C   0  0  0  0  0  0  0  0  0  0  0  0
    7.6316   47.1448  128.0101 O   0  0  0  0  0  0  0  0  0  0  0  0
    9.7818   46.7318  128.9485 C   0  0  0  0  0  0  0  0  0  0  0  0
   10.8206   47.4179  128.9587 O   0  0  0  0  0  0  0  0  0  0  0  0
    9.8710   45.3208  128.7028 N   0  0  0  0  0  0  0  0  0  0  0  0
    6.6838   47.1137  128.3376 H   0  0  0  0  0  0  0  0  0  0  0  0
   11.2746   43.3047  130.4527 N   0  0  0  0  0  0  0  0  0  0  0  0
   11.8329   44.0491  129.3820 C   0  0  0  0  0  0  0  0  0  0  0  0
   13.0273   44.3749  129.3864 O   0  0  0  0  0  0  0  0  0  0  0  0
   10.2536   43.0197  130.4635 H   0  0  0  0  0  0  0  0  0  0  0  0
   12.0396   42.8737  131.6099 C   0  0  0  0  0  0  0  0  0  0  0  0
   10.5716   44.9705  135.0257 C   0  0  0  0  0  0  0  0  0  0  0  0
   11.6230   44.1017  135.1157 C   0  0  0  0  0  0  0  0  0  0  0  0
   12.1335   43.4005  134.0288 C   0  0  0  0  0  0  0  0  0  0  0  0
   11.5532   43.5899  132.8065 C   0  0  0  0  0  0  0  0  0  0  0  0
   10.4964   44.4558  132.6859 C   0  0  0  0  0  0  0  0  0  0  0  0
    9.9878   45.1552  133.7720 C   0  0  0  0  0  0  0  0  0  0  0  0
    9.4965   46.8472  136.1379 N   0  0  0  0  0  0  0  0  0  0  0  0
   10.0512   45.6949  136.1759 C   0  0  0  0  0  0  0  0  0  0  0  0
   10.1469   45.1034  137.4839 N   0  0  0  0  0  0  0  0  0  0  0  0
    9.3919   47.3347  135.2353 H   0  0  0  0  0  0  0  0  0  0  0  0
    9.6417   44.2200  137.7067 H   0  0  0  0  0  0  0  0  0  0  0  0
   10.7329   45.5778  138.2043 H   0  0  0  0  0  0  0  0  0  0  0  0
    8.4378   48.7260  129.5222 C   0  0  0  0  0  0  0  0  0  0  0  0
    7.1093   49.3070  129.7027 C   0  0  0  0  0  0  0  0  0  0  0  0
    6.8738   50.4544  130.4343 C   0  0  0  0  0  0  0  0  0  0  0  0
    5.5978   50.9736  130.5855 C   0  0  0  0  0  0  0  0  0  0  0  0
    4.5197   50.3468  130.0003 C   0  0  0  0  0  0  0  0  0  0  0  0
    4.7310   49.2122  129.2737 C   0  0  0  0  0  0  0  0  0  0  0  0
    6.0162   48.6962  129.1261 C   0  0  0  0  0  0  0  0  0  0  0  0
 24 25  2  0  0  0
 25 26  1  0  0  0
 25 18  1  0  0  0
 18 19  2  0  0  0
 19 20  1  0  0  0
 20 21  2  0  0  0
 21 17  1  0  0  0
 17 13  1  0  0  0
 13 14  1  0  0  0
 14 15  2  0  0  0
 14  1  1  0  0  0
  1  2  1  0  0  0
  2  3  1  0  0  0
  3  4  1  0  0  0
  4  5  1  0  0  0
  5  6  1  0  0  0
  6  7  1  0  0  0
  7  8  1  0  0  0
  7 30  1  0  0  0
 30 31  1  0  0  0
 31 32  2  0  0  0
 32 33  1  0  0  0
 33 34  2  0  0  0
 34 35  1  0  0  0
 35 36  2  0  0  0
  7  9  1  0  0  0
  9 10  2  0  0  0
  9 11  1  0  0  0
 21 22  1  0  0  0
 22 23  2  0  0  0
 23 18  1  0  0  0
 11  1  1  0  0  0
 11  4  1  0  0  0
 36 31  1  0  0  0
 24 27  1  0  0  0
 26 28  1  0  0  0
 26 29  1  0  0  0
 13 16  1  0  0  0
  8 12  1  0  0  0
M  END
> <minimizedAffinity>
0.46896

> <CNNscore>
0.2589659393

> <CNNaffinity>
7.1953835487

> <CNN_VS>
1.8633592129

> <CNNaffinity_variance>
0.5388822556

$$$$
[H]N=C(c1c([H])c([H])c(C([H])([H])N([H])C(=O)C2([H])N3C(=O)[C@](O[H])(C([H])([H])c4c([H])c([H])c([H])c([H])c4[H])C([H])([H])C([H])([H])[C@]3([H])C([H])([H])C2([H])[H])c([H])c1[H])N([H])[H]


 36 39  0  0  0  0  0  0  0  0999 V2000
    7.1728   49.7913  130.9907 C   0  0  0  0  0  0  0  0  0  0  0  0
    7.0350   50.8990  129.9679 C   0  0  0  0  0  0  0  0  0  0  0  0
    7.9365   50.3804  128.8579 C   0  0  0  0  0  0  0  0  0  0  0  0
    7.5081   48.9326  128.7865 C   0  0  0  0  0  0  0  0  0  0  0  0
    8.5965   48.0456  128.2432 C   0  0  0  0  0  0  0  0  0  0  0  0
    8.2528   46.5983  128.3738 C   0  0  0  0  0  0  0  0  0  0  0  0
    7.0595   46.3180  129.2437 C   0  0  0  0  0  0  0  0  0  0  0  0
    5.8600   46.5480  128.5489 O   0  0  0  0  0  0  0  0  0  0  0  0
    7.1478   47.1822  130.4500 C   0  0  0  0  0  0  0  0  0  0  0  0
    7.1355   46.7729  131.6256 O   0  0  0  0  0  0  0  0  0  0  0  0
    7.2538   48.5903  130.1945 N   0  0  0  0  0  0  0  0  0  0  0  0
    6.0559   46.2757  127.6034 H   0  0  0  0  0  0  0  0  0  0  0  0
    9.0199   48.9722  132.4465 N   0  0  0  0  0  0  0  0  0  0  0  0
    8.4680   50.0546  131.7141 C   0  0  0  0  0  0  0  0  0  0  0  0
    9.0333   51.1555  131.6800 O   0  0  0  0  0  0  0  0  0  0  0  0
    8.5467   48.0244  132.4860 H   0  0  0  0  0  0  0  0  0  0  0  0
   10.2616   49.0648  133.1945 C   0  0  0  0  0  0  0  0  0  0  0  0
   11.7301   45.1236  133.9222 C   0  0  0  0  0  0  0  0  0  0  0  0
   12.2112   45.8894  132.8973 C   0  0  0  0  0  0  0  0  0  0  0  0
   11.7627   47.1775  132.6266 C   0  0  0  0  0  0  0  0  0  0  0  0
   10.7896   47.7053  133.4274 C   0  0  0  0  0  0  0  0  0  0  0  0
   10.2880   46.9599  134.4638 C   0  0  0  0  0  0  0  0  0  0  0  0
   10.7367   45.6740  134.7328 C   0  0  0  0  0  0  0  0  0  0  0  0
   12.9296   43.0746  133.3951 N   0  0  0  0  0  0  0  0  0  0  0  0
   12.2125   43.7764  134.1889 C   0  0  0  0  0  0  0  0  0  0  0  0
   11.8797   43.1426  135.4369 N   0  0  0  0  0  0  0  0  0  0  0  0
   13.2087   43.4616  132.4811 H   0  0  0  0  0  0  0  0  0  0  0  0
   12.2215   43.5334  136.3400 H   0  0  0  0  0  0  0  0  0  0  0  0
   11.2890   42.2835  135.4182 H   0  0  0  0  0  0  0  0  0  0  0  0
    7.0530   44.8552  129.6202 C   0  0  0  0  0  0  0  0  0  0  0  0
    8.3865   44.3130  129.8708 C   0  0  0  0  0  0  0  0  0  0  0  0
    9.3548   44.1927  128.8935 C   0  0  0  0  0  0  0  0  0  0  0  0
   10.6084   43.6702  129.1696 C   0  0  0  0  0  0  0  0  0  0  0  0
   10.9208   43.2529  130.4446 C   0  0  0  0  0  0  0  0  0  0  0  0
    9.9784   43.3633  131.4243 C   0  0  0  0  0  0  0  0  0  0  0  0
    8.7207   43.8893  131.1394 C   0  0  0  0  0  0  0  0  0  0  0  0
 24 25  2  0  0  0
 25 26  1  0  0  0
 25 18  1  0  0  0
 18 19  2  0  0  0
 19 20  1  0  0  0
 20 21  2  0  0  0
 21 17  1  0  0  0
 17 13  1  0  0  0
 13 14  1  0  0  0
 14 15  2  0  0  0
 14  1  1  0  0  0
  1  2  1  0  0  0
  2  3  1  0  0  0
  3  4  1  0  0  0
  4  5  1  0  0  0
  5  6  1  0  0  0
  6  7  1  0  0  0
  7  8  1  0  0  0
  7 30  1  0  0  0
 30 31  1  0  0  0
 31 32  2  0  0  0
 32 33  1  0  0  0
 33 34  2  0  0  0
 34 35  1  0  0  0
 35 36  2  0  0  0
  7  9  1  0  0  0
  9 10  2  0  0  0
  9 11  1  0  0  0
 21 22  1  0  0  0
 22 23  2  0  0  0
 23 18  1  0  0  0
 11  1  1  0  0  0
 11  4  1  0  0  0
 36 31  1  0  0  0
 24 27  1  0  0  0
 26 28  1  0  0  0
 26 29  1  0  0  0
 13 16  1  0  0  0
  8 12  1  0  0  0
M  END
> <minimizedAffinity>
0.25379

> <CNNscore>
0.2371390760

> <CNNaffinity>
6.9333014488

> <CNN_VS>
1.6441566944

> <CNNaffinity_variance>
0.1658846140

$$$$
[H]N=C(c1c([H])c([H])c(C([H])([H])N([H])C(=O)C2([H])N3C(=O)[C@](O[H])(C([H])([H])c4c([H])c([H])c([H])c([H])c4[H])C([H])([H])C([H])([H])[C@]3([H])C([H])([H])C2([H])[H])c([H])c1[H])N([H])[H]


 36 39  0  0  0  0  0  0  0  0999 V2000
    9.1450   47.3316  128.5963 C   0  0  0  0  0  0  0  0  0  0  0  0
   10.1958   47.9092  127.6719 C   0  0  0  0  0  0  0  0  0  0  0  0
   11.4346   47.1610  128.1401 C   0  0  0  0  0  0  0  0  0  0  0  0
   10.9013   45.7505  128.2447 C   0  0  0  0  0  0  0  0  0  0  0  0
   11.6777   44.9229  129.2342 C   0  0  0  0  0  0  0  0  0  0  0  0
   11.0228   43.6065  129.4947 C   0  0  0  0  0  0  0  0  0  0  0  0
    9.6256   43.4884  128.9532 C   0  0  0  0  0  0  0  0  0  0  0  0
    9.6370   43.2184  127.5743 O   0  0  0  0  0  0  0  0  0  0  0  0
    8.9052   44.7569  129.2393 C   0  0  0  0  0  0  0  0  0  0  0  0
    7.8315   44.8447  129.8631 O   0  0  0  0  0  0  0  0  0  0  0  0
    9.5302   45.9482  128.7399 N   0  0  0  0  0  0  0  0  0  0  0  0
   10.4419   42.6360  127.4345 H   0  0  0  0  0  0  0  0  0  0  0  0
    8.5167   47.5978  130.9912 N   0  0  0  0  0  0  0  0  0  0  0  0
    9.2859   48.0752  129.8991 C   0  0  0  0  0  0  0  0  0  0  0  0
   10.0316   49.0554  130.0245 O   0  0  0  0  0  0  0  0  0  0  0  0
    7.8729   46.7607  130.8987 H   0  0  0  0  0  0  0  0  0  0  0  0
    8.5426   48.2033  132.3114 C   0  0  0  0  0  0  0  0  0  0  0  0
   10.3563   45.4469  135.0192 C   0  0  0  0  0  0  0  0  0  0  0  0
    9.3517   46.2847  135.4158 C   0  0  0  0  0  0  0  0  0  0  0  0
    8.7326   47.1953  134.5665 C   0  0  0  0  0  0  0  0  0  0  0  0
    9.1509   47.2558  133.2672 C   0  0  0  0  0  0  0  0  0  0  0  0
   10.1572   46.4269  132.8410 C   0  0  0  0  0  0  0  0  0  0  0  0
   10.7742   45.5183  133.6900 C   0  0  0  0  0  0  0  0  0  0  0  0
   10.7195   44.3644  137.1667 N   0  0  0  0  0  0  0  0  0  0  0  0
   10.9922   44.5006  135.9241 C   0  0  0  0  0  0  0  0  0  0  0  0
   12.0178   43.6254  135.4220 N   0  0  0  0  0  0  0  0  0  0  0  0
    9.9948   44.9571  137.5989 H   0  0  0  0  0  0  0  0  0  0  0  0
   11.7995   42.9115  134.6954 H   0  0  0  0  0  0  0  0  0  0  0  0
   12.9846   43.7208  135.8009 H   0  0  0  0  0  0  0  0  0  0  0  0
    8.9386   42.3121  129.6059 C   0  0  0  0  0  0  0  0  0  0  0  0
    8.9801   42.3509  131.0659 C   0  0  0  0  0  0  0  0  0  0  0  0
    7.8594   42.5222  131.8545 C   0  0  0  0  0  0  0  0  0  0  0  0
    7.9394   42.5566  133.2376 C   0  0  0  0  0  0  0  0  0  0  0  0
    9.1575   42.4187  133.8658 C   0  0  0  0  0  0  0  0  0  0  0  0
   10.2765   42.2486  133.1050 C   0  0  0  0  0  0  0  0  0  0  0  0
   10.1884   42.2150  131.7155 C   0  0  0  0  0  0  0  0  0  0  0  0
 24 25  2  0  0  0
 25 26  1  0  0  0
 25 18  1  0  0  0
 18 19  2  0  0  0
 19 20  1  0  0  0
 20 21  2  0  0  0
 21 17  1  0  0  0
 17 13  1  0  0  0
 13 14  1  0  0  0
 14 15  2  0  0  0
 14  1  1  0  0  0
  1  2  1  0  0  0
  2  3  1  0  0  0
  3  4  1  0  0  0
  4  5  1  0  0  0
  5  6  1  0  0  0
  6  7  1  0  0  0
  7  8  1  0  0  0
  7 30  1  0  0  0
 30 31  1  0  0  0
 31 32  2  0  0  0
 32 33  1  0  0  0
 33 34  2  0  0  0
 34 35  1  0  0  0
 35 36  2  0  0  0
  7  9  1  0  0  0
  9 10  2  0  0  0
  9 11  1  0  0  0
 21 22  1  0  0  0
 22 23  2  0  0  0
 23 18  1  0  0  0
 11  1  1  0  0  0
 11  4  1  0  0  0
 36 31  1  0  0  0
 24 27  1  0  0  0
 26 28  1  0  0  0
 26 29  1  0  0  0
 13 16  1  0  0  0
  8 12  1  0  0  0
M  END
> <minimizedAffinity>
4.29868

> <CNNscore>
0.2294147611

> <CNNaffinity>
7.0738410950

> <CNN_VS>
1.6228436232

> <CNNaffinity_variance>
0.1767220497

$$$$
[H]N=C(c1c([H])c([H])c(C([H])([H])N([H])C(=O)C2([H])N3C(=O)[C@](O[H])(C([H])([H])c4c([H])c([H])c([H])c([H])c4[H])C([H])([H])C([H])([H])[C@]3([H])C([H])([H])C2([H])[H])c([H])c1[H])N([H])[H]


 36 39  0  0  0  0  0  0  0  0999 V2000
   11.4918   45.2226  134.5332 C   0  0  0  0  0  0  0  0  0  0  0  0
   11.5821   44.1236  135.5707 C   0  0  0  0  0  0  0  0  0  0  0  0
   10.9667   42.9584  134.8110 C   0  0  0  0  0  0  0  0  0  0  0  0
   11.6534   43.0887  133.4707 C   0  0  0  0  0  0  0  0  0  0  0  0
   10.8364   42.4932  132.3550 C   0  0  0  0  0  0  0  0  0  0  0  0
   11.4101   42.8112  131.0135 C   0  0  0  0  0  0  0  0  0  0  0  0
   12.4887   43.8579  131.0300 C   0  0  0  0  0  0  0  0  0  0  0  0
   13.7187   43.3126  131.4351 O   0  0  0  0  0  0  0  0  0  0  0  0
   12.0654   44.9501  131.9454 C   0  0  0  0  0  0  0  0  0  0  0  0
   11.9727   46.1511  131.6313 O   0  0  0  0  0  0  0  0  0  0  0  0
   11.7487   44.5450  133.2851 N   0  0  0  0  0  0  0  0  0  0  0  0
   13.7201   42.3808  131.0634 H   0  0  0  0  0  0  0  0  0  0  0  0
    9.2600   45.4881  133.4607 N   0  0  0  0  0  0  0  0  0  0  0  0
   10.0760   45.7345  134.5946 C   0  0  0  0  0  0  0  0  0  0  0  0
    9.6338   46.3415  135.5788 O   0  0  0  0  0  0  0  0  0  0  0  0
    9.6251   44.9710  132.6103 H   0  0  0  0  0  0  0  0  0  0  0  0
    7.8748   45.9151  133.3658 C   0  0  0  0  0  0  0  0  0  0  0  0
    7.4201   48.3040  129.8578 C   0  0  0  0  0  0  0  0  0  0  0  0
    6.8779   47.0524  129.9474 C   0  0  0  0  0  0  0  0  0  0  0  0
    7.0003   46.2424  131.0711 C   0  0  0  0  0  0  0  0  0  0  0  0
    7.6996   46.7231  132.1419 C   0  0  0  0  0  0  0  0  0  0  0  0
    8.2547   47.9758  132.0805 C   0  0  0  0  0  0  0  0  0  0  0  0
    8.1317   48.7833  130.9580 C   0  0  0  0  0  0  0  0  0  0  0  0
    7.1701   48.7060  127.4722 N   0  0  0  0  0  0  0  0  0  0  0  0
    7.2812   49.1365  128.6719 C   0  0  0  0  0  0  0  0  0  0  0  0
    7.2619   50.5681  128.8138 N   0  0  0  0  0  0  0  0  0  0  0  0
    7.1757   47.6910  127.2907 H   0  0  0  0  0  0  0  0  0  0  0  0
    6.4951   51.0406  129.3372 H   0  0  0  0  0  0  0  0  0  0  0  0
    8.0319   51.1227  128.3817 H   0  0  0  0  0  0  0  0  0  0  0  0
   12.7001   44.3742  129.6263 C   0  0  0  0  0  0  0  0  0  0  0  0
   11.4571   44.5569  128.8802 C   0  0  0  0  0  0  0  0  0  0  0  0
   10.7357   43.5123  128.3365 C   0  0  0  0  0  0  0  0  0  0  0  0
    9.5614   43.7259  127.6321 C   0  0  0  0  0  0  0  0  0  0  0  0
    9.0807   45.0048  127.4561 C   0  0  0  0  0  0  0  0  0  0  0  0
    9.7784   46.0503  127.9853 C   0  0  0  0  0  0  0  0  0  0  0  0
   10.9578   45.8279  128.6919 C   0  0  0  0  0  0  0  0  0  0  0  0
 24 25  2  0  0  0
 25 26  1  0  0  0
 25 18  1  0  0  0
 18 19  2  0  0  0
 19 20  1  0  0  0
 20 21  2  0  0  0
 21 17  1  0  0  0
 17 13  1  0  0  0
 13 14  1  0  0  0
 14 15  2  0  0  0
 14  1  1  0  0  0
  1  2  1  0  0  0
  2  3  1  0  0  0
  3  4  1  0  0  0
  4  5  1  0  0  0
  5  6  1  0  0  0
  6  7  1  0  0  0
  7  8  1  0  0  0
  7 30  1  0  0  0
 30 31  1  0  0  0
 31 32  2  0  0  0
 32 33  1  0  0  0
 33 34  2  0  0  0
 34 35  1  0  0  0
 35 36  2  0  0  0
  7  9  1  0  0  0
  9 10  2  0  0  0
  9 11  1  0  0  0
 21 22  1  0  0  0
 22 23  2  0  0  0
 23 18  1  0  0  0
 11  1  1  0  0  0
 11  4  1  0  0  0
 36 31  1  0  0  0
 24 27  1  0  0  0
 26 28  1  0  0  0
 26 29  1  0  0  0
 13 16  1  0  0  0
  8 12  1  0  0  0
M  END
> <minimizedAffinity>
-1.94395

> <CNNscore>
0.2285583019

> <CNNaffinity>
7.0699639320

> <CNN_VS>
1.6158989668

> <CNNaffinity_variance>
0.1689548492

$$$$
[H]N=C(c1c([H])c([H])c(C([H])([H])N([H])C(=O)C2([H])N3C(=O)[C@](O[H])(C([H])([H])c4c([H])c([H])c([H])c([H])c4[H])C([H])([H])C([H])([H])[C@]3([H])C([H])([H])C2([H])[H])c([H])c1[H])N([H])[H]


 36 39  0  0  0  0  0  0  0  0999 V2000
    8.3462   49.5219  129.0381 C   0  0  0  0  0  0  0  0  0  0  0  0
    7.1271   50.4159  128.9567 C   0  0  0  0  0  0  0  0  0  0  0  0
    6.3943   50.0212  130.2298 C   0  0  0  0  0  0  0  0  0  0  0  0
    7.5286   50.0129  131.2288 C   0  0  0  0  0  0  0  0  0  0  0  0
    7.2528   49.0977  132.3920 C   0  0  0  0  0  0  0  0  0  0  0  0
    8.4540   48.9254  133.2622 C   0  0  0  0  0  0  0  0  0  0  0  0
    9.7311   49.4545  132.6722 C   0  0  0  0  0  0  0  0  0  0  0  0
    9.8171   50.8496  132.8169 O   0  0  0  0  0  0  0  0  0  0  0  0
    9.7790   49.0661  131.2381 C   0  0  0  0  0  0  0  0  0  0  0  0
   10.6998   48.4226  130.7016 O   0  0  0  0  0  0  0  0  0  0  0  0
    8.6577   49.4854  130.4469 N   0  0  0  0  0  0  0  0  0  0  0  0
    9.3763   51.0429  133.6971 H   0  0  0  0  0  0  0  0  0  0  0  0
    8.5344   47.0401  129.1219 N   0  0  0  0  0  0  0  0  0  0  0  0
    7.9021   48.1700  128.5426 C   0  0  0  0  0  0  0  0  0  0  0  0
    7.0304   48.0373  127.6736 O   0  0  0  0  0  0  0  0  0  0  0  0
    9.2833   47.1381  129.8659 H   0  0  0  0  0  0  0  0  0  0  0  0
    8.2170   45.6712  128.7538 C   0  0  0  0  0  0  0  0  0  0  0  0
   10.6338   43.0485  131.0990 C   0  0  0  0  0  0  0  0  0  0  0  0
    9.2709   42.9451  131.0841 C   0  0  0  0  0  0  0  0  0  0  0  0
    8.4470   43.7767  130.3335 C   0  0  0  0  0  0  0  0  0  0  0  0
    9.0308   44.7485  129.5710 C   0  0  0  0  0  0  0  0  0  0  0  0
   10.3965   44.8757  129.5661 C   0  0  0  0  0  0  0  0  0  0  0  0
   11.2177   44.0447  130.3159 C   0  0  0  0  0  0  0  0  0  0  0  0
   12.5667   42.5096  132.4733 N   0  0  0  0  0  0  0  0  0  0  0  0
   11.4791   42.1682  131.8922 C   0  0  0  0  0  0  0  0  0  0  0  0
   11.0981   40.7915  132.0642 N   0  0  0  0  0  0  0  0  0  0  0  0
   12.9048   43.4806  132.3954 H   0  0  0  0  0  0  0  0  0  0  0  0
   10.2214   40.5410  132.5682 H   0  0  0  0  0  0  0  0  0  0  0  0
   11.7181   40.0497  131.6736 H   0  0  0  0  0  0  0  0  0  0  0  0
   10.9036   48.8804  133.4320 C   0  0  0  0  0  0  0  0  0  0  0  0
   10.7285   47.4767  133.7981 C   0  0  0  0  0  0  0  0  0  0  0  0
    9.6273   47.0005  134.4821 C   0  0  0  0  0  0  0  0  0  0  0  0
    9.4984   45.6613  134.8143 C   0  0  0  0  0  0  0  0  0  0  0  0
   10.4811   44.7617  134.4642 C   0  0  0  0  0  0  0  0  0  0  0  0
   11.5768   45.2118  133.7882 C   0  0  0  0  0  0  0  0  0  0  0  0
   11.6995   46.5592  133.4578 C   0  0  0  0  0  0  0  0  0  0  0  0
 24 25  2  0  0  0
 25 26  1  0  0  0
 25 18  1  0  0  0
 18 19  2  0  0  0
 19 20  1  0  0  0
 20 21  2  0  0  0
 21 17  1  0  0  0
 17 13  1  0  0  0
 13 14  1  0  0  0
 14 15  2  0  0  0
 14  1  1  0  0  0
  1  2  1  0  0  0
  2  3  1  0  0  0
  3  4  1  0  0  0
  4  5  1  0  0  0
  5  6  1  0  0  0
  6  7  1  0  0  0
  7  8  1  0  0  0
  7 30  1  0  0  0
 30 31  1  0  0  0
 31 32  2  0  0  0
 32 33  1  0  0  0
 33 34  2  0  0  0
 34 35  1  0  0  0
 35 36  2  0  0  0
  7  9  1  0  0  0
  9 10  2  0  0  0
  9 11  1  0  0  0
 21 22  1  0  0  0
 22 23  2  0  0  0
 23 18  1  0  0  0
 11  1  1  0  0  0
 11  4  1  0  0  0
 36 31  1  0  0  0
 24 27  1  0  0  0
 26 28  1  0  0  0
 26 29  1  0  0  0
 13 16  1  0  0  0
  8 12  1  0  0  0
M  END
> <minimizedAffinity>
-1.58507

> <CNNscore>
0.2239100188

> <CNNaffinity>
7.0226297379

> <CNN_VS>
1.5724371672

> <CNNaffinity_variance>
0.1253876537

$$$$
[H]c1c(OC([H])([H])[H])c(C([H])([H])N(C([H])([H])[H])C([H])([H])[H])c([H])c(OC([H])([H])[H])c1-c1c([H])n(C([H])([H])[H])c(=O)c2c([H])c([H])c([H])c([H])c12


 26 28  0  0  0  0  0  0  0  0999 V2000
    9.7236   44.6902  132.9637 C   0  0  0  0  0  0  0  0  0  0  0  0
    9.1834   45.8560  132.3681 C   0  0  0  0  0  0  0  0  0  0  0  0
    8.5838   45.8395  131.0234 C   0  0  0  0  0  0  0  0  0  0  0  0
    8.5785   44.7048  130.3671 C   0  0  0  0  0  0  0  0  0  0  0  0
    9.1589   43.5216  130.8916 C   0  0  0  0  0  0  0  0  0  0  0  0
    9.6711   43.5733  132.0910 C   0  0  0  0  0  0  0  0  0  0  0  0
    7.7742   47.0458  130.8406 C   0  0  0  0  0  0  0  0  0  0  0  0
    6.7463   47.0323  129.8205 C   0  0  0  0  0  0  0  0  0  0  0  0
    6.3022   48.1899  129.2185 N   0  0  0  0  0  0  0  0  0  0  0  0
    5.3537   48.2688  128.1849 C   0  0  0  0  0  0  0  0  0  0  0  0
    6.9491   49.2032  129.7204 C   0  0  0  0  0  0  0  0  0  0  0  0
    6.4351   50.3556  129.0519 O   0  0  0  0  0  0  0  0  0  0  0  0
    7.8365   49.5249  130.5450 C   0  0  0  0  0  0  0  0  0  0  0  0
    8.3368   50.8062  130.8482 C   0  0  0  0  0  0  0  0  0  0  0  0
    9.3747   50.6459  131.9288 C   0  0  0  0  0  0  0  0  0  0  0  0
    9.7307   49.6602  132.4401 C   0  0  0  0  0  0  0  0  0  0  0  0
    9.2533   48.3243  132.1532 C   0  0  0  0  0  0  0  0  0  0  0  0
    8.3320   48.2923  131.2229 C   0  0  0  0  0  0  0  0  0  0  0  0
   10.7208   44.3801  135.2986 C   0  0  0  0  0  0  0  0  0  0  0  0
   10.2045   44.4876  134.1447 O   0  0  0  0  0  0  0  0  0  0  0  0
    7.9644   44.5630  129.0940 O   0  0  0  0  0  0  0  0  0  0  0  0
    8.8469   43.8445  128.2264 C   0  0  0  0  0  0  0  0  0  0  0  0
   10.2005   42.3522  132.7768 C   0  0  0  0  0  0  0  0  0  0  0  0
   11.3182   41.6622  132.4117 N   0  0  0  0  0  0  0  0  0  0  0  0
   12.4349   42.5672  132.2411 C   0  0  0  0  0  0  0  0  0  0  0  0
   11.5443   40.4087  131.9521 C   0  0  0  0  0  0  0  0  0  0  0  0
 19 20  1  0  0  0
 20  1  1  0  0  0
  1  2  2  0  0  0
  2  3  1  0  0  0
  3  7  1  0  0  0
  7  8  2  0  0  0
  8  9  1  0  0  0
  9 10  1  0  0  0
  9 11  1  0  0  0
 11 12  2  0  0  0
 11 13  1  0  0  0
 13 14  2  0  0  0
 14 15  1  0  0  0
 15 16  2  0  0  0
 16 17  1  0  0  0
 17 18  2  0  0  0
  3  4  2  0  0  0
  4 21  1  0  0  0
 21 22  1  0  0  0
  4  5  1  0  0  0
  5  6  2  0  0  0
  6 23  1  0  0  0
 23 24  1  0  0  0
 24 25  1  0  0  0
 24 26  1  0  0  0
  6  1  1  0  0  0
 18  7  1  0  0  0
 18 13  1  0  0  0
M  END
> <minimizedAffinity>
-1.41457

> <CNNscore>
0.4462053180

> <CNNaffinity>
7.2811079025

> <CNN_VS>
3.2488691807

> <CNNaffinity_variance>
0.7555137873

$$$$
[H]c1c(OC([H])([H])[H])c(C([H])([H])N(C([H])([H])[H])C([H])([H])[H])c([H])c(OC([H])([H])[H])c1-c1c([H])n(C([H])([H])[H])c(=O)c2c([H])c([H])c([H])c([H])c12


 26 28  0  0  0  0  0  0  0  0999 V2000
    8.7934   48.2705  131.2684 C   0  0  0  0  0  0  0  0  0  0  0  0
    8.8780   46.9396  131.7454 C   0  0  0  0  0  0  0  0  0  0  0  0
    8.6828   45.7793  130.8602 C   0  0  0  0  0  0  0  0  0  0  0  0
    8.4031   46.0081  129.6002 C   0  0  0  0  0  0  0  0  0  0  0  0
    8.2479   47.3197  129.0829 C   0  0  0  0  0  0  0  0  0  0  0  0
    8.4394   48.3226  129.8959 C   0  0  0  0  0  0  0  0  0  0  0  0
    9.2107   44.5796  131.5129 C   0  0  0  0  0  0  0  0  0  0  0  0
    8.2735   43.5543  131.9223 C   0  0  0  0  0  0  0  0  0  0  0  0
    8.5521   42.6819  132.9523 N   0  0  0  0  0  0  0  0  0  0  0  0
    7.6852   41.6963  133.4538 C   0  0  0  0  0  0  0  0  0  0  0  0
    9.7317   42.9563  133.4322 C   0  0  0  0  0  0  0  0  0  0  0  0
    9.9457   42.0158  134.4852 O   0  0  0  0  0  0  0  0  0  0  0  0
   10.7140   43.7260  133.3154 C   0  0  0  0  0  0  0  0  0  0  0  0
   11.9075   43.7533  134.0628 C   0  0  0  0  0  0  0  0  0  0  0  0
   12.7703   44.8547  133.5031 C   0  0  0  0  0  0  0  0  0  0  0  0
   12.5275   45.5768  132.6202 C   0  0  0  0  0  0  0  0  0  0  0  0
   11.3128   45.5916  131.8335 C   0  0  0  0  0  0  0  0  0  0  0  0
   10.4478   44.6786  132.1991 C   0  0  0  0  0  0  0  0  0  0  0  0
    9.3301   50.4748  132.4496 C   0  0  0  0  0  0  0  0  0  0  0  0
    9.0153   49.3973  131.8585 O   0  0  0  0  0  0  0  0  0  0  0  0
    8.2644   44.9632  128.6479 O   0  0  0  0  0  0  0  0  0  0  0  0
    9.5584   44.4339  128.3425 C   0  0  0  0  0  0  0  0  0  0  0  0
    8.4141   49.7416  129.4189 C   0  0  0  0  0  0  0  0  0  0  0  0
    7.2993   50.5180  129.3055 N   0  0  0  0  0  0  0  0  0  0  0  0
    6.1399   49.8097  129.8048 C   0  0  0  0  0  0  0  0  0  0  0  0
    7.0071   51.6556  128.6314 C   0  0  0  0  0  0  0  0  0  0  0  0
 19 20  1  0  0  0
 20  1  1  0  0  0
  1  2  2  0  0  0
  2  3  1  0  0  0
  3  7  1  0  0  0
  7  8  2  0  0  0
  8  9  1  0  0  0
  9 10  1  0  0  0
  9 11  1  0  0  0
 11 12  2  0  0  0
 11 13  1  0  0  0
 13 14  2  0  0  0
 14 15  1  0  0  0
 15 16  2  0  0  0
 16 17  1  0  0  0
 17 18  2  0  0  0
  3  4  2  0  0  0
  4 21  1  0  0  0
 21 22  1  0  0  0
  4  5  1  0  0  0
  5  6  2  0  0  0
  6 23  1  0  0  0
 23 24  1  0  0  0
 24 25  1  0  0  0
 24 26  1  0  0  0
  6  1  1  0  0  0
 18  7  1  0  0  0
 18 13  1  0  0  0
M  END
> <minimizedAffinity>
-2.50990

> <CNNscore>
0.4339270294

> <CNNaffinity>
7.2829298973

> <CNN_VS>
3.1602602005

> <CNNaffinity_variance>
0.5348713994

$$$$
[H]c1c(OC([H])([H])[H])c(C([H])([H])N(C([H])([H])[H])C([H])([H])[H])c([H])c(OC([H])([H])[H])c1-c1c([H])n(C([H])([H])[H])c(=O)c2c([H])c([H])c([H])c([H])c12


 26 28  0  0  0  0  0  0  0  0999 V2000
   10.4964   45.7792  132.7636 C   0  0  0  0  0  0  0  0  0  0  0  0
   10.0722   46.9449  132.0803 C   0  0  0  0  0  0  0  0  0  0  0  0
   10.0814   47.0352  130.6106 C   0  0  0  0  0  0  0  0  0  0  0  0
   10.5185   46.0008  129.9344 C   0  0  0  0  0  0  0  0  0  0  0  0
   11.0105   44.8316  130.5690 C   0  0  0  0  0  0  0  0  0  0  0  0
   10.9762   44.7850  131.8729 C   0  0  0  0  0  0  0  0  0  0  0  0
    9.2405   48.1579  130.1904 C   0  0  0  0  0  0  0  0  0  0  0  0
    9.5325   49.4706  130.7277 C   0  0  0  0  0  0  0  0  0  0  0  0
    8.5653   50.4471  130.8312 N   0  0  0  0  0  0  0  0  0  0  0  0
    8.7416   51.7248  131.3884 C   0  0  0  0  0  0  0  0  0  0  0  0
    7.4371   49.9747  130.3828 C   0  0  0  0  0  0  0  0  0  0  0  0
    6.4940   51.0379  130.5212 O   0  0  0  0  0  0  0  0  0  0  0  0
    6.8924   48.9560  129.8964 C   0  0  0  0  0  0  0  0  0  0  0  0
    5.5506   48.7727  129.5090 C   0  0  0  0  0  0  0  0  0  0  0  0
    5.4216   47.3746  128.9618 C   0  0  0  0  0  0  0  0  0  0  0  0
    6.2531   46.5626  128.8666 C   0  0  0  0  0  0  0  0  0  0  0  0
    7.6386   46.7035  129.2608 C   0  0  0  0  0  0  0  0  0  0  0  0
    7.9174   47.8811  129.7614 C   0  0  0  0  0  0  0  0  0  0  0  0
   10.3945   45.2600  135.2660 C   0  0  0  0  0  0  0  0  0  0  0  0
   10.4807   45.4808  134.0197 O   0  0  0  0  0  0  0  0  0  0  0  0
   10.5048   45.9569  128.5146 O   0  0  0  0  0  0  0  0  0  0  0  0
   10.7072   44.6065  128.0865 C   0  0  0  0  0  0  0  0  0  0  0  0
   11.3626   43.5520  132.6294 C   0  0  0  0  0  0  0  0  0  0  0  0
   10.5696   42.4594  132.8186 N   0  0  0  0  0  0  0  0  0  0  0  0
   10.9432   41.4020  131.9035 C   0  0  0  0  0  0  0  0  0  0  0  0
    9.4026   42.2428  133.4705 C   0  0  0  0  0  0  0  0  0  0  0  0
 19 20  1  0  0  0
 20  1  1  0  0  0
  1  2  2  0  0  0
  2  3  1  0  0  0
  3  7  1  0  0  0
  7  8  2  0  0  0
  8  9  1  0  0  0
  9 10  1  0  0  0
  9 11  1  0  0  0
 11 12  2  0  0  0
 11 13  1  0  0  0
 13 14  2  0  0  0
 14 15  1  0  0  0
 15 16  2  0  0  0
 16 17  1  0  0  0
 17 18  2  0  0  0
  3  4  2  0  0  0
  4 21  1  0  0  0
 21 22  1  0  0  0
  4  5  1  0  0  0
  5  6  2  0  0  0
  6 23  1  0  0  0
 23 24  1  0  0  0
 24 25  1  0  0  0
 24 26  1  0  0  0
  6  1  1  0  0  0
 18  7  1  0  0  0
 18 13  1  0  0  0
M  END
> <minimizedAffinity>
-2.54954

> <CNNscore>
0.4259503782

> <CNNaffinity>
7.1721162796

> <CNN_VS>
3.0549657345

> <CNNaffinity_variance>
0.6032292843

$$$$
[H]c1c(OC([H])([H])[H])c(C([H])([H])N(C([H])([H])[H])C([H])([H])[H])c([H])c(OC([H])([H])[H])c1-c1c([H])n(C([H])([H])[H])c(=O)c2c([H])c([H])c([H])c([H])c12


 26 28  0  0  0  0  0  0  0  0999 V2000
    9.7313   44.4269  131.6727 C   0  0  0  0  0  0  0  0  0  0  0  0
    9.0884   45.5386  131.0755 C   0  0  0  0  0  0  0  0  0  0  0  0
    8.6134   46.6845  131.8687 C   0  0  0  0  0  0  0  0  0  0  0  0
    8.7828   46.6447  133.1679 C   0  0  0  0  0  0  0  0  0  0  0  0
    9.3662   45.5305  133.8237 C   0  0  0  0  0  0  0  0  0  0  0  0
    9.7845   44.5387  133.0857 C   0  0  0  0  0  0  0  0  0  0  0  0
    8.3677   47.8202  130.9776 C   0  0  0  0  0  0  0  0  0  0  0  0
    8.9627   49.0965  131.3153 C   0  0  0  0  0  0  0  0  0  0  0  0
    8.4173   50.2894  130.8918 N   0  0  0  0  0  0  0  0  0  0  0  0
    8.8908   51.5721  131.2154 C   0  0  0  0  0  0  0  0  0  0  0  0
    7.3496   50.0406  130.1880 C   0  0  0  0  0  0  0  0  0  0  0  0
    6.8481   51.3163  129.7879 O   0  0  0  0  0  0  0  0  0  0  0  0
    6.6201   49.1185  129.7540 C   0  0  0  0  0  0  0  0  0  0  0  0
    5.4485   49.2114  128.9775 C   0  0  0  0  0  0  0  0  0  0  0  0
    4.9719   47.8085  128.7027 C   0  0  0  0  0  0  0  0  0  0  0  0
    5.4522   46.8063  129.0557 C   0  0  0  0  0  0  0  0  0  0  0  0
    6.6461   46.6644  129.8615 C   0  0  0  0  0  0  0  0  0  0  0  0
    7.1902   47.8102  130.1874 C   0  0  0  0  0  0  0  0  0  0  0  0
   10.8104   42.4039  130.5390 C   0  0  0  0  0  0  0  0  0  0  0  0
   10.2859   43.3862  131.1469 O   0  0  0  0  0  0  0  0  0  0  0  0
    8.4246   47.7256  134.0171 O   0  0  0  0  0  0  0  0  0  0  0  0
    8.8976   47.4572  135.3407 C   0  0  0  0  0  0  0  0  0  0  0  0
   10.5181   43.3726  133.6722 C   0  0  0  0  0  0  0  0  0  0  0  0
   11.5747   43.4534  134.5300 N   0  0  0  0  0  0  0  0  0  0  0  0
   12.8185   43.5124  133.7920 C   0  0  0  0  0  0  0  0  0  0  0  0
   11.7273   43.2486  135.8598 C   0  0  0  0  0  0  0  0  0  0  0  0
 19 20  1  0  0  0
 20  1  1  0  0  0
  1  2  2  0  0  0
  2  3  1  0  0  0
  3  7  1  0  0  0
  7  8  2  0  0  0
  8  9  1  0  0  0
  9 10  1  0  0  0
  9 11  1  0  0  0
 11 12  2  0  0  0
 11 13  1  0  0  0
 13 14  2  0  0  0
 14 15  1  0  0  0
 15 16  2  0  0  0
 16 17  1  0  0  0
 17 18  2  0  0  0
  3  4  2  0  0  0
  4 21  1  0  0  0
 21 22  1  0  0  0
  4  5  1  0  0  0
  5  6  2  0  0  0
  6 23  1  0  0  0
 23 24  1  0  0  0
 24 25  1  0  0  0
 24 26  1  0  0  0
  6  1  1  0  0  0
 18  7  1  0  0  0
 18 13  1  0  0  0
M  END
> <minimizedAffinity>
-0.39307

> <CNNscore>
0.4098101854

> <CNNaffinity>
7.1017966270

> <CNN_VS>
2.9103887081

> <CNNaffinity_variance>
0.8603116870

$$$$
[H]c1c(OC([H])([H])[H])c(C([H])([H])N(C([H])([H])[H])C([H])([H])[H])c([H])c(OC([H])([H])[H])c1-c1c([H])n(C([H])([H])[H])c(=O)c2c([H])c([H])c([H])c([H])c12


 26 28  0  0  0  0  0  0  0  0999 V2000
    8.1958   48.2927  130.4570 C   0  0  0  0  0  0  0  0  0  0  0  0
    9.1473   47.5738  131.2208 C   0  0  0  0  0  0  0  0  0  0  0  0
    9.2174   46.1032  131.1970 C   0  0  0  0  0  0  0  0  0  0  0  0
    8.3499   45.4589  130.4549 C   0  0  0  0  0  0  0  0  0  0  0  0
    7.3385   46.1257  129.7171 C   0  0  0  0  0  0  0  0  0  0  0  0
    7.3155   47.4301  129.7549 C   0  0  0  0  0  0  0  0  0  0  0  0
   10.5063   45.6721  131.7417 C   0  0  0  0  0  0  0  0  0  0  0  0
   11.5101   45.1830  130.8195 C   0  0  0  0  0  0  0  0  0  0  0  0
   12.4974   44.3064  131.2151 N   0  0  0  0  0  0  0  0  0  0  0  0
   13.4754   43.7373  130.3820 C   0  0  0  0  0  0  0  0  0  0  0  0
   12.3439   44.0389  132.4808 C   0  0  0  0  0  0  0  0  0  0  0  0
   13.3972   43.1334  132.8120 O   0  0  0  0  0  0  0  0  0  0  0  0
   11.6261   44.2731  133.4812 C   0  0  0  0  0  0  0  0  0  0  0  0
   11.7459   43.7684  134.7908 C   0  0  0  0  0  0  0  0  0  0  0  0
   10.6468   44.3836  135.6182 C   0  0  0  0  0  0  0  0  0  0  0  0
    9.8258   45.1364  135.2732 C   0  0  0  0  0  0  0  0  0  0  0  0
    9.6591   45.6717  133.9389 C   0  0  0  0  0  0  0  0  0  0  0  0
   10.5512   45.2293  133.0882 C   0  0  0  0  0  0  0  0  0  0  0  0
    7.7875   50.7991  130.1517 C   0  0  0  0  0  0  0  0  0  0  0  0
    8.0357   49.5617  130.2804 O   0  0  0  0  0  0  0  0  0  0  0  0
    8.3737   44.0464  130.3064 O   0  0  0  0  0  0  0  0  0  0  0  0
    8.8717   43.7213  129.0048 C   0  0  0  0  0  0  0  0  0  0  0  0
    6.3627   48.2276  128.9194 C   0  0  0  0  0  0  0  0  0  0  0  0
    5.0917   48.5677  129.2764 N   0  0  0  0  0  0  0  0  0  0  0  0
    4.3066   47.3794  129.5350 C   0  0  0  0  0  0  0  0  0  0  0  0
    4.3651   49.7082  129.2038 C   0  0  0  0  0  0  0  0  0  0  0  0
 19 20  1  0  0  0
 20  1  1  0  0  0
  1  2  2  0  0  0
  2  3  1  0  0  0
  3  7  1  0  0  0
  7  8  2  0  0  0
  8  9  1  0  0  0
  9 10  1  0  0  0
  9 11  1  0  0  0
 11 12  2  0  0  0
 11 13  1  0  0  0
 13 14  2  0  0  0
 14 15  1  0  0  0
 15 16  2  0  0  0
 16 17  1  0  0  0
 17 18  2  0  0  0
  3  4  2  0  0  0
  4 21  1  0  0  0
 21 22  1  0  0  0
  4  5  1  0  0  0
  5  6  2  0  0  0
  6 23  1  0  0  0
 23 24  1  0  0  0
 24 25  1  0  0  0
 24 26  1  0  0  0
  6  1  1  0  0  0
 18  7  1  0  0  0
 18 13  1  0  0  0
M  END
> <minimizedAffinity>
-1.44645

> <CNNscore>
0.4059720337

> <CNNaffinity>
7.3370771408

> <CNN_VS>
2.9786481857

> <CNNaffinity_variance>
0.6865269542

$$$$
[H]c1c(OC([H])([H])[H])c(C([H])([H])N(C([H])([H])[H])C([H])([H])[H])c([H])c(OC([H])([H])[H])c1-c1c([H])n(C([H])([H])[H])c(=O)c2c([H])c([H])c([H])c([H])c12


 26 28  0  0  0  0  0  0  0  0999 V2000
    8.5675   49.0176  129.7774 C   0  0  0  0  0  0  0  0  0  0  0  0
    9.7441   48.3167  130.1378 C   0  0  0  0  0  0  0  0  0  0  0  0
    9.7043   47.0931  130.9559 C   0  0  0  0  0  0  0  0  0  0  0  0
    8.5351   46.6686  131.3696 C   0  0  0  0  0  0  0  0  0  0  0  0
    7.3316   47.3645  131.0882 C   0  0  0  0  0  0  0  0  0  0  0  0
    7.4064   48.4389  130.3510 C   0  0  0  0  0  0  0  0  0  0  0  0
   10.9812   46.3873  130.8319 C   0  0  0  0  0  0  0  0  0  0  0  0
   11.3412   45.8458  129.5379 C   0  0  0  0  0  0  0  0  0  0  0  0
   12.1973   44.7732  129.4097 N   0  0  0  0  0  0  0  0  0  0  0  0
   12.5582   44.1473  128.2045 C   0  0  0  0  0  0  0  0  0  0  0  0
   12.5754   44.3891  130.5957 C   0  0  0  0  0  0  0  0  0  0  0  0
   13.4541   43.2845  130.3791 O   0  0  0  0  0  0  0  0  0  0  0  0
   12.4470   44.6232  131.8203 C   0  0  0  0  0  0  0  0  0  0  0  0
   13.0338   43.9553  132.9128 C   0  0  0  0  0  0  0  0  0  0  0  0
   12.5743   44.6476  134.1699 C   0  0  0  0  0  0  0  0  0  0  0  0
   11.8603   45.5647  134.2630 C   0  0  0  0  0  0  0  0  0  0  0  0
   11.2277   46.2736  133.1711 C   0  0  0  0  0  0  0  0  0  0  0  0
   11.5322   45.7884  131.9933 C   0  0  0  0  0  0  0  0  0  0  0  0
    8.1590   51.0827  128.3246 C   0  0  0  0  0  0  0  0  0  0  0  0
    8.3926   50.0401  129.0086 O   0  0  0  0  0  0  0  0  0  0  0  0
    8.3779   45.4632  132.1046 O   0  0  0  0  0  0  0  0  0  0  0  0
    6.9842   45.1543  132.2039 C   0  0  0  0  0  0  0  0  0  0  0  0
    6.1825   49.1754  129.9023 C   0  0  0  0  0  0  0  0  0  0  0  0
    5.0662   48.6028  129.3688 N   0  0  0  0  0  0  0  0  0  0  0  0
    5.3425   47.2396  128.9681 C   0  0  0  0  0  0  0  0  0  0  0  0
    3.8815   49.0834  128.9225 C   0  0  0  0  0  0  0  0  0  0  0  0
 19 20  1  0  0  0
 20  1  1  0  0  0
  1  2  2  0  0  0
  2  3  1  0  0  0
  3  7  1  0  0  0
  7  8  2  0  0  0
  8  9  1  0  0  0
  9 10  1  0  0  0
  9 11  1  0  0  0
 11 12  2  0  0  0
 11 13  1  0  0  0
 13 14  2  0  0  0
 14 15  1  0  0  0
 15 16  2  0  0  0
 16 17  1  0  0  0
 17 18  2  0  0  0
  3  4  2  0  0  0
  4 21  1  0  0  0
 21 22  1  0  0  0
  4  5  1  0  0  0
  5  6  2  0  0  0
  6 23  1  0  0  0
 23 24  1  0  0  0
 24 25  1  0  0  0
 24 26  1  0  0  0
  6  1  1  0  0  0
 18  7  1  0  0  0
 18 13  1  0  0  0
M  END
> <minimizedAffinity>
6.94785

> <CNNscore>
0.4047272503

> <CNNaffinity>
7.0098791122

> <CNN_VS>
2.8370890617

> <CNNaffinity_variance>
1.5730447769

$$$$
[H]c1c(OC([H])([H])[H])c(C([H])([H])N(C([H])([H])[H])C([H])([H])[H])c([H])c(OC([H])([H])[H])c1-c1c([H])n(C([H])([H])[H])c(=O)c2c([H])c([H])c([H])c([H])c12


 26 28  0  0  0  0  0  0  0  0999 V2000
    8.9580   48.9350  130.9068 C   0  0  0  0  0  0  0  0  0  0  0  0
    9.4753   47.7591  131.5030 C   0  0  0  0  0  0  0  0  0  0  0  0
    9.4085   46.4497  130.8328 C   0  0  0  0  0  0  0  0  0  0  0  0
    8.8302   46.3898  129.6580 C   0  0  0  0  0  0  0  0  0  0  0  0
    8.2429   47.5245  129.0420 C   0  0  0  0  0  0  0  0  0  0  0  0
    8.3318   48.6695  129.6621 C   0  0  0  0  0  0  0  0  0  0  0  0
   10.3470   45.5288  131.4772 C   0  0  0  0  0  0  0  0  0  0  0  0
   11.6790   45.4090  130.9216 C   0  0  0  0  0  0  0  0  0  0  0  0
   12.4367   44.2693  131.0852 N   0  0  0  0  0  0  0  0  0  0  0  0
   13.7106   44.0419  130.5376 C   0  0  0  0  0  0  0  0  0  0  0  0
   11.7561   43.4049  131.7828 C   0  0  0  0  0  0  0  0  0  0  0  0
   12.6029   42.2620  131.9091 O   0  0  0  0  0  0  0  0  0  0  0  0
   10.6597   43.2133  132.3591 C   0  0  0  0  0  0  0  0  0  0  0  0
   10.2175   42.0731  133.0580 C   0  0  0  0  0  0  0  0  0  0  0  0
    8.8351   42.3672  133.5808 C   0  0  0  0  0  0  0  0  0  0  0  0
    8.2108   43.3429  133.4470 C   0  0  0  0  0  0  0  0  0  0  0  0
    8.6202   44.5316  132.7298 C   0  0  0  0  0  0  0  0  0  0  0  0
    9.8181   44.4354  132.2092 C   0  0  0  0  0  0  0  0  0  0  0  0
    9.0614   51.3441  131.7600 C   0  0  0  0  0  0  0  0  0  0  0  0
    8.9987   50.1673  131.2901 O   0  0  0  0  0  0  0  0  0  0  0  0
    8.7737   45.1922  128.8961 O   0  0  0  0  0  0  0  0  0  0  0  0
    9.9848   45.0577  128.1457 C   0  0  0  0  0  0  0  0  0  0  0  0
    7.8480   49.9433  129.0413 C   0  0  0  0  0  0  0  0  0  0  0  0
    6.6766   50.5734  129.3400 N   0  0  0  0  0  0  0  0  0  0  0  0
    6.7344   51.9617  128.9344 C   0  0  0  0  0  0  0  0  0  0  0  0
    5.6136   50.2670  130.1210 C   0  0  0  0  0  0  0  0  0  0  0  0
 19 20  1  0  0  0
 20  1  1  0  0  0
  1  2  2  0  0  0
  2  3  1  0  0  0
  3  7  1  0  0  0
  7  8  2  0  0  0
  8  9  1  0  0  0
  9 10  1  0  0  0
  9 11  1  0  0  0
 11 12  2  0  0  0
 11 13  1  0  0  0
 13 14  2  0  0  0
 14 15  1  0  0  0
 15 16  2  0  0  0
 16 17  1  0  0  0
 17 18  2  0  0  0
  3  4  2  0  0  0
  4 21  1  0  0  0
 21 22  1  0  0  0
  4  5  1  0  0  0
  5  6  2  0  0  0
  6 23  1  0  0  0
 23 24  1  0  0  0
 24 25  1  0  0  0
 24 26  1  0  0  0
  6  1  1  0  0  0
 18  7  1  0  0  0
 18 13  1  0  0  0
M  END
> <minimizedAffinity>
-0.73431

> <CNNscore>
0.3816649616

> <CNNaffinity>
7.1318230629

> <CNN_VS>
2.7219669819

> <CNNaffinity_variance>
0.4139356613

$$$$
[H]c1c(OC([H])([H])[H])c(C([H])([H])N(C([H])([H])[H])C([H])([H])[H])c([H])c(OC([H])([H])[H])c1-c1c([H])n(C([H])([H])[H])c(=O)c2c([H])c([H])c([H])c([H])c12


 26 28  0  0  0  0  0  0  0  0999 V2000
    8.7792   43.7690  132.0230 C   0  0  0  0  0  0  0  0  0  0  0  0
    8.3553   45.1167  131.9251 C   0  0  0  0  0  0  0  0  0  0  0  0
    8.8206   46.0050  130.8469 C   0  0  0  0  0  0  0  0  0  0  0  0
    9.6684   45.5189  129.9733 C   0  0  0  0  0  0  0  0  0  0  0  0
   10.1712   44.1953  130.0587 C   0  0  0  0  0  0  0  0  0  0  0  0
    9.7270   43.4350  131.0220 C   0  0  0  0  0  0  0  0  0  0  0  0
    7.9373   47.1701  130.7660 C   0  0  0  0  0  0  0  0  0  0  0  0
    6.8788   47.1594  129.7777 C   0  0  0  0  0  0  0  0  0  0  0  0
    6.3492   48.3239  129.2648 N   0  0  0  0  0  0  0  0  0  0  0  0
    5.3641   48.4108  128.2666 C   0  0  0  0  0  0  0  0  0  0  0  0
    6.9530   49.3405  129.8117 C   0  0  0  0  0  0  0  0  0  0  0  0
    6.3518   50.4999  129.2342 O   0  0  0  0  0  0  0  0  0  0  0  0
    7.8472   49.6621  130.6290 C   0  0  0  0  0  0  0  0  0  0  0  0
    8.2827   50.9495  130.9993 C   0  0  0  0  0  0  0  0  0  0  0  0
    9.3632   50.7839  132.0365 C   0  0  0  0  0  0  0  0  0  0  0  0
    9.7919   49.7911  132.4726 C   0  0  0  0  0  0  0  0  0  0  0  0
    9.3830   48.4497  132.1144 C   0  0  0  0  0  0  0  0  0  0  0  0
    8.4348   48.4212  131.2113 C   0  0  0  0  0  0  0  0  0  0  0  0
    7.9836   41.9471  133.6324 C   0  0  0  0  0  0  0  0  0  0  0  0
    8.4226   42.8254  132.8290 O   0  0  0  0  0  0  0  0  0  0  0  0
   10.1259   46.2677  128.8563 O   0  0  0  0  0  0  0  0  0  0  0  0
   10.7575   45.3821  127.9265 C   0  0  0  0  0  0  0  0  0  0  0  0
   10.1071   41.9906  131.1270 C   0  0  0  0  0  0  0  0  0  0  0  0
   11.0993   41.4894  131.9163 N   0  0  0  0  0  0  0  0  0  0  0  0
   11.9705   42.5541  132.3663 C   0  0  0  0  0  0  0  0  0  0  0  0
   11.5738   40.2443  132.1577 C   0  0  0  0  0  0  0  0  0  0  0  0
 19 20  1  0  0  0
 20  1  1  0  0  0
  1  2  2  0  0  0
  2  3  1  0  0  0
  3  7  1  0  0  0
  7  8  2  0  0  0
  8  9  1  0  0  0
  9 10  1  0  0  0
  9 11  1  0  0  0
 11 12  2  0  0  0
 11 13  1  0  0  0
 13 14  2  0  0  0
 14 15  1  0  0  0
 15 16  2  0  0  0
 16 17  1  0  0  0
 17 18  2  0  0  0
  3  4  2  0  0  0
  4 21  1  0  0  0
 21 22  1  0  0  0
  4  5  1  0  0  0
  5  6  2  0  0  0
  6 23  1  0  0  0
 23 24  1  0  0  0
 24 25  1  0  0  0
 24 26  1  0  0  0
  6  1  1  0  0  0
 18  7  1  0  0  0
 18 13  1  0  0  0
M  END
> <minimizedAffinity>
-0.88463

> <CNNscore>
0.3777410388

> <CNNaffinity>
7.0042543411

> <CNN_VS>
2.6457943916

> <CNNaffinity_variance>
0.5644217730

$$$$
[H]c1c(OC([H])([H])[H])c(C([H])([H])N(C([H])([H])[H])C([H])([H])[H])c([H])c(OC([H])([H])[H])c1-c1c([H])n(C([H])([H])[H])c(=O)c2c([H])c([H])c([H])c([H])c12


 26 28  0  0  0  0  0  0  0  0999 V2000
    6.7831   46.9753  129.8394 C   0  0  0  0  0  0  0  0  0  0  0  0
    7.8011   46.1333  130.3496 C   0  0  0  0  0  0  0  0  0  0  0  0
    9.2011   46.5769  130.4552 C   0  0  0  0  0  0  0  0  0  0  0  0
    9.4958   47.7847  130.0397 C   0  0  0  0  0  0  0  0  0  0  0  0
    8.5273   48.6475  129.4655 C   0  0  0  0  0  0  0  0  0  0  0  0
    7.2950   48.2226  129.3990 C   0  0  0  0  0  0  0  0  0  0  0  0
    9.9249   45.6809  131.3593 C   0  0  0  0  0  0  0  0  0  0  0  0
   10.2585   44.3537  130.8857 C   0  0  0  0  0  0  0  0  0  0  0  0
   10.4487   43.2978  131.7510 N   0  0  0  0  0  0  0  0  0  0  0  0
   10.7186   41.9692  131.3819 C   0  0  0  0  0  0  0  0  0  0  0  0
   10.2781   43.7158  132.9730 C   0  0  0  0  0  0  0  0  0  0  0  0
   10.4922   42.5734  133.8026 O   0  0  0  0  0  0  0  0  0  0  0  0
    9.9956   44.7223  133.6644 C   0  0  0  0  0  0  0  0  0  0  0  0
    9.8750   44.8260  135.0639 C   0  0  0  0  0  0  0  0  0  0  0  0
    9.5451   46.2603  135.3876 C   0  0  0  0  0  0  0  0  0  0  0  0
    9.4012   47.1477  134.6451 C   0  0  0  0  0  0  0  0  0  0  0  0
    9.5048   47.0847  133.2028 C   0  0  0  0  0  0  0  0  0  0  0  0
    9.7932   45.8879  132.7561 C   0  0  0  0  0  0  0  0  0  0  0  0
    4.2467   46.6541  129.7624 C   0  0  0  0  0  0  0  0  0  0  0  0
    5.5066   46.8026  129.7504 O   0  0  0  0  0  0  0  0  0  0  0  0
   10.7995   48.3357  130.1602 O   0  0  0  0  0  0  0  0  0  0  0  0
   10.7397   49.5022  130.9870 C   0  0  0  0  0  0  0  0  0  0  0  0
    6.1818   49.1013  128.9188 C   0  0  0  0  0  0  0  0  0  0  0  0
    5.8325   50.3025  129.4607 N   0  0  0  0  0  0  0  0  0  0  0  0
    6.7090   51.3472  128.9756 C   0  0  0  0  0  0  0  0  0  0  0  0
    5.0431   50.6761  130.4956 C   0  0  0  0  0  0  0  0  0  0  0  0
 19 20  1  0  0  0
 20  1  1  0  0  0
  1  2  2  0  0  0
  2  3  1  0  0  0
  3  7  1  0  0  0
  7  8  2  0  0  0
  8  9  1  0  0  0
  9 10  1  0  0  0
  9 11  1  0  0  0
 11 12  2  0  0  0
 11 13  1  0  0  0
 13 14  2  0  0  0
 14 15  1  0  0  0
 15 16  2  0  0  0
 16 17  1  0  0  0
 17 18  2  0  0  0
  3  4  2  0  0  0
  4 21  1  0  0  0
 21 22  1  0  0  0
  4  5  1  0  0  0
  5  6  2  0  0  0
  6 23  1  0  0  0
 23 24  1  0  0  0
 24 25  1  0  0  0
 24 26  1  0  0  0
  6  1  1  0  0  0
 18  7  1  0  0  0
 18 13  1  0  0  0
M  END
> <minimizedAffinity>
-1.48868

> <CNNscore>
0.3753689528

> <CNNaffinity>
7.1036748886

> <CNN_VS>
2.6664988995

> <CNNaffinity_variance>
0.2403993905

$$$$
[H]c1nc([H])c(N([H])C(=O)c2nn(-c3c([H])c([H])c([H])c([H])c3Cl)c(-c3c([H])c([H])c(Cl)c([H])c3[H])c2C([H])([H])C(=O)N([H])[H])c(C([H])([H])[H])c1[H]


 36 39  0  0  0  0  0  0  0  0999 V2000
    8.6873   46.1399  130.2377 C   0  0  0  0  0  0  0  0  0  0  0  0
    9.8415   45.8057  129.6404 N   0  0  0  0  0  0  0  0  0  0  0  0
   10.6413   45.1298  130.4747 N   0  0  0  0  0  0  0  0  0  0  0  0
   10.0193   44.9929  131.6872 C   0  0  0  0  0  0  0  0  0  0  0  0
    8.8027   45.6225  131.5277 C   0  0  0  0  0  0  0  0  0  0  0  0
   11.9224   44.7129  130.0521 C   0  0  0  0  0  0  0  0  0  0  0  0
   12.9468   44.5998  130.9628 C   0  0  0  0  0  0  0  0  0  0  0  0
   14.2311   44.2143  130.5602 C   0  0  0  0  0  0  0  0  0  0  0  0
   14.4967   43.9378  129.2300 C   0  0  0  0  0  0  0  0  0  0  0  0
   13.4709   44.0520  128.3244 C   0  0  0  0  0  0  0  0  0  0  0  0
   12.2091   44.4308  128.7198 C   0  0  0  0  0  0  0  0  0  0  0  0
   10.8929   44.5802  127.5774 Cl  0  0  0  0  0  0  0  0  0  0  0  0
   10.6372   44.4463  132.8851 C   0  0  0  0  0  0  0  0  0  0  0  0
   11.5807   45.0877  133.6469 C   0  0  0  0  0  0  0  0  0  0  0  0
   12.0862   44.6085  134.8487 C   0  0  0  0  0  0  0  0  0  0  0  0
   11.6301   43.4092  135.3334 C   0  0  0  0  0  0  0  0  0  0  0  0
   12.2818   42.8284  136.8473 Cl  0  0  0  0  0  0  0  0  0  0  0  0
   10.6952   42.7273  134.6200 C   0  0  0  0  0  0  0  0  0  0  0  0
   10.1965   43.2265  133.4120 C   0  0  0  0  0  0  0  0  0  0  0  0
    7.2576   48.1465  130.1828 N   0  0  0  0  0  0  0  0  0  0  0  0
    7.5811   46.8880  129.6346 C   0  0  0  0  0  0  0  0  0  0  0  0
    6.9608   46.4240  128.6801 O   0  0  0  0  0  0  0  0  0  0  0  0
    7.8771   48.4381  131.0142 H   0  0  0  0  0  0  0  0  0  0  0  0
    7.8766   50.8518  130.3019 C   0  0  0  0  0  0  0  0  0  0  0  0
    6.5475   50.4203  129.8330 C   0  0  0  0  0  0  0  0  0  0  0  0
    5.6169   51.3662  129.4526 C   0  0  0  0  0  0  0  0  0  0  0  0
    4.3672   51.0054  129.0144 C   0  0  0  0  0  0  0  0  0  0  0  0
    4.0983   49.6980  128.9747 N   0  0  0  0  0  0  0  0  0  0  0  0
    4.9998   48.7337  129.3452 C   0  0  0  0  0  0  0  0  0  0  0  0
    6.2575   49.0454  129.7885 C   0  0  0  0  0  0  0  0  0  0  0  0
    7.6711   45.7039  132.5032 C   0  0  0  0  0  0  0  0  0  0  0  0
    8.2279   46.3735  133.7421 C   0  0  0  0  0  0  0  0  0  0  0  0
    8.8176   47.6393  133.5840 N   0  0  0  0  0  0  0  0  0  0  0  0
    8.1676   45.8303  134.8512 O   0  0  0  0  0  0  0  0  0  0  0  0
    9.6032   47.8396  132.8996 H   0  0  0  0  0  0  0  0  0  0  0  0
    8.5202   48.4956  134.1404 H   0  0  0  0  0  0  0  0  0  0  0  0
 24 25  1  0  0  0
 25 26  2  0  0  0
 26 27  1  0  0  0
 27 28  2  0  0  0
 28 29  1  0  0  0
 29 30  2  0  0  0
 30 20  1  0  0  0
 20 21  1  0  0  0
 21 22  2  0  0  0
 21  1  1  0  0  0
  1  2  2  0  0  0
  2  3  1  0  0  0
  3  6  1  0  0  0
  6  7  2  0  0  0
  7  8  1  0  0  0
  8  9  2  0  0  0
  9 10  1  0  0  0
 10 11  2  0  0  0
 11 12  1  0  0  0
  3  4  1  0  0  0
  4 13  1  0  0  0
 13 14  2  0  0  0
 14 15  1  0  0  0
 15 16  2  0  0  0
 16 17  1  0  0  0
 16 18  1  0  0  0
 18 19  2  0  0  0
  4  5  2  0  0  0
  5 31  1  0  0  0
 31 32  1  0  0  0
 32 33  1  0  0  0
 32 34  2  0  0  0
 30 25  1  0  0  0
  5  1  1  0  0  0
 11  6  1  0  0  0
 19 13  1  0  0  0
 20 23  1  0  0  0
 33 35  1  0  0  0
 33 36  1  0  0  0
M  END
> <minimizedAffinity>
9.29670

> <CNNscore>
0.3365063667

> <CNNaffinity>
7.7123155594

> <CNN_VS>
2.5952432156

> <CNNaffinity_variance>
0.7232007384

$$$$
[H]c1nc([H])c(N([H])C(=O)c2nn(-c3c([H])c([H])c([H])c([H])c3Cl)c(-c3c([H])c([H])c(Cl)c([H])c3[H])c2C([H])([H])C(=O)N([H])[H])c(C([H])([H])[H])c1[H]


 36 39  0  0  0  0  0  0  0  0999 V2000
    9.3599   47.5285  131.3455 C   0  0  0  0  0  0  0  0  0  0  0  0
   10.0718   47.0577  132.3810 N   0  0  0  0  0  0  0  0  0  0  0  0
   10.1688   45.7232  132.3359 N   0  0  0  0  0  0  0  0  0  0  0  0
    9.5023   45.2573  131.2339 C   0  0  0  0  0  0  0  0  0  0  0  0
    9.0053   46.3895  130.6230 C   0  0  0  0  0  0  0  0  0  0  0  0
   10.8511   45.0237  133.3551 C   0  0  0  0  0  0  0  0  0  0  0  0
   10.2671   44.8588  134.5893 C   0  0  0  0  0  0  0  0  0  0  0  0
   10.9376   44.1922  135.6219 C   0  0  0  0  0  0  0  0  0  0  0  0
   12.2090   43.6829  135.4197 C   0  0  0  0  0  0  0  0  0  0  0  0
   12.7880   43.8498  134.1859 C   0  0  0  0  0  0  0  0  0  0  0  0
   12.1294   44.5048  133.1714 C   0  0  0  0  0  0  0  0  0  0  0  0
   12.8546   44.7247  131.5950 Cl  0  0  0  0  0  0  0  0  0  0  0  0
    9.2643   43.8542  130.9338 C   0  0  0  0  0  0  0  0  0  0  0  0
    8.2375   43.1028  131.4465 C   0  0  0  0  0  0  0  0  0  0  0  0
    7.9502   41.7962  131.0726 C   0  0  0  0  0  0  0  0  0  0  0  0
    8.7332   41.1856  130.1264 C   0  0  0  0  0  0  0  0  0  0  0  0
    8.3510   39.5415  129.6735 Cl  0  0  0  0  0  0  0  0  0  0  0  0
    9.7673   41.8812  129.5836 C   0  0  0  0  0  0  0  0  0  0  0  0
   10.0405   43.1973  129.9716 C   0  0  0  0  0  0  0  0  0  0  0  0
    8.0880   49.2156  130.0769 N   0  0  0  0  0  0  0  0  0  0  0  0
    9.0434   48.9335  131.0752 C   0  0  0  0  0  0  0  0  0  0  0  0
    9.5990   49.8309  131.7053 O   0  0  0  0  0  0  0  0  0  0  0  0
    7.6754   48.3418  129.6013 H   0  0  0  0  0  0  0  0  0  0  0  0
    7.4056   49.4319  127.3929 C   0  0  0  0  0  0  0  0  0  0  0  0
    7.2580   50.5948  128.2864 C   0  0  0  0  0  0  0  0  0  0  0  0
    6.7779   51.7869  127.7826 C   0  0  0  0  0  0  0  0  0  0  0  0
    6.6299   52.8937  128.5807 C   0  0  0  0  0  0  0  0  0  0  0  0
    6.9725   52.7594  129.8644 N   0  0  0  0  0  0  0  0  0  0  0  0
    7.4521   51.5901  130.3958 C   0  0  0  0  0  0  0  0  0  0  0  0
    7.6167   50.4606  129.6391 C   0  0  0  0  0  0  0  0  0  0  0  0
    8.2691   46.4893  129.3242 C   0  0  0  0  0  0  0  0  0  0  0  0
    6.7952   46.4796  129.6716 C   0  0  0  0  0  0  0  0  0  0  0  0
    5.9014   46.9901  128.7147 N   0  0  0  0  0  0  0  0  0  0  0  0
    6.3905   46.0403  130.7542 O   0  0  0  0  0  0  0  0  0  0  0  0
    5.9833   47.9605  128.2937 H   0  0  0  0  0  0  0  0  0  0  0  0
    5.0721   46.4404  128.3387 H   0  0  0  0  0  0  0  0  0  0  0  0
 24 25  1  0  0  0
 25 26  2  0  0  0
 26 27  1  0  0  0
 27 28  2  0  0  0
 28 29  1  0  0  0
 29 30  2  0  0  0
 30 20  1  0  0  0
 20 21  1  0  0  0
 21 22  2  0  0  0
 21  1  1  0  0  0
  1  2  2  0  0  0
  2  3  1  0  0  0
  3  6  1  0  0  0
  6  7  2  0  0  0
  7  8  1  0  0  0
  8  9  2  0  0  0
  9 10  1  0  0  0
 10 11  2  0  0  0
 11 12  1  0  0  0
  3  4  1  0  0  0
  4 13  1  0  0  0
 13 14  2  0  0  0
 14 15  1  0  0  0
 15 16  2  0  0  0
 16 17  1  0  0  0
 16 18  1  0  0  0
 18 19  2  0  0  0
  4  5  2  0  0  0
  5 31  1  0  0  0
 31 32  1  0  0  0
 32 33  1  0  0  0
 32 34  2  0  0  0
 30 25  1  0  0  0
  5  1  1  0  0  0
 11  6  1  0  0  0
 19 13  1  0  0  0
 20 23  1  0  0  0
 33 35  1  0  0  0
 33 36  1  0  0  0
M  END
> <minimizedAffinity>
10.96442

> <CNNscore>
0.3298972547

> <CNNaffinity>
7.5721869469

> <CNN_VS>
2.4980437756

> <CNNaffinity_variance>
0.6654556990

$$$$
[H]c1nc([H])c(N([H])C(=O)c2nn(-c3c([H])c([H])c([H])c([H])c3Cl)c(-c3c([H])c([H])c(Cl)c([H])c3[H])c2C([H])([H])C(=O)N([H])[H])c(C([H])([H])[H])c1[H]


 36 39  0  0  0  0  0  0  0  0999 V2000
    9.9729   47.4932  131.4566 C   0  0  0  0  0  0  0  0  0  0  0  0
   10.0085   47.2520  132.7762 N   0  0  0  0  0  0  0  0  0  0  0  0
   10.3453   45.9809  133.0279 N   0  0  0  0  0  0  0  0  0  0  0  0
   10.5489   45.3231  131.8440 C   0  0  0  0  0  0  0  0  0  0  0  0
   10.3175   46.2744  130.8727 C   0  0  0  0  0  0  0  0  0  0  0  0
   10.4071   45.5102  134.3576 C   0  0  0  0  0  0  0  0  0  0  0  0
   11.2235   44.4507  134.6776 C   0  0  0  0  0  0  0  0  0  0  0  0
   11.2790   43.9512  135.9844 C   0  0  0  0  0  0  0  0  0  0  0  0
   10.5087   44.5173  136.9859 C   0  0  0  0  0  0  0  0  0  0  0  0
    9.6952   45.5749  136.6617 C   0  0  0  0  0  0  0  0  0  0  0  0
    9.6406   46.0656  135.3779 C   0  0  0  0  0  0  0  0  0  0  0  0
    8.6091   47.4121  134.9506 Cl  0  0  0  0  0  0  0  0  0  0  0  0
   10.7832   43.8936  131.7132 C   0  0  0  0  0  0  0  0  0  0  0  0
   11.9618   43.2586  132.0120 C   0  0  0  0  0  0  0  0  0  0  0  0
   12.1463   41.8819  131.9903 C   0  0  0  0  0  0  0  0  0  0  0  0
   11.0931   41.0731  131.6471 C   0  0  0  0  0  0  0  0  0  0  0  0
   11.3509   39.3448  131.6273 Cl  0  0  0  0  0  0  0  0  0  0  0  0
    9.8998   41.6468  131.3391 C   0  0  0  0  0  0  0  0  0  0  0  0
    9.7324   43.0355  131.3680 C   0  0  0  0  0  0  0  0  0  0  0  0
    8.2828   49.0110  130.5010 N   0  0  0  0  0  0  0  0  0  0  0  0
    9.6360   48.7664  130.8143 C   0  0  0  0  0  0  0  0  0  0  0  0
   10.5134   49.5893  130.5610 O   0  0  0  0  0  0  0  0  0  0  0  0
    7.6148   48.2120  130.7755 H   0  0  0  0  0  0  0  0  0  0  0  0
    7.3691   48.7133  127.8947 C   0  0  0  0  0  0  0  0  0  0  0  0
    7.2350   50.0121  128.5784 C   0  0  0  0  0  0  0  0  0  0  0  0
    6.6522   51.0749  127.9178 C   0  0  0  0  0  0  0  0  0  0  0  0
    6.5127   52.3014  128.5180 C   0  0  0  0  0  0  0  0  0  0  0  0
    6.9675   52.4141  129.7684 N   0  0  0  0  0  0  0  0  0  0  0  0
    7.5509   51.3787  130.4521 C   0  0  0  0  0  0  0  0  0  0  0  0
    7.7115   50.1380  129.8950 C   0  0  0  0  0  0  0  0  0  0  0  0
   10.4825   46.1399  129.3916 C   0  0  0  0  0  0  0  0  0  0  0  0
    9.4049   45.1808  128.9312 C   0  0  0  0  0  0  0  0  0  0  0  0
    8.0793   45.4740  129.2947 N   0  0  0  0  0  0  0  0  0  0  0  0
    9.6772   44.1778  128.2614 O   0  0  0  0  0  0  0  0  0  0  0  0
    7.7666   45.6329  130.2959 H   0  0  0  0  0  0  0  0  0  0  0  0
    7.2863   45.5590  128.5910 H   0  0  0  0  0  0  0  0  0  0  0  0
 24 25  1  0  0  0
 25 26  2  0  0  0
 26 27  1  0  0  0
 27 28  2  0  0  0
 28 29  1  0  0  0
 29 30  2  0  0  0
 30 20  1  0  0  0
 20 21  1  0  0  0
 21 22  2  0  0  0
 21  1  1  0  0  0
  1  2  2  0  0  0
  2  3  1  0  0  0
  3  6  1  0  0  0
  6  7  2  0  0  0
  7  8  1  0  0  0
  8  9  2  0  0  0
  9 10  1  0  0  0
 10 11  2  0  0  0
 11 12  1  0  0  0
  3  4  1  0  0  0
  4 13  1  0  0  0
 13 14  2  0  0  0
 14 15  1  0  0  0
 15 16  2  0  0  0
 16 17  1  0  0  0
 16 18  1  0  0  0
 18 19  2  0  0  0
  4  5  2  0  0  0
  5 31  1  0  0  0
 31 32  1  0  0  0
 32 33  1  0  0  0
 32 34  2  0  0  0
 30 25  1  0  0  0
  5  1  1  0  0  0
 11  6  1  0  0  0
 19 13  1  0  0  0
 20 23  1  0  0  0
 33 35  1  0  0  0
 33 36  1  0  0  0
M  END
> <minimizedAffinity>
9.45484

> <CNNscore>
0.3288407922

> <CNNaffinity>
7.7312049866

> <CNN_VS>
2.5423355103

> <CNNaffinity_variance>
1.0269185305

$$$$
[H]c1nc([H])c(N([H])C(=O)c2nn(-c3c([H])c([H])c([H])c([H])c3Cl)c(-c3c([H])c([H])c(Cl)c([H])c3[H])c2C([H])([H])C(=O)N([H])[H])c(C([H])([H])[H])c1[H]


 36 39  0  0  0  0  0  0  0  0999 V2000
    9.5429   47.4016  131.0106 C   0  0  0  0  0  0  0  0  0  0  0  0
    9.2856   46.2149  130.4395 N   0  0  0  0  0  0  0  0  0  0  0  0
    9.5703   45.2048  131.2708 N   0  0  0  0  0  0  0  0  0  0  0  0
   10.0393   45.7102  132.4542 C   0  0  0  0  0  0  0  0  0  0  0  0
   10.0153   47.0784  132.2825 C   0  0  0  0  0  0  0  0  0  0  0  0
    9.4022   43.8674  130.8506 C   0  0  0  0  0  0  0  0  0  0  0  0
    8.2724   43.1686  131.2068 C   0  0  0  0  0  0  0  0  0  0  0  0
    8.0988   41.8333  130.8234 C   0  0  0  0  0  0  0  0  0  0  0  0
    9.0665   41.1863  130.0741 C   0  0  0  0  0  0  0  0  0  0  0  0
   10.1927   41.8878  129.7208 C   0  0  0  0  0  0  0  0  0  0  0  0
   10.3635   43.1997  130.0975 C   0  0  0  0  0  0  0  0  0  0  0  0
   11.7927   44.1056  129.6546 Cl  0  0  0  0  0  0  0  0  0  0  0  0
   10.5881   44.9157  133.5419 C   0  0  0  0  0  0  0  0  0  0  0  0
   11.8394   44.3538  133.5526 C   0  0  0  0  0  0  0  0  0  0  0  0
   12.3991   43.6899  134.6369 C   0  0  0  0  0  0  0  0  0  0  0  0
   11.6716   43.5696  135.7934 C   0  0  0  0  0  0  0  0  0  0  0  0
   12.3981   42.7299  137.1429 Cl  0  0  0  0  0  0  0  0  0  0  0  0
   10.4234   44.1059  135.8409 C   0  0  0  0  0  0  0  0  0  0  0  0
    9.8767   44.7725  134.7391 C   0  0  0  0  0  0  0  0  0  0  0  0
    8.0417   49.1786  130.1968 N   0  0  0  0  0  0  0  0  0  0  0  0
    9.3602   48.7197  130.3970 C   0  0  0  0  0  0  0  0  0  0  0  0
   10.3330   49.3967  130.0708 O   0  0  0  0  0  0  0  0  0  0  0  0
    7.2805   48.4919  130.5267 H   0  0  0  0  0  0  0  0  0  0  0  0
    7.2996   49.1383  127.5202 C   0  0  0  0  0  0  0  0  0  0  0  0
    7.2205   50.3942  128.2877 C   0  0  0  0  0  0  0  0  0  0  0  0
    6.7745   51.5453  127.6700 C   0  0  0  0  0  0  0  0  0  0  0  0
    6.6904   52.7354  128.3487 C   0  0  0  0  0  0  0  0  0  0  0  0
    7.0603   52.7234  129.6317 N   0  0  0  0  0  0  0  0  0  0  0  0
    7.5074   51.5978  130.2744 C   0  0  0  0  0  0  0  0  0  0  0  0
    7.6083   50.3889  129.6390 C   0  0  0  0  0  0  0  0  0  0  0  0
   10.3352   48.1401  133.2871 C   0  0  0  0  0  0  0  0  0  0  0  0
    9.0110   48.5755  133.8788 C   0  0  0  0  0  0  0  0  0  0  0  0
    8.5109   47.8330  134.9621 N   0  0  0  0  0  0  0  0  0  0  0  0
    8.3913   49.5460  133.4285 O   0  0  0  0  0  0  0  0  0  0  0  0
    8.3624   46.7829  134.9355 H   0  0  0  0  0  0  0  0  0  0  0  0
    8.2423   48.2692  135.8943 H   0  0  0  0  0  0  0  0  0  0  0  0
 24 25  1  0  0  0
 25 26  2  0  0  0
 26 27  1  0  0  0
 27 28  2  0  0  0
 28 29  1  0  0  0
 29 30  2  0  0  0
 30 20  1  0  0  0
 20 21  1  0  0  0
 21 22  2  0  0  0
 21  1  1  0  0  0
  1  2  2  0  0  0
  2  3  1  0  0  0
  3  6  1  0  0  0
  6  7  2  0  0  0
  7  8  1  0  0  0
  8  9  2  0  0  0
  9 10  1  0  0  0
 10 11  2  0  0  0
 11 12  1  0  0  0
  3  4  1  0  0  0
  4 13  1  0  0  0
 13 14  2  0  0  0
 14 15  1  0  0  0
 15 16  2  0  0  0
 16 17  1  0  0  0
 16 18  1  0  0  0
 18 19  2  0  0  0
  4  5  2  0  0  0
  5 31  1  0  0  0
 31 32  1  0  0  0
 32 33  1  0  0  0
 32 34  2  0  0  0
 30 25  1  0  0  0
  5  1  1  0  0  0
 11  6  1  0  0  0
 19 13  1  0  0  0
 20 23  1  0  0  0
 33 35  1  0  0  0
 33 36  1  0  0  0
M  END
> <minimizedAffinity>
12.23836

> <CNNscore>
0.3220096231

> <CNNaffinity>
7.5297636986

> <CNN_VS>
2.4246563911

> <CNNaffinity_variance>
0.8508508801

$$$$
[H]c1nc([H])c(N([H])C(=O)c2nn(-c3c([H])c([H])c([H])c([H])c3Cl)c(-c3c([H])c([H])c(Cl)c([H])c3[H])c2C([H])([H])C(=O)N([H])[H])c(C([H])([H])[H])c1[H]


 36 39  0  0  0  0  0  0  0  0999 V2000
    9.2183   48.0123  130.6566 C   0  0  0  0  0  0  0  0  0  0  0  0
    9.9448   47.5817  131.6994 N   0  0  0  0  0  0  0  0  0  0  0  0
   10.0634   46.2482  131.6901 N   0  0  0  0  0  0  0  0  0  0  0  0
    9.3975   45.7415  130.6059 C   0  0  0  0  0  0  0  0  0  0  0  0
    8.8778   46.8482  129.9679 C   0  0  0  0  0  0  0  0  0  0  0  0
   10.7640   45.5881  132.7231 C   0  0  0  0  0  0  0  0  0  0  0  0
   12.0761   45.2184  132.5406 C   0  0  0  0  0  0  0  0  0  0  0  0
   12.7805   44.5390  133.5419 C   0  0  0  0  0  0  0  0  0  0  0  0
   12.1666   44.2242  134.7421 C   0  0  0  0  0  0  0  0  0  0  0  0
   10.8566   44.5953  134.9198 C   0  0  0  0  0  0  0  0  0  0  0  0
   10.1644   45.2626  133.9362 C   0  0  0  0  0  0  0  0  0  0  0  0
    8.4956   45.7416  134.1487 Cl  0  0  0  0  0  0  0  0  0  0  0  0
    9.1807   44.3269  130.3460 C   0  0  0  0  0  0  0  0  0  0  0  0
    9.8439   43.5902  129.3977 C   0  0  0  0  0  0  0  0  0  0  0  0
    9.7127   42.2178  129.2278 C   0  0  0  0  0  0  0  0  0  0  0  0
    8.8646   41.5219  130.0510 C   0  0  0  0  0  0  0  0  0  0  0  0
    8.7172   39.7963  129.8168 Cl  0  0  0  0  0  0  0  0  0  0  0  0
    8.1788   42.1998  131.0092 C   0  0  0  0  0  0  0  0  0  0  0  0
    8.3251   43.5822  131.1664 C   0  0  0  0  0  0  0  0  0  0  0  0
    8.0064   49.6481  129.2678 N   0  0  0  0  0  0  0  0  0  0  0  0
    8.8768   49.4039  130.3503 C   0  0  0  0  0  0  0  0  0  0  0  0
    9.3400   50.3228  131.0227 O   0  0  0  0  0  0  0  0  0  0  0  0
    7.6707   48.7586  128.7620 H   0  0  0  0  0  0  0  0  0  0  0  0
    5.9495   50.8568  130.6906 C   0  0  0  0  0  0  0  0  0  0  0  0
    6.4956   51.5099  129.4874 C   0  0  0  0  0  0  0  0  0  0  0  0
    5.9813   52.7228  129.0754 C   0  0  0  0  0  0  0  0  0  0  0  0
    6.4595   53.3609  127.9582 C   0  0  0  0  0  0  0  0  0  0  0  0
    7.4437   52.7513  127.2925 N   0  0  0  0  0  0  0  0  0  0  0  0
    7.9763   51.5472  127.6751 C   0  0  0  0  0  0  0  0  0  0  0  0
    7.5319   50.8739  128.7817 C   0  0  0  0  0  0  0  0  0  0  0  0
    8.1314   46.9004  128.6721 C   0  0  0  0  0  0  0  0  0  0  0  0
    6.6645   47.0070  129.0329 C   0  0  0  0  0  0  0  0  0  0  0  0
    6.2368   46.3559  130.2026 N   0  0  0  0  0  0  0  0  0  0  0  0
    5.8714   47.6416  128.3279 O   0  0  0  0  0  0  0  0  0  0  0  0
    6.3968   45.3244  130.3923 H   0  0  0  0  0  0  0  0  0  0  0  0
    5.7183   46.8496  130.9892 H   0  0  0  0  0  0  0  0  0  0  0  0
 24 25  1  0  0  0
 25 26  2  0  0  0
 26 27  1  0  0  0
 27 28  2  0  0  0
 28 29  1  0  0  0
 29 30  2  0  0  0
 30 20  1  0  0  0
 20 21  1  0  0  0
 21 22  2  0  0  0
 21  1  1  0  0  0
  1  2  2  0  0  0
  2  3  1  0  0  0
  3  6  1  0  0  0
  6  7  2  0  0  0
  7  8  1  0  0  0
  8  9  2  0  0  0
  9 10  1  0  0  0
 10 11  2  0  0  0
 11 12  1  0  0  0
  3  4  1  0  0  0
  4 13  1  0  0  0
 13 14  2  0  0  0
 14 15  1  0  0  0
 15 16  2  0  0  0
 16 17  1  0  0  0
 16 18  1  0  0  0
 18 19  2  0  0  0
  4  5  2  0  0  0
  5 31  1  0  0  0
 31 32  1  0  0  0
 32 33  1  0  0  0
 32 34  2  0  0  0
 30 25  1  0  0  0
  5  1  1  0  0  0
 11  6  1  0  0  0
 19 13  1  0  0  0
 20 23  1  0  0  0
 33 35  1  0  0  0
 33 36  1  0  0  0
M  END
> <minimizedAffinity>
10.33094

> <CNNscore>
0.2765063941

> <CNNaffinity>
7.6212186813

> <CNN_VS>
2.1073157787

> <CNNaffinity_variance>
0.2122112811

$$$$
[H]c1nc([H])c(N([H])C(=O)c2nn(-c3c([H])c([H])c([H])c([H])c3Cl)c(-c3c([H])c([H])c(Cl)c([H])c3[H])c2C([H])([H])C(=O)N([H])[H])c(C([H])([H])[H])c1[H]


 36 39  0  0  0  0  0  0  0  0999 V2000
    9.2845   47.8116  130.6465 C   0  0  0  0  0  0  0  0  0  0  0  0
    9.9978   47.3663  131.6922 N   0  0  0  0  0  0  0  0  0  0  0  0
   10.0882   46.0305  131.6839 N   0  0  0  0  0  0  0  0  0  0  0  0
    9.4157   45.5375  130.5975 C   0  0  0  0  0  0  0  0  0  0  0  0
    8.9219   46.6546  129.9570 C   0  0  0  0  0  0  0  0  0  0  0  0
   10.7708   45.3562  132.7198 C   0  0  0  0  0  0  0  0  0  0  0  0
   10.2395   45.3209  133.9878 C   0  0  0  0  0  0  0  0  0  0  0  0
   10.9133   44.6810  135.0352 C   0  0  0  0  0  0  0  0  0  0  0  0
   12.1346   44.0679  134.8137 C   0  0  0  0  0  0  0  0  0  0  0  0
   12.6611   44.1058  133.5461 C   0  0  0  0  0  0  0  0  0  0  0  0
   11.9993   44.7344  132.5172 C   0  0  0  0  0  0  0  0  0  0  0  0
   12.6580   44.7903  130.8977 Cl  0  0  0  0  0  0  0  0  0  0  0  0
    9.1700   44.1277  130.3373 C   0  0  0  0  0  0  0  0  0  0  0  0
    9.8360   43.3713  129.4066 C   0  0  0  0  0  0  0  0  0  0  0  0
    9.6748   42.0019  129.2383 C   0  0  0  0  0  0  0  0  0  0  0  0
    8.7914   41.3302  130.0444 C   0  0  0  0  0  0  0  0  0  0  0  0
    8.6068   39.6079  129.8125 Cl  0  0  0  0  0  0  0  0  0  0  0  0
    8.1012   42.0284  130.9846 C   0  0  0  0  0  0  0  0  0  0  0  0
    8.2780   43.4074  131.1406 C   0  0  0  0  0  0  0  0  0  0  0  0
    8.0074   49.4689  129.3442 N   0  0  0  0  0  0  0  0  0  0  0  0
    8.9737   49.2100  130.3384 C   0  0  0  0  0  0  0  0  0  0  0  0
    9.5433   50.1220  130.9343 O   0  0  0  0  0  0  0  0  0  0  0  0
    7.5831   48.5842  128.9002 H   0  0  0  0  0  0  0  0  0  0  0  0
    5.9911   50.6912  130.8128 C   0  0  0  0  0  0  0  0  0  0  0  0
    6.5230   51.3465  129.6044 C   0  0  0  0  0  0  0  0  0  0  0  0
    6.0156   52.5683  129.2104 C   0  0  0  0  0  0  0  0  0  0  0  0
    6.4810   53.2089  128.0892 C   0  0  0  0  0  0  0  0  0  0  0  0
    7.4456   52.5927  127.4014 N   0  0  0  0  0  0  0  0  0  0  0  0
    7.9708   51.3797  127.7658 C   0  0  0  0  0  0  0  0  0  0  0  0
    7.5387   50.7036  128.8755 C   0  0  0  0  0  0  0  0  0  0  0  0
    8.1816   46.7220  128.6585 C   0  0  0  0  0  0  0  0  0  0  0  0
    6.7224   46.9174  129.0131 C   0  0  0  0  0  0  0  0  0  0  0  0
    6.2648   46.3417  130.2107 N   0  0  0  0  0  0  0  0  0  0  0  0
    5.9606   47.5580  128.2797 O   0  0  0  0  0  0  0  0  0  0  0  0
    6.3738   45.3132  130.4469 H   0  0  0  0  0  0  0  0  0  0  0  0
    5.7726   46.8955  130.9739 H   0  0  0  0  0  0  0  0  0  0  0  0
 24 25  1  0  0  0
 25 26  2  0  0  0
 26 27  1  0  0  0
 27 28  2  0  0  0
 28 29  1  0  0  0
 29 30  2  0  0  0
 30 20  1  0  0  0
 20 21  1  0  0  0
 21 22  2  0  0  0
 21  1  1  0  0  0
  1  2  2  0  0  0
  2  3  1  0  0  0
  3  6  1  0  0  0
  6  7  2  0  0  0
  7  8  1  0  0  0
  8  9  2  0  0  0
  9 10  1  0  0  0
 10 11  2  0  0  0
 11 12  1  0  0  0
  3  4  1  0  0  0
  4 13  1  0  0  0
 13 14  2  0  0  0
 14 15  1  0  0  0
 15 16  2  0  0  0
 16 17  1  0  0  0
 16 18  1  0  0  0
 18 19  2  0  0  0
  4  5  2  0  0  0
  5 31  1  0  0  0
 31 32  1  0  0  0
 32 33  1  0  0  0
 32 34  2  0  0  0
 30 25  1  0  0  0
  5  1  1  0  0  0
 11  6  1  0  0  0
 19 13  1  0  0  0
 20 23  1  0  0  0
 33 35  1  0  0  0
 33 36  1  0  0  0
M  END
> <minimizedAffinity>
10.50287

> <CNNscore>
0.2756901681

> <CNNaffinity>
7.5976934433

> <CNN_VS>
2.0946094990

> <CNNaffinity_variance>
0.2530025840

$$$$
[H]c1nc([H])c(N([H])C(=O)c2nn(-c3c([H])c([H])c([H])c([H])c3Cl)c(-c3c([H])c([H])c(Cl)c([H])c3[H])c2C([H])([H])C(=O)N([H])[H])c(C([H])([H])[H])c1[H]


 36 39  0  0  0  0  0  0  0  0999 V2000
    8.7787   46.1394  130.8598 C   0  0  0  0  0  0  0  0  0  0  0  0
    9.2390   45.7459  132.0573 N   0  0  0  0  0  0  0  0  0  0  0  0
   10.4721   45.2338  131.9583 N   0  0  0  0  0  0  0  0  0  0  0  0
   10.8763   45.2750  130.6504 C   0  0  0  0  0  0  0  0  0  0  0  0
    9.8161   45.8432  129.9759 C   0  0  0  0  0  0  0  0  0  0  0  0
   11.1273   44.7279  133.1022 C   0  0  0  0  0  0  0  0  0  0  0  0
   12.2540   45.3518  133.5848 C   0  0  0  0  0  0  0  0  0  0  0  0
   12.9342   44.8509  134.7013 C   0  0  0  0  0  0  0  0  0  0  0  0
   12.4836   43.7112  135.3451 C   0  0  0  0  0  0  0  0  0  0  0  0
   11.3584   43.0917  134.8597 C   0  0  0  0  0  0  0  0  0  0  0  0
   10.6901   43.5837  133.7628 C   0  0  0  0  0  0  0  0  0  0  0  0
    9.2556   42.8051  133.1337 Cl  0  0  0  0  0  0  0  0  0  0  0  0
   12.0961   44.6737  130.1345 C   0  0  0  0  0  0  0  0  0  0  0  0
   12.6055   44.8814  128.8779 C   0  0  0  0  0  0  0  0  0  0  0  0
   13.8259   44.3932  128.4285 C   0  0  0  0  0  0  0  0  0  0  0  0
   14.5988   43.6444  129.2789 C   0  0  0  0  0  0  0  0  0  0  0  0
   16.1297   43.0419  128.6894 Cl  0  0  0  0  0  0  0  0  0  0  0  0
   14.1442   43.4043  130.5373 C   0  0  0  0  0  0  0  0  0  0  0  0
   12.9129   43.9058  130.9728 C   0  0  0  0  0  0  0  0  0  0  0  0
    7.4349   48.0600  130.0988 N   0  0  0  0  0  0  0  0  0  0  0  0
    7.4691   46.7367  130.5853 C   0  0  0  0  0  0  0  0  0  0  0  0
    6.4380   46.0951  130.7763 O   0  0  0  0  0  0  0  0  0  0  0  0
    8.4056   48.5096  129.9742 H   0  0  0  0  0  0  0  0  0  0  0  0
    7.6403   50.7950  130.5385 C   0  0  0  0  0  0  0  0  0  0  0  0
    6.4035   50.2316  129.9681 C   0  0  0  0  0  0  0  0  0  0  0  0
    5.3529   51.0696  129.6530 C   0  0  0  0  0  0  0  0  0  0  0  0
    4.1831   50.5836  129.1243 C   0  0  0  0  0  0  0  0  0  0  0  0
    4.1132   49.2642  128.9309 N   0  0  0  0  0  0  0  0  0  0  0  0
    5.1381   48.4050  129.2329 C   0  0  0  0  0  0  0  0  0  0  0  0
    6.3229   48.8433  129.7617 C   0  0  0  0  0  0  0  0  0  0  0  0
    9.7364   46.2164  128.5290 C   0  0  0  0  0  0  0  0  0  0  0  0
    9.6242   44.9154  127.7622 C   0  0  0  0  0  0  0  0  0  0  0  0
    8.6087   44.0231  128.1466 N   0  0  0  0  0  0  0  0  0  0  0  0
   10.3945   44.6456  126.8335 O   0  0  0  0  0  0  0  0  0  0  0  0
    8.4883   43.6622  129.1370 H   0  0  0  0  0  0  0  0  0  0  0  0
    7.8813   43.6406  127.4714 H   0  0  0  0  0  0  0  0  0  0  0  0
 24 25  1  0  0  0
 25 26  2  0  0  0
 26 27  1  0  0  0
 27 28  2  0  0  0
 28 29  1  0  0  0
 29 30  2  0  0  0
 30 20  1  0  0  0
 20 21  1  0  0  0
 21 22  2  0  0  0
 21  1  1  0  0  0
  1  2  2  0  0  0
  2  3  1  0  0  0
  3  6  1  0  0  0
  6  7  2  0  0  0
  7  8  1  0  0  0
  8  9  2  0  0  0
  9 10  1  0  0  0
 10 11  2  0  0  0
 11 12  1  0  0  0
  3  4  1  0  0  0
  4 13  1  0  0  0
 13 14  2  0  0  0
 14 15  1  0  0  0
 15 16  2  0  0  0
 16 17  1  0  0  0
 16 18  1  0  0  0
 18 19  2  0  0  0
  4  5  2  0  0  0
  5 31  1  0  0  0
 31 32  1  0  0  0
 32 33  1  0  0  0
 32 34  2  0  0  0
 30 25  1  0  0  0
  5  1  1  0  0  0
 11  6  1  0  0  0
 19 13  1  0  0  0
 20 23  1  0  0  0
 33 35  1  0  0  0
 33 36  1  0  0  0
M  END
> <minimizedAffinity>
11.12416

> <CNNscore>
0.2347984463

> <CNNaffinity>
7.5056037903

> <CNN_VS>
1.7623040676

> <CNNaffinity_variance>
0.5223817825

$$$$
[H]c1nc([H])c(N([H])C(=O)c2nn(-c3c([H])c([H])c([H])c([H])c3Cl)c(-c3c([H])c([H])c(Cl)c([H])c3[H])c2C([H])([H])C(=O)N([H])[H])c(C([H])([H])[H])c1[H]


 36 39  0  0  0  0  0  0  0  0999 V2000
   11.4179   45.9717  132.9568 C   0  0  0  0  0  0  0  0  0  0  0  0
   11.4613   45.1053  131.9330 N   0  0  0  0  0  0  0  0  0  0  0  0
   10.5163   45.3798  131.0251 N   0  0  0  0  0  0  0  0  0  0  0  0
    9.7972   46.4709  131.4352 C   0  0  0  0  0  0  0  0  0  0  0  0
   10.3686   46.8331  132.6370 C   0  0  0  0  0  0  0  0  0  0  0  0
   10.3682   44.5642  129.8821 C   0  0  0  0  0  0  0  0  0  0  0  0
   10.9717   44.9187  128.6982 C   0  0  0  0  0  0  0  0  0  0  0  0
   10.8152   44.1385  127.5463 C   0  0  0  0  0  0  0  0  0  0  0  0
   10.0455   42.9882  127.5765 C   0  0  0  0  0  0  0  0  0  0  0  0
    9.4448   42.6382  128.7606 C   0  0  0  0  0  0  0  0  0  0  0  0
    9.5984   43.4048  129.8923 C   0  0  0  0  0  0  0  0  0  0  0  0
    8.8395   42.9711  131.4074 Cl  0  0  0  0  0  0  0  0  0  0  0  0
    8.5980   46.9731  130.7831 C   0  0  0  0  0  0  0  0  0  0  0  0
    8.5409   48.0962  129.9975 C   0  0  0  0  0  0  0  0  0  0  0  0
    7.4199   48.5097  129.2889 C   0  0  0  0  0  0  0  0  0  0  0  0
    6.2717   47.7630  129.3619 C   0  0  0  0  0  0  0  0  0  0  0  0
    4.8755   48.3046  128.4612 Cl  0  0  0  0  0  0  0  0  0  0  0  0
    6.2685   46.6394  130.1269 C   0  0  0  0  0  0  0  0  0  0  0  0
    7.4078   46.2377  130.8325 C   0  0  0  0  0  0  0  0  0  0  0  0
   13.0204   47.1477  134.4137 N   0  0  0  0  0  0  0  0  0  0  0  0
   12.2926   45.9728  134.1324 C   0  0  0  0  0  0  0  0  0  0  0  0
   12.3818   44.9752  134.8451 O   0  0  0  0  0  0  0  0  0  0  0  0
   12.8525   47.9490  133.7140 H   0  0  0  0  0  0  0  0  0  0  0  0
   12.5524   49.4167  135.9462 C   0  0  0  0  0  0  0  0  0  0  0  0
   13.6920   48.5369  136.2618 C   0  0  0  0  0  0  0  0  0  0  0  0
   14.5206   48.8459  137.3218 C   0  0  0  0  0  0  0  0  0  0  0  0
   15.5945   48.0547  137.6453 C   0  0  0  0  0  0  0  0  0  0  0  0
   15.7964   46.9750  136.8859 N   0  0  0  0  0  0  0  0  0  0  0  0
   14.9926   46.6402  135.8269 C   0  0  0  0  0  0  0  0  0  0  0  0
   13.9106   47.3984  135.4666 C   0  0  0  0  0  0  0  0  0  0  0  0
   10.0445   48.0166  133.4932 C   0  0  0  0  0  0  0  0  0  0  0  0
   10.2134   49.2358  132.6110 C   0  0  0  0  0  0  0  0  0  0  0  0
    9.5034   50.3953  132.9668 N   0  0  0  0  0  0  0  0  0  0  0  0
   10.9466   49.2152  131.6157 O   0  0  0  0  0  0  0  0  0  0  0  0
    8.4527   50.4191  133.1117 H   0  0  0  0  0  0  0  0  0  0  0  0
    9.9673   51.3404  133.1181 H   0  0  0  0  0  0  0  0  0  0  0  0
 24 25  1  0  0  0
 25 26  2  0  0  0
 26 27  1  0  0  0
 27 28  2  0  0  0
 28 29  1  0  0  0
 29 30  2  0  0  0
 30 20  1  0  0  0
 20 21  1  0  0  0
 21 22  2  0  0  0
 21  1  1  0  0  0
  1  2  2  0  0  0
  2  3  1  0  0  0
  3  6  1  0  0  0
  6  7  2  0  0  0
  7  8  1  0  0  0
  8  9  2  0  0  0
  9 10  1  0  0  0
 10 11  2  0  0  0
 11 12  1  0  0  0
  3  4  1  0  0  0
  4 13  1  0  0  0
 13 14  2  0  0  0
 14 15  1  0  0  0
 15 16  2  0  0  0
 16 17  1  0  0  0
 16 18  1  0  0  0
 18 19  2  0  0  0
  4  5  2  0  0  0
  5 31  1  0  0  0
 31 32  1  0  0  0
 32 33  1  0  0  0
 32 34  2  0  0  0
 30 25  1  0  0  0
  5  1  1  0  0  0
 11  6  1  0  0  0
 19 13  1  0  0  0
 20 23  1  0  0  0
 33 35  1  0  0  0
 33 36  1  0  0  0
M  END
> <minimizedAffinity>
10.04496

> <CNNscore>
0.2091206163

> <CNNaffinity>
7.5911178589

> <CNN_VS>
1.5874592066

> <CNNaffinity_variance>
0.7211357355

$$$$
[H]c1nc([H])c(N([H])C(=O)c2nn(-c3c([H])c([H])c([H])c([H])c3Cl)c(-c3c([H])c([H])c(Cl)c([H])c3[H])c2C([H])([H])C(=O)N([H])[H])c(C([H])([H])[H])c1[H]


 36 39  0  0  0  0  0  0  0  0999 V2000
   11.7049   45.9035  132.9128 C   0  0  0  0  0  0  0  0  0  0  0  0
   11.6984   45.0592  131.8699 N   0  0  0  0  0  0  0  0  0  0  0  0
   10.7093   45.3509  131.0160 N   0  0  0  0  0  0  0  0  0  0  0  0
   10.0103   46.4315  131.4843 C   0  0  0  0  0  0  0  0  0  0  0  0
   10.6402   46.7693  132.6638 C   0  0  0  0  0  0  0  0  0  0  0  0
   10.5056   44.5594  129.8646 C   0  0  0  0  0  0  0  0  0  0  0  0
   11.0487   44.9406  128.6599 C   0  0  0  0  0  0  0  0  0  0  0  0
   10.8361   44.1846  127.5008 C   0  0  0  0  0  0  0  0  0  0  0  0
   10.0705   43.0320  127.5448 C   0  0  0  0  0  0  0  0  0  0  0  0
    9.5303   42.6554  128.7497 C   0  0  0  0  0  0  0  0  0  0  0  0
    9.7390   43.3980  129.8884 C   0  0  0  0  0  0  0  0  0  0  0  0
    9.0573   42.9303  131.4299 Cl  0  0  0  0  0  0  0  0  0  0  0  0
    8.7798   46.9450  130.9033 C   0  0  0  0  0  0  0  0  0  0  0  0
    8.6537   48.1550  130.2694 C   0  0  0  0  0  0  0  0  0  0  0  0
    7.5058   48.5924  129.6208 C   0  0  0  0  0  0  0  0  0  0  0  0
    6.4018   47.7787  129.5973 C   0  0  0  0  0  0  0  0  0  0  0  0
    4.9704   48.3521  128.7749 Cl  0  0  0  0  0  0  0  0  0  0  0  0
    6.4676   46.5674  130.2107 C   0  0  0  0  0  0  0  0  0  0  0  0
    7.6331   46.1432  130.8578 C   0  0  0  0  0  0  0  0  0  0  0  0
   13.1387   47.1140  134.5105 N   0  0  0  0  0  0  0  0  0  0  0  0
   12.6368   45.8816  134.0434 C   0  0  0  0  0  0  0  0  0  0  0  0
   12.9643   44.8161  134.5618 O   0  0  0  0  0  0  0  0  0  0  0  0
   12.7732   47.9720  133.9718 H   0  0  0  0  0  0  0  0  0  0  0  0
   12.6916   49.3901  136.0387 C   0  0  0  0  0  0  0  0  0  0  0  0
   13.8211   48.4987  136.3581 C   0  0  0  0  0  0  0  0  0  0  0  0
   14.6506   48.8004  137.4194 C   0  0  0  0  0  0  0  0  0  0  0  0
   15.7154   47.9982  137.7464 C   0  0  0  0  0  0  0  0  0  0  0  0
   15.9074   46.9154  136.9890 N   0  0  0  0  0  0  0  0  0  0  0  0
   15.1023   46.5876  135.9287 C   0  0  0  0  0  0  0  0  0  0  0  0
   14.0292   47.3568  135.5649 C   0  0  0  0  0  0  0  0  0  0  0  0
   10.3578   47.9338  133.5599 C   0  0  0  0  0  0  0  0  0  0  0  0
    9.2290   47.5015  134.4721 C   0  0  0  0  0  0  0  0  0  0  0  0
    9.4099   46.3192  135.2100 N   0  0  0  0  0  0  0  0  0  0  0  0
    8.1873   48.1609  134.5664 O   0  0  0  0  0  0  0  0  0  0  0  0
    9.6577   45.3855  134.7713 H   0  0  0  0  0  0  0  0  0  0  0  0
    9.3116   46.2705  136.2679 H   0  0  0  0  0  0  0  0  0  0  0  0
 24 25  1  0  0  0
 25 26  2  0  0  0
 26 27  1  0  0  0
 27 28  2  0  0  0
 28 29  1  0  0  0
 29 30  2  0  0  0
 30 20  1  0  0  0
 20 21  1  0  0  0
 21 22  2  0  0  0
 21  1  1  0  0  0
  1  2  2  0  0  0
  2  3  1  0  0  0
  3  6  1  0  0  0
  6  7  2  0  0  0
  7  8  1  0  0  0
  8  9  2  0  0  0
  9 10  1  0  0  0
 10 11  2  0  0  0
 11 12  1  0  0  0
  3  4  1  0  0  0
  4 13  1  0  0  0
 13 14  2  0  0  0
 14 15  1  0  0  0
 15 16  2  0  0  0
 16 17  1  0  0  0
 16 18  1  0  0  0
 18 19  2  0  0  0
  4  5  2  0  0  0
  5 31  1  0  0  0
 31 32  1  0  0  0
 32 33  1  0  0  0
 32 34  2  0  0  0
 30 25  1  0  0  0
  5  1  1  0  0  0
 11  6  1  0  0  0
 19 13  1  0  0  0
 20 23  1  0  0  0
 33 35  1  0  0  0
 33 36  1  0  0  0
M  END
> <minimizedAffinity>
9.69516

> <CNNscore>
0.1734266132

> <CNNaffinity>
7.5894165039

> <CNN_VS>
1.3162068129

> <CNNaffinity_variance>
0.5212307572

$$$$
[H]OC([H])([H])C([H])([H])n1c(C2([H])C([H])([H])C([H])([H])N(c3nc([H])nc(N([H])[H])c3C#N)C([H])([H])C2([H])[H])nc(-c2c([H])c([H])c(F)c(C([H])([H])[H])c2[H])c1[H]


 34 37  0  0  0  0  0  0  0  0999 V2000
    7.7085   49.3293  128.8450 C   0  0  0  0  0  0  0  0  0  0  0  0
    7.0797   48.2223  128.3258 C   0  0  0  0  0  0  0  0  0  0  0  0
    7.6485   47.1261  128.9207 N   0  0  0  0  0  0  0  0  0  0  0  0
    8.5913   47.5341  129.7738 C   0  0  0  0  0  0  0  0  0  0  0  0
    8.6099   48.8753  129.7111 N   0  0  0  0  0  0  0  0  0  0  0  0
    7.7719   53.1674  125.6397 C   0  0  0  0  0  0  0  0  0  0  0  0
    7.4315   52.5756  126.9568 C   0  0  0  0  0  0  0  0  0  0  0  0
    7.7294   51.2488  127.2691 C   0  0  0  0  0  0  0  0  0  0  0  0
    7.4119   50.7103  128.4866 C   0  0  0  0  0  0  0  0  0  0  0  0
    6.7833   51.4993  129.4243 C   0  0  0  0  0  0  0  0  0  0  0  0
    6.4760   52.8157  129.1439 C   0  0  0  0  0  0  0  0  0  0  0  0
    6.8019   53.3531  127.9061 C   0  0  0  0  0  0  0  0  0  0  0  0
    6.4784   54.6616  127.6722 F   0  0  0  0  0  0  0  0  0  0  0  0
    9.4517   46.7083  130.6178 C   0  0  0  0  0  0  0  0  0  0  0  0
    8.6440   45.8881  131.6052 C   0  0  0  0  0  0  0  0  0  0  0  0
    9.5829   44.7986  132.0594 C   0  0  0  0  0  0  0  0  0  0  0  0
   10.7284   45.4227  132.7606 N   0  0  0  0  0  0  0  0  0  0  0  0
   11.3576   46.5534  132.1717 C   0  0  0  0  0  0  0  0  0  0  0  0
   10.3853   47.5270  131.4841 C   0  0  0  0  0  0  0  0  0  0  0  0
   11.0447   44.8078  133.9979 C   0  0  0  0  0  0  0  0  0  0  0  0
   11.9829   43.8102  134.0600 N   0  0  0  0  0  0  0  0  0  0  0  0
   12.2765   43.1844  135.2025 C   0  0  0  0  0  0  0  0  0  0  0  0
   11.6701   43.4981  136.3484 N   0  0  0  0  0  0  0  0  0  0  0  0
   10.7419   44.4639  136.3669 C   0  0  0  0  0  0  0  0  0  0  0  0
   10.0617   44.8390  137.5679 N   0  0  0  0  0  0  0  0  0  0  0  0
   10.4306   45.1266  135.1622 C   0  0  0  0  0  0  0  0  0  0  0  0
    9.3774   44.1637  138.0088 H   0  0  0  0  0  0  0  0  0  0  0  0
   10.2019   45.7521  138.0418 H   0  0  0  0  0  0  0  0  0  0  0  0
    9.4566   46.1887  135.2404 C   0  0  0  0  0  0  0  0  0  0  0  0
    8.6714   47.0428  135.2723 N   0  0  0  0  0  0  0  0  0  0  0  0
    7.2209   45.7942  128.6111 C   0  0  0  0  0  0  0  0  0  0  0  0
    8.4193   44.8988  128.5061 C   0  0  0  0  0  0  0  0  0  0  0  0
    8.2750   43.6536  129.0611 O   0  0  0  0  0  0  0  0  0  0  0  0
    8.6082   42.9158  128.4686 H   0  0  0  0  0  0  0  0  0  0  0  0
  6  7  1  0  0  0
  7  8  2  0  0  0
  8  9  1  0  0  0
  9  1  1  0  0  0
  1  2  2  0  0  0
  2  3  1  0  0  0
  3 31  1  0  0  0
 31 32  1  0  0  0
 32 33  1  0  0  0
  3  4  1  0  0  0
  4 14  1  0  0  0
 14 15  1  0  0  0
 15 16  1  0  0  0
 16 17  1  0  0  0
 17 20  1  0  0  0
 20 21  2  0  0  0
 21 22  1  0  0  0
 22 23  2  0  0  0
 23 24  1  0  0  0
 24 25  1  0  0  0
 24 26  2  0  0  0
 26 29  1  0  0  0
 29 30  3  0  0  0
 17 18  1  0  0  0
 18 19  1  0  0  0
  4  5  2  0  0  0
  9 10  2  0  0  0
 10 11  1  0  0  0
 11 12  2  0  0  0
 12 13  1  0  0  0
 12  7  1  0  0  0
  5  1  1  0  0  0
 19 14  1  0  0  0
 26 20  1  0  0  0
 33 34  1  0  0  0
 25 27  1  0  0  0
 25 28  1  0  0  0
M  END
> <minimizedAffinity>
15.35550

> <CNNscore>
0.3725888729

> <CNNaffinity>
7.3172655106

> <CNN_VS>
2.7263317108

> <CNNaffinity_variance>
2.2375822067

$$$$
[H]OC([H])([H])C([H])([H])n1c(C2([H])C([H])([H])C([H])([H])N(c3nc([H])nc(N([H])[H])c3C#N)C([H])([H])C2([H])[H])nc(-c2c([H])c([H])c(F)c(C([H])([H])[H])c2[H])c1[H]


 34 37  0  0  0  0  0  0  0  0999 V2000
    9.8607   41.4057  127.8170 C   0  0  0  0  0  0  0  0  0  0  0  0
   10.0048   41.1534  129.1610 C   0  0  0  0  0  0  0  0  0  0  0  0
    9.6451   42.2993  129.8217 N   0  0  0  0  0  0  0  0  0  0  0  0
    9.2924   43.2252  128.9265 C   0  0  0  0  0  0  0  0  0  0  0  0
    9.4310   42.6602  127.7162 N   0  0  0  0  0  0  0  0  0  0  0  0
   12.8591   38.1833  125.4432 C   0  0  0  0  0  0  0  0  0  0  0  0
   11.5656   38.8953  125.5872 C   0  0  0  0  0  0  0  0  0  0  0  0
   11.3329   39.8013  126.6226 C   0  0  0  0  0  0  0  0  0  0  0  0
   10.1366   40.4541  126.7485 C   0  0  0  0  0  0  0  0  0  0  0  0
    9.1402   40.2090  125.8297 C   0  0  0  0  0  0  0  0  0  0  0  0
    9.3414   39.3179  124.7946 C   0  0  0  0  0  0  0  0  0  0  0  0
   10.5582   38.6605  124.6752 C   0  0  0  0  0  0  0  0  0  0  0  0
   10.7128   37.7865  123.6342 F   0  0  0  0  0  0  0  0  0  0  0  0
    8.8449   44.5922  129.1827 C   0  0  0  0  0  0  0  0  0  0  0  0
   10.0124   45.5574  129.2559 C   0  0  0  0  0  0  0  0  0  0  0  0
    9.3969   46.9212  129.0656 C   0  0  0  0  0  0  0  0  0  0  0  0
    8.4712   47.1841  130.1912 N   0  0  0  0  0  0  0  0  0  0  0  0
    7.5632   46.1627  130.5834 C   0  0  0  0  0  0  0  0  0  0  0  0
    8.1491   44.7420  130.5190 C   0  0  0  0  0  0  0  0  0  0  0  0
    8.6370   48.4624  130.7807 C   0  0  0  0  0  0  0  0  0  0  0  0
    8.0511   49.5684  130.2217 N   0  0  0  0  0  0  0  0  0  0  0  0
    8.2188   50.7918  130.7299 C   0  0  0  0  0  0  0  0  0  0  0  0
    8.9682   51.0033  131.8129 N   0  0  0  0  0  0  0  0  0  0  0  0
    9.5725   49.9706  132.4154 C   0  0  0  0  0  0  0  0  0  0  0  0
   10.3869   50.1421  133.5787 N   0  0  0  0  0  0  0  0  0  0  0  0
    9.3966   48.6779  131.8812 C   0  0  0  0  0  0  0  0  0  0  0  0
   11.3142   50.6436  133.4931 H   0  0  0  0  0  0  0  0  0  0  0  0
   10.1172   49.7972  134.5201 H   0  0  0  0  0  0  0  0  0  0  0  0
   10.0313   47.5925  132.5897 C   0  0  0  0  0  0  0  0  0  0  0  0
   10.5146   46.7135  133.1734 N   0  0  0  0  0  0  0  0  0  0  0  0
    9.6718   42.3843  131.2516 C   0  0  0  0  0  0  0  0  0  0  0  0
   11.0641   42.7087  131.7047 C   0  0  0  0  0  0  0  0  0  0  0  0
   11.1746   43.7882  132.5425 O   0  0  0  0  0  0  0  0  0  0  0  0
   11.7630   43.6138  133.3362 H   0  0  0  0  0  0  0  0  0  0  0  0
  6  7  1  0  0  0
  7  8  2  0  0  0
  8  9  1  0  0  0
  9  1  1  0  0  0
  1  2  2  0  0  0
  2  3  1  0  0  0
  3 31  1  0  0  0
 31 32  1  0  0  0
 32 33  1  0  0  0
  3  4  1  0  0  0
  4 14  1  0  0  0
 14 15  1  0  0  0
 15 16  1  0  0  0
 16 17  1  0  0  0
 17 20  1  0  0  0
 20 21  2  0  0  0
 21 22  1  0  0  0
 22 23  2  0  0  0
 23 24  1  0  0  0
 24 25  1  0  0  0
 24 26  2  0  0  0
 26 29  1  0  0  0
 29 30  3  0  0  0
 17 18  1  0  0  0
 18 19  1  0  0  0
  4  5  2  0  0  0
  9 10  2  0  0  0
 10 11  1  0  0  0
 11 12  2  0  0  0
 12 13  1  0  0  0
 12  7  1  0  0  0
  5  1  1  0  0  0
 19 14  1  0  0  0
 26 20  1  0  0  0
 33 34  1  0  0  0
 25 27  1  0  0  0
 25 28  1  0  0  0
M  END
> <minimizedAffinity>
17.74956

> <CNNscore>
0.2554012835

> <CNNaffinity>
7.1205167770

> <CNN_VS>
1.8185890913

> <CNNaffinity_variance>
0.9991680384

$$$$
[H]OC([H])([H])C([H])([H])n1c(C2([H])C([H])([H])C([H])([H])N(c3nc([H])nc(N([H])[H])c3C#N)C([H])([H])C2([H])[H])nc(-c2c([H])c([H])c(F)c(C([H])([H])[H])c2[H])c1[H]


 34 37  0  0  0  0  0  0  0  0999 V2000
   12.8491   46.1051  134.2758 C   0  0  0  0  0  0  0  0  0  0  0  0
   13.0565   44.8165  133.8433 C   0  0  0  0  0  0  0  0  0  0  0  0
   12.0796   44.5442  132.9211 N   0  0  0  0  0  0  0  0  0  0  0  0
   11.2976   45.6180  132.7858 C   0  0  0  0  0  0  0  0  0  0  0  0
   11.7837   46.5532  133.6179 N   0  0  0  0  0  0  0  0  0  0  0  0
   13.6724   49.8926  137.4359 C   0  0  0  0  0  0  0  0  0  0  0  0
   14.0814   48.6192  136.7939 C   0  0  0  0  0  0  0  0  0  0  0  0
   13.2784   47.9766  135.8511 C   0  0  0  0  0  0  0  0  0  0  0  0
   13.6630   46.8019  135.2634 C   0  0  0  0  0  0  0  0  0  0  0  0
   14.8723   46.2429  135.6129 C   0  0  0  0  0  0  0  0  0  0  0  0
   15.6881   46.8559  136.5428 C   0  0  0  0  0  0  0  0  0  0  0  0
   15.2894   48.0472  137.1336 C   0  0  0  0  0  0  0  0  0  0  0  0
   16.1296   48.6189  138.0494 F   0  0  0  0  0  0  0  0  0  0  0  0
   10.1334   45.7728  131.9167 C   0  0  0  0  0  0  0  0  0  0  0  0
   10.2353   47.0230  131.0641 C   0  0  0  0  0  0  0  0  0  0  0  0
    9.2448   46.8089  129.9471 C   0  0  0  0  0  0  0  0  0  0  0  0
    7.8860   46.7212  130.5294 N   0  0  0  0  0  0  0  0  0  0  0  0
    7.6848   45.9068  131.6774 C   0  0  0  0  0  0  0  0  0  0  0  0
    8.8429   45.9485  132.6888 C   0  0  0  0  0  0  0  0  0  0  0  0
    6.9248   47.5194  129.8601 C   0  0  0  0  0  0  0  0  0  0  0  0
    5.8770   46.9368  129.1955 N   0  0  0  0  0  0  0  0  0  0  0  0
    4.9762   47.6578  128.5232 C   0  0  0  0  0  0  0  0  0  0  0  0
    5.0485   48.9883  128.4626 N   0  0  0  0  0  0  0  0  0  0  0  0
    6.0447   49.6293  129.0882 C   0  0  0  0  0  0  0  0  0  0  0  0
    6.1688   51.0538  129.0549 N   0  0  0  0  0  0  0  0  0  0  0  0
    6.9967   48.8705  129.7992 C   0  0  0  0  0  0  0  0  0  0  0  0
    6.4236   51.5309  128.1459 H   0  0  0  0  0  0  0  0  0  0  0  0
    6.0211   51.6592  129.8853 H   0  0  0  0  0  0  0  0  0  0  0  0
    8.0254   49.6078  130.4926 C   0  0  0  0  0  0  0  0  0  0  0  0
    8.8377   50.1957  131.0770 N   0  0  0  0  0  0  0  0  0  0  0  0
   12.0022   43.2767  132.2577 C   0  0  0  0  0  0  0  0  0  0  0  0
   10.6344   42.6944  132.4556 C   0  0  0  0  0  0  0  0  0  0  0  0
   10.2195   42.5942  133.7584 O   0  0  0  0  0  0  0  0  0  0  0  0
    9.2812   42.9195  133.9005 H   0  0  0  0  0  0  0  0  0  0  0  0
  6  7  1  0  0  0
  7  8  2  0  0  0
  8  9  1  0  0  0
  9  1  1  0  0  0
  1  2  2  0  0  0
  2  3  1  0  0  0
  3 31  1  0  0  0
 31 32  1  0  0  0
 32 33  1  0  0  0
  3  4  1  0  0  0
  4 14  1  0  0  0
 14 15  1  0  0  0
 15 16  1  0  0  0
 16 17  1  0  0  0
 17 20  1  0  0  0
 20 21  2  0  0  0
 21 22  1  0  0  0
 22 23  2  0  0  0
 23 24  1  0  0  0
 24 25  1  0  0  0
 24 26  2  0  0  0
 26 29  1  0  0  0
 29 30  3  0  0  0
 17 18  1  0  0  0
 18 19  1  0  0  0
  4  5  2  0  0  0
  9 10  2  0  0  0
 10 11  1  0  0  0
 11 12  2  0  0  0
 12 13  1  0  0  0
 12  7  1  0  0  0
  5  1  1  0  0  0
 19 14  1  0  0  0
 26 20  1  0  0  0
 33 34  1  0  0  0
 25 27  1  0  0  0
 25 28  1  0  0  0
M  END
> <minimizedAffinity>
14.60680

> <CNNscore>
0.2517857552

> <CNNaffinity>
7.2993369102

> <CNN_VS>
1.8378690481

> <CNNaffinity_variance>
0.3394782543

$$$$
[H]OC([H])([H])C([H])([H])n1c(C2([H])C([H])([H])C([H])([H])N(c3nc([H])nc(N([H])[H])c3C#N)C([H])([H])C2([H])[H])nc(-c2c([H])c([H])c(F)c(C([H])([H])[H])c2[H])c1[H]


 34 37  0  0  0  0  0  0  0  0999 V2000
   11.4096   44.7850  132.6810 C   0  0  0  0  0  0  0  0  0  0  0  0
   12.0660   44.2847  131.5813 C   0  0  0  0  0  0  0  0  0  0  0  0
   11.6550   45.0235  130.5023 N   0  0  0  0  0  0  0  0  0  0  0  0
   10.7798   45.9443  130.9136 C   0  0  0  0  0  0  0  0  0  0  0  0
   10.6464   45.7807  132.2397 N   0  0  0  0  0  0  0  0  0  0  0  0
   10.0479   44.6401  137.4908 C   0  0  0  0  0  0  0  0  0  0  0  0
   10.9141   44.2034  136.3684 C   0  0  0  0  0  0  0  0  0  0  0  0
   10.7502   44.6975  135.0739 C   0  0  0  0  0  0  0  0  0  0  0  0
   11.5536   44.2894  134.0437 C   0  0  0  0  0  0  0  0  0  0  0  0
   12.5471   43.3687  134.2937 C   0  0  0  0  0  0  0  0  0  0  0  0
   12.7331   42.8622  135.5645 C   0  0  0  0  0  0  0  0  0  0  0  0
   11.9132   43.2821  136.6030 C   0  0  0  0  0  0  0  0  0  0  0  0
   12.1340   42.7535  137.8453 F   0  0  0  0  0  0  0  0  0  0  0  0
   10.0847   46.9422  130.1039 C   0  0  0  0  0  0  0  0  0  0  0  0
    9.6525   48.1341  130.9362 C   0  0  0  0  0  0  0  0  0  0  0  0
    9.3829   49.2271  129.9325 C   0  0  0  0  0  0  0  0  0  0  0  0
    8.2622   48.8042  129.0616 N   0  0  0  0  0  0  0  0  0  0  0  0
    8.2690   47.4858  128.5294 C   0  0  0  0  0  0  0  0  0  0  0  0
    8.7982   46.4179  129.5018 C   0  0  0  0  0  0  0  0  0  0  0  0
    7.2668   49.7982  128.8882 C   0  0  0  0  0  0  0  0  0  0  0  0
    7.6180   51.0973  128.6271 N   0  0  0  0  0  0  0  0  0  0  0  0
    6.7067   52.0646  128.4964 C   0  0  0  0  0  0  0  0  0  0  0  0
    5.4013   51.8170  128.6133 N   0  0  0  0  0  0  0  0  0  0  0  0
    4.9810   50.5707  128.8674 C   0  0  0  0  0  0  0  0  0  0  0  0
    3.5934   50.2510  129.0025 N   0  0  0  0  0  0  0  0  0  0  0  0
    5.9410   49.5474  129.0052 C   0  0  0  0  0  0  0  0  0  0  0  0
    3.0578   50.6098  129.8410 H   0  0  0  0  0  0  0  0  0  0  0  0
    3.0703   49.6768  128.3135 H   0  0  0  0  0  0  0  0  0  0  0  0
    5.4381   48.2144  129.2350 C   0  0  0  0  0  0  0  0  0  0  0  0
    5.0049   47.1539  129.4212 N   0  0  0  0  0  0  0  0  0  0  0  0
   12.1527   44.7711  129.1828 C   0  0  0  0  0  0  0  0  0  0  0  0
   11.0454   44.2294  128.3287 C   0  0  0  0  0  0  0  0  0  0  0  0
   10.3245   43.2020  128.8803 O   0  0  0  0  0  0  0  0  0  0  0  0
    9.3329   43.3163  128.7795 H   0  0  0  0  0  0  0  0  0  0  0  0
  6  7  1  0  0  0
  7  8  2  0  0  0
  8  9  1  0  0  0
  9  1  1  0  0  0
  1  2  2  0  0  0
  2  3  1  0  0  0
  3 31  1  0  0  0
 31 32  1  0  0  0
 32 33  1  0  0  0
  3  4  1  0  0  0
  4 14  1  0  0  0
 14 15  1  0  0  0
 15 16  1  0  0  0
 16 17  1  0  0  0
 17 20  1  0  0  0
 20 21  2  0  0  0
 21 22  1  0  0  0
 22 23  2  0  0  0
 23 24  1  0  0  0
 24 25  1  0  0  0
 24 26  2  0  0  0
 26 29  1  0  0  0
 29 30  3  0  0  0
 17 18  1  0  0  0
 18 19  1  0  0  0
  4  5  2  0  0  0
  9 10  2  0  0  0
 10 11  1  0  0  0
 11 12  2  0  0  0
 12 13  1  0  0  0
 12  7  1  0  0  0
  5  1  1  0  0  0
 19 14  1  0  0  0
 26 20  1  0  0  0
 33 34  1  0  0  0
 25 27  1  0  0  0
 25 28  1  0  0  0
M  END
> <minimizedAffinity>
14.74969

> <CNNscore>
0.2469493002

> <CNNaffinity>
7.3859100342

> <CNN_VS>
1.8239452839

> <CNNaffinity_variance>
0.5088976622

$$$$
[H]OC([H])([H])C([H])([H])n1c(C2([H])C([H])([H])C([H])([H])N(c3nc([H])nc(N([H])[H])c3C#N)C([H])([H])C2([H])[H])nc(-c2c([H])c([H])c(F)c(C([H])([H])[H])c2[H])c1[H]


 34 37  0  0  0  0  0  0  0  0999 V2000
   10.0025   41.4926  128.0825 C   0  0  0  0  0  0  0  0  0  0  0  0
    9.8623   41.1368  129.4032 C   0  0  0  0  0  0  0  0  0  0  0  0
    9.7281   42.2996  130.1165 N   0  0  0  0  0  0  0  0  0  0  0  0
    9.7826   43.3349  129.2751 C   0  0  0  0  0  0  0  0  0  0  0  0
    9.9495   42.8210  128.0458 N   0  0  0  0  0  0  0  0  0  0  0  0
   12.7040   38.2005  125.4608 C   0  0  0  0  0  0  0  0  0  0  0  0
   11.4578   38.9708  125.6944 C   0  0  0  0  0  0  0  0  0  0  0  0
   11.3263   39.8549  126.7658 C   0  0  0  0  0  0  0  0  0  0  0  0
   10.1730   40.5619  126.9744 C   0  0  0  0  0  0  0  0  0  0  0  0
    9.1185   40.3947  126.1043 C   0  0  0  0  0  0  0  0  0  0  0  0
    9.2194   39.5269  125.0352 C   0  0  0  0  0  0  0  0  0  0  0  0
   10.3932   38.8142  124.8318 C   0  0  0  0  0  0  0  0  0  0  0  0
   10.4482   37.9660  123.7599 F   0  0  0  0  0  0  0  0  0  0  0  0
    9.6877   44.7565  129.5988 C   0  0  0  0  0  0  0  0  0  0  0  0
    8.3454   45.1003  130.2152 C   0  0  0  0  0  0  0  0  0  0  0  0
    8.5613   46.4320  130.8896 C   0  0  0  0  0  0  0  0  0  0  0  0
    8.8986   47.4372  129.8556 N   0  0  0  0  0  0  0  0  0  0  0  0
    9.8595   47.1017  128.8629 C   0  0  0  0  0  0  0  0  0  0  0  0
    9.7784   45.6449  128.3761 C   0  0  0  0  0  0  0  0  0  0  0  0
    8.1660   48.6450  129.9723 C   0  0  0  0  0  0  0  0  0  0  0  0
    8.7426   49.7584  130.5265 N   0  0  0  0  0  0  0  0  0  0  0  0
    8.0684   50.8999  130.6859 C   0  0  0  0  0  0  0  0  0  0  0  0
    6.7932   51.0179  130.3128 N   0  0  0  0  0  0  0  0  0  0  0  0
    6.1619   49.9723  129.7625 C   0  0  0  0  0  0  0  0  0  0  0  0
    4.7958   50.0451  129.3453 N   0  0  0  0  0  0  0  0  0  0  0  0
    6.8717   48.7660  129.5924 C   0  0  0  0  0  0  0  0  0  0  0  0
    4.0346   50.1292  130.0749 H   0  0  0  0  0  0  0  0  0  0  0  0
    4.5008   50.0197  128.3502 H   0  0  0  0  0  0  0  0  0  0  0  0
    6.1630   47.6821  128.9557 C   0  0  0  0  0  0  0  0  0  0  0  0
    5.5701   46.8300  128.4366 N   0  0  0  0  0  0  0  0  0  0  0  0
    9.5543   42.2952  131.5387 C   0  0  0  0  0  0  0  0  0  0  0  0
   10.8974   42.3461  132.2040 C   0  0  0  0  0  0  0  0  0  0  0  0
   10.9446   43.0434  133.3834 O   0  0  0  0  0  0  0  0  0  0  0  0
   11.4388   42.5587  134.1096 H   0  0  0  0  0  0  0  0  0  0  0  0
  6  7  1  0  0  0
  7  8  2  0  0  0
  8  9  1  0  0  0
  9  1  1  0  0  0
  1  2  2  0  0  0
  2  3  1  0  0  0
  3 31  1  0  0  0
 31 32  1  0  0  0
 32 33  1  0  0  0
  3  4  1  0  0  0
  4 14  1  0  0  0
 14 15  1  0  0  0
 15 16  1  0  0  0
 16 17  1  0  0  0
 17 20  1  0  0  0
 20 21  2  0  0  0
 21 22  1  0  0  0
 22 23  2  0  0  0
 23 24  1  0  0  0
 24 25  1  0  0  0
 24 26  2  0  0  0
 26 29  1  0  0  0
 29 30  3  0  0  0
 17 18  1  0  0  0
 18 19  1  0  0  0
  4  5  2  0  0  0
  9 10  2  0  0  0
 10 11  1  0  0  0
 11 12  2  0  0  0
 12 13  1  0  0  0
 12  7  1  0  0  0
  5  1  1  0  0  0
 19 14  1  0  0  0
 26 20  1  0  0  0
 33 34  1  0  0  0
 25 27  1  0  0  0
 25 28  1  0  0  0
M  END
> <minimizedAffinity>
17.18964

> <CNNscore>
0.1944473088

> <CNNaffinity>
6.9147233963

> <CNN_VS>
1.3445492983

> <CNNaffinity_variance>
0.5273405910

$$$$
[H]OC([H])([H])C([H])([H])n1c(C2([H])C([H])([H])C([H])([H])N(c3nc([H])nc(N([H])[H])c3C#N)C([H])([H])C2([H])[H])nc(-c2c([H])c([H])c(F)c(C([H])([H])[H])c2[H])c1[H]


 34 37  0  0  0  0  0  0  0  0999 V2000
    7.3670   51.7104  127.7959 C   0  0  0  0  0  0  0  0  0  0  0  0
    6.3764   52.0211  128.6975 C   0  0  0  0  0  0  0  0  0  0  0  0
    6.4683   51.1114  129.7187 N   0  0  0  0  0  0  0  0  0  0  0  0
    7.4735   50.2703  129.4631 C   0  0  0  0  0  0  0  0  0  0  0  0
    8.0045   50.6534  128.2907 N   0  0  0  0  0  0  0  0  0  0  0  0
    8.8549   51.8743  123.0243 C   0  0  0  0  0  0  0  0  0  0  0  0
    8.3430   52.5303  124.2525 C   0  0  0  0  0  0  0  0  0  0  0  0
    8.1019   51.8147  125.4258 C   0  0  0  0  0  0  0  0  0  0  0  0
    7.6295   52.4275  126.5548 C   0  0  0  0  0  0  0  0  0  0  0  0
    7.3873   53.7831  126.5294 C   0  0  0  0  0  0  0  0  0  0  0  0
    7.6165   54.5173  125.3829 C   0  0  0  0  0  0  0  0  0  0  0  0
    8.0957   53.8870  124.2427 C   0  0  0  0  0  0  0  0  0  0  0  0
    8.3081   54.6539  123.1299 F   0  0  0  0  0  0  0  0  0  0  0  0
    7.9261   49.1441  130.2763 C   0  0  0  0  0  0  0  0  0  0  0  0
    9.3376   49.3568  130.7885 C   0  0  0  0  0  0  0  0  0  0  0  0
    9.4827   48.3846  131.9324 C   0  0  0  0  0  0  0  0  0  0  0  0
    9.3549   47.0076  131.4025 N   0  0  0  0  0  0  0  0  0  0  0  0
    8.2983   46.7184  130.4963 C   0  0  0  0  0  0  0  0  0  0  0  0
    8.0005   47.8486  129.4963 C   0  0  0  0  0  0  0  0  0  0  0  0
   10.3641   46.1235  131.8597 C   0  0  0  0  0  0  0  0  0  0  0  0
   10.6236   45.9963  133.1997 N   0  0  0  0  0  0  0  0  0  0  0  0
   11.5925   45.2016  133.6610 C   0  0  0  0  0  0  0  0  0  0  0  0
   12.3621   44.4864  132.8391 N   0  0  0  0  0  0  0  0  0  0  0  0
   12.1677   44.5580  131.5156 C   0  0  0  0  0  0  0  0  0  0  0  0
   12.9645   43.8127  130.5907 N   0  0  0  0  0  0  0  0  0  0  0  0
   11.1450   45.3959  131.0260 C   0  0  0  0  0  0  0  0  0  0  0  0
   13.9831   44.0667  130.4616 H   0  0  0  0  0  0  0  0  0  0  0  0
   12.5958   43.0222  130.0275 H   0  0  0  0  0  0  0  0  0  0  0  0
   10.9453   45.4064  129.5967 C   0  0  0  0  0  0  0  0  0  0  0  0
   10.7753   45.4444  128.4493 N   0  0  0  0  0  0  0  0  0  0  0  0
    5.5806   51.1484  130.8427 C   0  0  0  0  0  0  0  0  0  0  0  0
    4.5016   50.1232  130.6583 C   0  0  0  0  0  0  0  0  0  0  0  0
    4.2113   49.8008  129.3578 O   0  0  0  0  0  0  0  0  0  0  0  0
    4.1368   48.8124  129.2029 H   0  0  0  0  0  0  0  0  0  0  0  0
  6  7  1  0  0  0
  7  8  2  0  0  0
  8  9  1  0  0  0
  9  1  1  0  0  0
  1  2  2  0  0  0
  2  3  1  0  0  0
  3 31  1  0  0  0
 31 32  1  0  0  0
 32 33  1  0  0  0
  3  4  1  0  0  0
  4 14  1  0  0  0
 14 15  1  0  0  0
 15 16  1  0  0  0
 16 17  1  0  0  0
 17 20  1  0  0  0
 20 21  2  0  0  0
 21 22  1  0  0  0
 22 23  2  0  0  0
 23 24  1  0  0  0
 24 25  1  0  0  0
 24 26  2  0  0  0
 26 29  1  0  0  0
 29 30  3  0  0  0
 17 18  1  0  0  0
 18 19  1  0  0  0
  4  5  2  0  0  0
  9 10  2  0  0  0
 10 11  1  0  0  0
 11 12  2  0  0  0
 12 13  1  0  0  0
 12  7  1  0  0  0
  5  1  1  0  0  0
 19 14  1  0  0  0
 26 20  1  0  0  0
 33 34  1  0  0  0
 25 27  1  0  0  0
 25 28  1  0  0  0
M  END
> <minimizedAffinity>
13.12643

> <CNNscore>
0.1422560215

> <CNNaffinity>
6.9659500122

> <CNN_VS>
0.9909483194

> <CNNaffinity_variance>
0.4697492123

$$$$
[H]OC([H])([H])C([H])([H])n1c(C2([H])C([H])([H])C([H])([H])N(c3nc([H])nc(N([H])[H])c3C#N)C([H])([H])C2([H])[H])nc(-c2c([H])c([H])c(F)c(C([H])([H])[H])c2[H])c1[H]


 34 37  0  0  0  0  0  0  0  0999 V2000
    7.3919   51.6547  127.8302 C   0  0  0  0  0  0  0  0  0  0  0  0
    6.4426   51.9553  128.7784 C   0  0  0  0  0  0  0  0  0  0  0  0
    6.5833   51.0377  129.7870 N   0  0  0  0  0  0  0  0  0  0  0  0
    7.5779   50.2017  129.4790 C   0  0  0  0  0  0  0  0  0  0  0  0
    8.0540   50.5956  128.2868 N   0  0  0  0  0  0  0  0  0  0  0  0
    8.7293   51.8745  123.0164 C   0  0  0  0  0  0  0  0  0  0  0  0
    8.2360   52.5120  124.2618 C   0  0  0  0  0  0  0  0  0  0  0  0
    8.0514   51.7867  125.4394 C   0  0  0  0  0  0  0  0  0  0  0  0
    7.5957   52.3824  126.5842 C   0  0  0  0  0  0  0  0  0  0  0  0
    7.3134   53.7304  126.5709 C   0  0  0  0  0  0  0  0  0  0  0  0
    7.4863   54.4740  125.4206 C   0  0  0  0  0  0  0  0  0  0  0  0
    7.9489   53.8609  124.2642 C   0  0  0  0  0  0  0  0  0  0  0  0
    8.1052   54.6367  123.1482 F   0  0  0  0  0  0  0  0  0  0  0  0
    8.0700   49.0704  130.2617 C   0  0  0  0  0  0  0  0  0  0  0  0
    9.5857   49.0368  130.3025 C   0  0  0  0  0  0  0  0  0  0  0  0
    9.9195   48.1407  131.4689 C   0  0  0  0  0  0  0  0  0  0  0  0
    9.4058   46.7813  131.1839 N   0  0  0  0  0  0  0  0  0  0  0  0
    8.0856   46.6414  130.6752 C   0  0  0  0  0  0  0  0  0  0  0  0
    7.6802   47.7325  129.6696 C   0  0  0  0  0  0  0  0  0  0  0  0
   10.3465   45.7509  131.4339 C   0  0  0  0  0  0  0  0  0  0  0  0
   11.0957   45.2289  130.4115 N   0  0  0  0  0  0  0  0  0  0  0  0
   11.9625   44.2320  130.6063 C   0  0  0  0  0  0  0  0  0  0  0  0
   12.1462   43.6893  131.8108 N   0  0  0  0  0  0  0  0  0  0  0  0
   11.4501   44.1474  132.8597 C   0  0  0  0  0  0  0  0  0  0  0  0
   11.6085   43.6010  134.1720 N   0  0  0  0  0  0  0  0  0  0  0  0
   10.5347   45.2003  132.6569 C   0  0  0  0  0  0  0  0  0  0  0  0
   11.2709   42.6181  134.3687 H   0  0  0  0  0  0  0  0  0  0  0  0
   12.0432   44.1214  134.9583 H   0  0  0  0  0  0  0  0  0  0  0  0
    9.8407   45.6888  133.8241 C   0  0  0  0  0  0  0  0  0  0  0  0
    9.2990   46.0620  134.7803 N   0  0  0  0  0  0  0  0  0  0  0  0
    5.7477   51.0632  130.9505 C   0  0  0  0  0  0  0  0  0  0  0  0
    4.4211   50.4448  130.6237 C   0  0  0  0  0  0  0  0  0  0  0  0
    4.3543   49.7964  129.4176 O   0  0  0  0  0  0  0  0  0  0  0  0
    3.9131   48.8973  129.4762 H   0  0  0  0  0  0  0  0  0  0  0  0
  6  7  1  0  0  0
  7  8  2  0  0  0
  8  9  1  0  0  0
  9  1  1  0  0  0
  1  2  2  0  0  0
  2  3  1  0  0  0
  3 31  1  0  0  0
 31 32  1  0  0  0
 32 33  1  0  0  0
  3  4  1  0  0  0
  4 14  1  0  0  0
 14 15  1  0  0  0
 15 16  1  0  0  0
 16 17  1  0  0  0
 17 20  1  0  0  0
 20 21  2  0  0  0
 21 22  1  0  0  0
 22 23  2  0  0  0
 23 24  1  0  0  0
 24 25  1  0  0  0
 24 26  2  0  0  0
 26 29  1  0  0  0
 29 30  3  0  0  0
 17 18  1  0  0  0
 18 19  1  0  0  0
  4  5  2  0  0  0
  9 10  2  0  0  0
 10 11  1  0  0  0
 11 12  2  0  0  0
 12 13  1  0  0  0
 12  7  1  0  0  0
  5  1  1  0  0  0
 19 14  1  0  0  0
 26 20  1  0  0  0
 33 34  1  0  0  0
 25 27  1  0  0  0
 25 28  1  0  0  0
M  END
> <minimizedAffinity>
12.97958

> <CNNscore>
0.1228568479

> <CNNaffinity>
6.9063591957

> <CNN_VS>
0.8484935164

> <CNNaffinity_variance>
0.3427297771

$$$$
[H]OC([H])([H])C([H])([H])n1c(C2([H])C([H])([H])C([H])([H])N(c3nc([H])nc(N([H])[H])c3C#N)C([H])([H])C2([H])[H])nc(-c2c([H])c([H])c(F)c(C([H])([H])[H])c2[H])c1[H]


 34 37  0  0  0  0  0  0  0  0999 V2000
    7.3606   51.9632  127.4594 C   0  0  0  0  0  0  0  0  0  0  0  0
    6.5980   52.3877  128.5219 C   0  0  0  0  0  0  0  0  0  0  0  0
    6.7142   51.4352  129.5007 N   0  0  0  0  0  0  0  0  0  0  0  0
    7.5150   50.4594  129.0655 C   0  0  0  0  0  0  0  0  0  0  0  0
    7.8955   50.8014  127.8239 N   0  0  0  0  0  0  0  0  0  0  0  0
    5.5551   54.6614  123.6556 C   0  0  0  0  0  0  0  0  0  0  0  0
    6.6725   53.9816  124.3557 C   0  0  0  0  0  0  0  0  0  0  0  0
    6.4852   53.3039  125.5608 C   0  0  0  0  0  0  0  0  0  0  0  0
    7.5215   52.6792  126.2006 C   0  0  0  0  0  0  0  0  0  0  0  0
    8.7783   52.7222  125.6389 C   0  0  0  0  0  0  0  0  0  0  0  0
    8.9941   53.3852  124.4473 C   0  0  0  0  0  0  0  0  0  0  0  0
    7.9368   54.0158  123.8059 C   0  0  0  0  0  0  0  0  0  0  0  0
    8.1970   54.6604  122.6276 F   0  0  0  0  0  0  0  0  0  0  0  0
    7.9125   49.2455  129.7747 C   0  0  0  0  0  0  0  0  0  0  0  0
    9.4172   49.1673  129.9476 C   0  0  0  0  0  0  0  0  0  0  0  0
    9.6263   48.1550  131.0460 C   0  0  0  0  0  0  0  0  0  0  0  0
    9.1163   46.8434  130.5846 N   0  0  0  0  0  0  0  0  0  0  0  0
    7.8459   46.7886  129.9485 C   0  0  0  0  0  0  0  0  0  0  0  0
    7.5544   47.9814  129.0221 C   0  0  0  0  0  0  0  0  0  0  0  0
   10.0111   45.7689  130.8159 C   0  0  0  0  0  0  0  0  0  0  0  0
   10.9058   45.3874  129.8499 N   0  0  0  0  0  0  0  0  0  0  0  0
   11.7358   44.3556  130.0212 C   0  0  0  0  0  0  0  0  0  0  0  0
   11.7386   43.6386  131.1460 N   0  0  0  0  0  0  0  0  0  0  0  0
   10.8926   43.9518  132.1364 C   0  0  0  0  0  0  0  0  0  0  0  0
   10.8543   43.2160  133.3622 N   0  0  0  0  0  0  0  0  0  0  0  0
   10.0156   45.0412  131.9582 C   0  0  0  0  0  0  0  0  0  0  0  0
   10.4932   42.2218  133.3591 H   0  0  0  0  0  0  0  0  0  0  0  0
   11.1656   43.6066  134.2724 H   0  0  0  0  0  0  0  0  0  0  0  0
    9.1540   45.3672  133.0691 C   0  0  0  0  0  0  0  0  0  0  0  0
    8.4464   45.6500  133.9445 N   0  0  0  0  0  0  0  0  0  0  0  0
    6.0455   51.5650  130.7612 C   0  0  0  0  0  0  0  0  0  0  0  0
    5.1010   50.4145  130.9440 C   0  0  0  0  0  0  0  0  0  0  0  0
    4.3263   50.1094  129.8549 O   0  0  0  0  0  0  0  0  0  0  0  0
    4.2960   49.1269  129.6541 H   0  0  0  0  0  0  0  0  0  0  0  0
  6  7  1  0  0  0
  7  8  2  0  0  0
  8  9  1  0  0  0
  9  1  1  0  0  0
  1  2  2  0  0  0
  2  3  1  0  0  0
  3 31  1  0  0  0
 31 32  1  0  0  0
 32 33  1  0  0  0
  3  4  1  0  0  0
  4 14  1  0  0  0
 14 15  1  0  0  0
 15 16  1  0  0  0
 16 17  1  0  0  0
 17 20  1  0  0  0
 20 21  2  0  0  0
 21 22  1  0  0  0
 22 23  2  0  0  0
 23 24  1  0  0  0
 24 25  1  0  0  0
 24 26  2  0  0  0
 26 29  1  0  0  0
 29 30  3  0  0  0
 17 18  1  0  0  0
 18 19  1  0  0  0
  4  5  2  0  0  0
  9 10  2  0  0  0
 10 11  1  0  0  0
 11 12  2  0  0  0
 12 13  1  0  0  0
 12  7  1  0  0  0
  5  1  1  0  0  0
 19 14  1  0  0  0
 26 20  1  0  0  0
 33 34  1  0  0  0
 25 27  1  0  0  0
 25 28  1  0  0  0
M  END
> <minimizedAffinity>
12.41169

> <CNNscore>
0.1170329526

> <CNNaffinity>
6.8649663925

> <CNN_VS>
0.8034272790

> <CNNaffinity_variance>
0.6422795057

$$$$
[H]OC([H])([H])C([H])([H])n1c(C2([H])C([H])([H])C([H])([H])N(c3nc([H])nc(N([H])[H])c3C#N)C([H])([H])C2([H])[H])nc(-c2c([H])c([H])c(F)c(C([H])([H])[H])c2[H])c1[H]


 34 37  0  0  0  0  0  0  0  0999 V2000
    7.5239   49.6404  128.8917 C   0  0  0  0  0  0  0  0  0  0  0  0
    7.3371   48.4145  128.2976 C   0  0  0  0  0  0  0  0  0  0  0  0
    7.6317   47.4657  129.2420 N   0  0  0  0  0  0  0  0  0  0  0  0
    7.9870   48.0756  130.3755 C   0  0  0  0  0  0  0  0  0  0  0  0
    7.9140   49.3955  130.1393 N   0  0  0  0  0  0  0  0  0  0  0  0
    8.0275   52.7530  125.0101 C   0  0  0  0  0  0  0  0  0  0  0  0
    7.5529   52.4478  126.3821 C   0  0  0  0  0  0  0  0  0  0  0  0
    7.7627   51.2028  126.9759 C   0  0  0  0  0  0  0  0  0  0  0  0
    7.3216   50.9291  128.2423 C   0  0  0  0  0  0  0  0  0  0  0  0
    6.6547   51.9080  128.9452 C   0  0  0  0  0  0  0  0  0  0  0  0
    6.4324   53.1495  128.3836 C   0  0  0  0  0  0  0  0  0  0  0  0
    6.8836   53.4177  127.0985 C   0  0  0  0  0  0  0  0  0  0  0  0
    6.6410   54.6613  126.5826 F   0  0  0  0  0  0  0  0  0  0  0  0
    8.3860   47.4564  131.6372 C   0  0  0  0  0  0  0  0  0  0  0  0
    9.8914   47.2982  131.7301 C   0  0  0  0  0  0  0  0  0  0  0  0
   10.1668   47.0909  133.1985 C   0  0  0  0  0  0  0  0  0  0  0  0
    9.5135   45.8338  133.6299 N   0  0  0  0  0  0  0  0  0  0  0  0
    8.1724   45.5867  133.2277 C   0  0  0  0  0  0  0  0  0  0  0  0
    7.8496   46.0495  131.7968 C   0  0  0  0  0  0  0  0  0  0  0  0
   10.3541   44.9860  134.3938 C   0  0  0  0  0  0  0  0  0  0  0  0
   10.1142   44.7867  135.7287 N   0  0  0  0  0  0  0  0  0  0  0  0
   10.9086   44.0251  136.4849 C   0  0  0  0  0  0  0  0  0  0  0  0
   11.9819   43.4153  135.9795 N   0  0  0  0  0  0  0  0  0  0  0  0
   12.2807   43.5622  134.6819 C   0  0  0  0  0  0  0  0  0  0  0  0
   13.4194   42.9309  134.0897 N   0  0  0  0  0  0  0  0  0  0  0  0
   11.4432   44.3653  133.8811 C   0  0  0  0  0  0  0  0  0  0  0  0
   14.3898   43.2558  134.3569 H   0  0  0  0  0  0  0  0  0  0  0  0
   13.3491   42.1580  133.4000 H   0  0  0  0  0  0  0  0  0  0  0  0
   11.7808   44.4580  132.4810 C   0  0  0  0  0  0  0  0  0  0  0  0
   12.0455   44.5629  131.3559 N   0  0  0  0  0  0  0  0  0  0  0  0
    7.5351   46.0647  128.9580 C   0  0  0  0  0  0  0  0  0  0  0  0
    8.8840   45.5434  128.5611 C   0  0  0  0  0  0  0  0  0  0  0  0
    9.4363   44.6257  129.4168 O   0  0  0  0  0  0  0  0  0  0  0  0
    9.8213   43.8279  128.9459 H   0  0  0  0  0  0  0  0  0  0  0  0
  6  7  1  0  0  0
  7  8  2  0  0  0
  8  9  1  0  0  0
  9  1  1  0  0  0
  1  2  2  0  0  0
  2  3  1  0  0  0
  3 31  1  0  0  0
 31 32  1  0  0  0
 32 33  1  0  0  0
  3  4  1  0  0  0
  4 14  1  0  0  0
 14 15  1  0  0  0
 15 16  1  0  0  0
 16 17  1  0  0  0
 17 20  1  0  0  0
 20 21  2  0  0  0
 21 22  1  0  0  0
 22 23  2  0  0  0
 23 24  1  0  0  0
 24 25  1  0  0  0
 24 26  2  0  0  0
 26 29  1  0  0  0
 29 30  3  0  0  0
 17 18  1  0  0  0
 18 19  1  0  0  0
  4  5  2  0  0  0
  9 10  2  0  0  0
 10 11  1  0  0  0
 11 12  2  0  0  0
 12 13  1  0  0  0
 12  7  1  0  0  0
  5  1  1  0  0  0
 19 14  1  0  0  0
 26 20  1  0  0  0
 33 34  1  0  0  0
 25 27  1  0  0  0
 25 28  1  0  0  0
M  END
> <minimizedAffinity>
14.08488

> <CNNscore>
0.1123790741

> <CNNaffinity>
6.7681288719

> <CNN_VS>
0.7605960369

> <CNNaffinity_variance>
0.4005140364

$$$$
[H]Cl.[H]O[C@]([H])(C(=O)N([H])[C@]([H])(C(=O)OC([H])([H])n1c([H])c(F)c(=O)n([H])c1=O)C([H])([H])C([H])(C([H])([H])[H])C([H])([H])[H])[C@]([H])(N([H])[H])C([H])([H])c1c([H])c([H])c([H])c([H])c1[H]


 37 38  0  0  0  0  0  0  0  0999 V2000
    8.5833   44.6494  132.9385 C   0  0  0  0  0  0  0  0  0  0  0  0
   10.0221   44.7523  132.6644 N   0  0  0  0  0  0  0  0  0  0  0  0
   10.9725   43.9739  133.3799 C   0  0  0  0  0  0  0  0  0  0  0  0
   10.5456   43.1913  134.2584 O   0  0  0  0  0  0  0  0  0  0  0  0
   10.3906   45.4011  131.9351 H   0  0  0  0  0  0  0  0  0  0  0  0
   12.4305   44.0624  133.1182 C   0  0  0  0  0  0  0  0  0  0  0  0
   12.9060   42.8103  132.7534 O   0  0  0  0  0  0  0  0  0  0  0  0
   12.7869   42.6830  131.7832 H   0  0  0  0  0  0  0  0  0  0  0  0
   12.7452   45.0394  131.9940 C   0  0  0  0  0  0  0  0  0  0  0  0
   11.6789   45.9635  131.7702 N   0  0  0  0  0  0  0  0  0  0  0  0
   11.9873   46.9353  131.5787 H   0  0  0  0  0  0  0  0  0  0  0  0
   10.9110   45.6381  131.1776 H   0  0  0  0  0  0  0  0  0  0  0  0
   13.0283   44.2167  130.7668 C   0  0  0  0  0  0  0  0  0  0  0  0
   11.9012   44.1751  129.8127 C   0  0  0  0  0  0  0  0  0  0  0  0
   11.7310   45.1169  128.8114 C   0  0  0  0  0  0  0  0  0  0  0  0
   10.6738   45.0746  127.9189 C   0  0  0  0  0  0  0  0  0  0  0  0
    9.7535   44.0726  128.0142 C   0  0  0  0  0  0  0  0  0  0  0  0
    9.8811   43.1172  128.9903 C   0  0  0  0  0  0  0  0  0  0  0  0
   10.9319   43.1694  129.8684 C   0  0  0  0  0  0  0  0  0  0  0  0
    7.8512   44.4657  131.6612 C   0  0  0  0  0  0  0  0  0  0  0  0
    7.7911   43.2707  131.2033 O   0  0  0  0  0  0  0  0  0  0  0  0
    7.2343   45.4106  130.9174 O   0  0  0  0  0  0  0  0  0  0  0  0
    7.6181   46.1140  129.8021 C   0  0  0  0  0  0  0  0  0  0  0  0
    7.5000   47.5357  129.8319 N   0  0  0  0  0  0  0  0  0  0  0  0
    8.2874   48.3937  130.4967 C   0  0  0  0  0  0  0  0  0  0  0  0
    8.0715   49.7774  130.4720 C   0  0  0  0  0  0  0  0  0  0  0  0
    8.8778   50.6195  131.1487 F   0  0  0  0  0  0  0  0  0  0  0  0
    7.0268   50.2872  129.7507 C   0  0  0  0  0  0  0  0  0  0  0  0
    6.7443   51.5024  129.6604 O   0  0  0  0  0  0  0  0  0  0  0  0
    6.2457   49.3991  129.0880 N   0  0  0  0  0  0  0  0  0  0  0  0
    6.4778   48.0896  129.1318 C   0  0  0  0  0  0  0  0  0  0  0  0
    5.6804   47.3391  128.4704 O   0  0  0  0  0  0  0  0  0  0  0  0
    5.4323   49.7695  128.5241 H   0  0  0  0  0  0  0  0  0  0  0  0
    8.1234   45.7824  133.7833 C   0  0  0  0  0  0  0  0  0  0  0  0
    8.8669   48.1706  133.8612 C   0  0  0  0  0  0  0  0  0  0  0  0
    9.2223   46.7132  134.1749 C   0  0  0  0  0  0  0  0  0  0  0  0
    9.5014   46.5911  135.6841 C   0  0  0  0  0  0  0  0  0  0  0  0
 35 36  1  0  0  0
 36 37  1  0  0  0
 36 34  1  0  0  0
 34  1  1  0  0  0
  1  2  1  0  0  0
  2  3  1  0  0  0
  3  4  2  0  0  0
  3  6  1  0  0  0
  6  7  1  0  0  0
  6  9  1  0  0  0
  9 10  1  0  0  0
  9 13  1  0  0  0
 13 14  1  0  0  0
 14 15  2  0  0  0
 15 16  1  0  0  0
 16 17  2  0  0  0
 17 18  1  0  0  0
 18 19  2  0  0  0
  1 20  1  0  0  0
 20 21  2  0  0  0
 20 22  1  0  0  0
 22 23  1  0  0  0
 23 24  1  0  0  0
 24 25  1  0  0  0
 25 26  2  0  0  0
 26 27  1  0  0  0
 26 28  1  0  0  0
 28 29  2  0  0  0
 28 30  1  0  0  0
 30 31  1  0  0  0
 31 32  2  0  0  0
 19 14  1  0  0  0
 31 24  1  0  0  0
  2  5  1  0  0  0
  7  8  1  0  0  0
 10 11  1  0  0  0
 10 12  1  0  0  0
 30 33  1  0  0  0
M  END
> <minimizedAffinity>
-8.42320

> <CNNscore>
0.2305826992

> <CNNaffinity>
7.4690909386

> <CNN_VS>
1.7222431898

> <CNNaffinity_variance>
0.2282247096

$$$$
[H]Cl.[H]O[C@]([H])(C(=O)N([H])[C@]([H])(C(=O)OC([H])([H])n1c([H])c(F)c(=O)n([H])c1=O)C([H])([H])C([H])(C([H])([H])[H])C([H])([H])[H])[C@]([H])(N([H])[H])C([H])([H])c1c([H])c([H])c([H])c([H])c1[H]


 37 38  0  0  0  0  0  0  0  0999 V2000
    9.9962   44.2551  130.3022 C   0  0  0  0  0  0  0  0  0  0  0  0
   10.6273   43.6811  131.4973 N   0  0  0  0  0  0  0  0  0  0  0  0
   11.7024   44.3365  132.1575 C   0  0  0  0  0  0  0  0  0  0  0  0
   12.1005   45.4261  131.6878 O   0  0  0  0  0  0  0  0  0  0  0  0
   10.3050   42.7735  131.8984 H   0  0  0  0  0  0  0  0  0  0  0  0
   12.3535   43.7740  133.3665 C   0  0  0  0  0  0  0  0  0  0  0  0
   13.2175   44.7194  133.9017 O   0  0  0  0  0  0  0  0  0  0  0  0
   12.7180   45.3170  134.5060 H   0  0  0  0  0  0  0  0  0  0  0  0
   11.3356   43.3979  134.4341 C   0  0  0  0  0  0  0  0  0  0  0  0
   10.1402   42.8555  133.8703 N   0  0  0  0  0  0  0  0  0  0  0  0
    9.7466   42.0508  134.3936 H   0  0  0  0  0  0  0  0  0  0  0  0
    9.4437   43.5301  133.5438 H   0  0  0  0  0  0  0  0  0  0  0  0
   11.0543   44.6445  135.2278 C   0  0  0  0  0  0  0  0  0  0  0  0
   10.1832   45.6074  134.5232 C   0  0  0  0  0  0  0  0  0  0  0  0
    8.8848   45.3072  134.1458 C   0  0  0  0  0  0  0  0  0  0  0  0
    8.0713   46.2121  133.4860 C   0  0  0  0  0  0  0  0  0  0  0  0
    8.5506   47.4535  133.1875 C   0  0  0  0  0  0  0  0  0  0  0  0
    9.8310   47.7957  133.5417 C   0  0  0  0  0  0  0  0  0  0  0  0
   10.6272   46.8915  134.1946 C   0  0  0  0  0  0  0  0  0  0  0  0
    8.5230   44.2594  130.4780 C   0  0  0  0  0  0  0  0  0  0  0  0
    7.9999   43.1878  130.9464 O   0  0  0  0  0  0  0  0  0  0  0  0
    7.6597   45.2626  130.2044 O   0  0  0  0  0  0  0  0  0  0  0  0
    7.5448   46.1279  129.1442 C   0  0  0  0  0  0  0  0  0  0  0  0
    7.4257   47.5218  129.4255 N   0  0  0  0  0  0  0  0  0  0  0  0
    8.3244   48.2947  130.0524 C   0  0  0  0  0  0  0  0  0  0  0  0
    8.0987   49.6557  130.2941 C   0  0  0  0  0  0  0  0  0  0  0  0
    9.0184   50.4119  130.9262 F   0  0  0  0  0  0  0  0  0  0  0  0
    6.9275   50.2316  129.8838 C   0  0  0  0  0  0  0  0  0  0  0  0
    6.6245   51.4340  130.0479 O   0  0  0  0  0  0  0  0  0  0  0  0
    6.0356   49.4288  129.2529 N   0  0  0  0  0  0  0  0  0  0  0  0
    6.2804   48.1386  129.0384 C   0  0  0  0  0  0  0  0  0  0  0  0
    5.3719   47.4708  128.4342 O   0  0  0  0  0  0  0  0  0  0  0  0
    5.1234   49.8512  128.9270 H   0  0  0  0  0  0  0  0  0  0  0  0
   10.4926   43.5884  129.0702 C   0  0  0  0  0  0  0  0  0  0  0  0
   10.8128   45.9170  128.2114 C   0  0  0  0  0  0  0  0  0  0  0  0
   11.3339   44.4757  128.2147 C   0  0  0  0  0  0  0  0  0  0  0  0
   12.7848   44.4807  128.7301 C   0  0  0  0  0  0  0  0  0  0  0  0
 35 36  1  0  0  0
 36 37  1  0  0  0
 36 34  1  0  0  0
 34  1  1  0  0  0
  1  2  1  0  0  0
  2  3  1  0  0  0
  3  4  2  0  0  0
  3  6  1  0  0  0
  6  7  1  0  0  0
  6  9  1  0  0  0
  9 10  1  0  0  0
  9 13  1  0  0  0
 13 14  1  0  0  0
 14 15  2  0  0  0
 15 16  1  0  0  0
 16 17  2  0  0  0
 17 18  1  0  0  0
 18 19  2  0  0  0
  1 20  1  0  0  0
 20 21  2  0  0  0
 20 22  1  0  0  0
 22 23  1  0  0  0
 23 24  1  0  0  0
 24 25  1  0  0  0
 25 26  2  0  0  0
 26 27  1  0  0  0
 26 28  1  0  0  0
 28 29  2  0  0  0
 28 30  1  0  0  0
 30 31  1  0  0  0
 31 32  2  0  0  0
 19 14  1  0  0  0
 31 24  1  0  0  0
  2  5  1  0  0  0
  7  8  1  0  0  0
 10 11  1  0  0  0
 10 12  1  0  0  0
 30 33  1  0  0  0
M  END
> <minimizedAffinity>
-6.95767

> <CNNscore>
0.2004053295

> <CNNaffinity>
7.3390097618

> <CNN_VS>
1.4707766771

> <CNNaffinity_variance>
0.1173726544

$$$$
[H]Cl.[H]O[C@]([H])(C(=O)N([H])[C@]([H])(C(=O)OC([H])([H])n1c([H])c(F)c(=O)n([H])c1=O)C([H])([H])C([H])(C([H])([H])[H])C([H])([H])[H])[C@]([H])(N([H])[H])C([H])([H])c1c([H])c([H])c([H])c([H])c1[H]


 37 38  0  0  0  0  0  0  0  0999 V2000
    8.8093   44.9884  129.5038 C   0  0  0  0  0  0  0  0  0  0  0  0
    7.5355   45.7136  129.5883 N   0  0  0  0  0  0  0  0  0  0  0  0
    7.2972   46.8889  128.8247 C   0  0  0  0  0  0  0  0  0  0  0  0
    8.2115   47.2928  128.0715 O   0  0  0  0  0  0  0  0  0  0  0  0
    6.7657   45.3875  130.2125 H   0  0  0  0  0  0  0  0  0  0  0  0
    6.0171   47.6362  128.8951 C   0  0  0  0  0  0  0  0  0  0  0  0
    5.0411   46.8193  129.4491 O   0  0  0  0  0  0  0  0  0  0  0  0
    5.0780   46.8827  130.4321 H   0  0  0  0  0  0  0  0  0  0  0  0
    6.1384   48.8866  129.7548 C   0  0  0  0  0  0  0  0  0  0  0  0
    5.1344   49.8538  129.4423 N   0  0  0  0  0  0  0  0  0  0  0  0
    4.7306   50.3342  130.2683 H   0  0  0  0  0  0  0  0  0  0  0  0
    5.3253   50.4677  128.6464 H   0  0  0  0  0  0  0  0  0  0  0  0
    7.5211   49.4364  129.5334 C   0  0  0  0  0  0  0  0  0  0  0  0
    8.4504   49.1600  130.6481 C   0  0  0  0  0  0  0  0  0  0  0  0
    9.7968   49.4813  130.5993 C   0  0  0  0  0  0  0  0  0  0  0  0
   10.6645   49.2211  131.6458 C   0  0  0  0  0  0  0  0  0  0  0  0
   10.1924   48.6253  132.7781 C   0  0  0  0  0  0  0  0  0  0  0  0
    8.8658   48.2888  132.8718 C   0  0  0  0  0  0  0  0  0  0  0  0
    8.0161   48.5513  131.8291 C   0  0  0  0  0  0  0  0  0  0  0  0
    8.5987   43.5758  129.9055 C   0  0  0  0  0  0  0  0  0  0  0  0
    9.1096   42.6821  129.1427 O   0  0  0  0  0  0  0  0  0  0  0  0
    7.9311   43.1132  130.9856 O   0  0  0  0  0  0  0  0  0  0  0  0
    8.3466   42.6785  132.2202 C   0  0  0  0  0  0  0  0  0  0  0  0
    9.4178   43.3779  132.8524 N   0  0  0  0  0  0  0  0  0  0  0  0
    9.3252   44.4972  133.5849 C   0  0  0  0  0  0  0  0  0  0  0  0
   10.4484   45.1151  134.1490 C   0  0  0  0  0  0  0  0  0  0  0  0
   10.3290   46.2400  134.8821 F   0  0  0  0  0  0  0  0  0  0  0  0
   11.6891   44.5718  133.9557 C   0  0  0  0  0  0  0  0  0  0  0  0
   12.7552   45.0401  134.4125 O   0  0  0  0  0  0  0  0  0  0  0  0
   11.7558   43.4407  133.2114 N   0  0  0  0  0  0  0  0  0  0  0  0
   10.6690   42.8779  132.6891 C   0  0  0  0  0  0  0  0  0  0  0  0
   10.8430   41.8124  132.0030 O   0  0  0  0  0  0  0  0  0  0  0  0
   12.7036   43.0027  133.0482 H   0  0  0  0  0  0  0  0  0  0  0  0
    9.8792   45.7112  130.2399 C   0  0  0  0  0  0  0  0  0  0  0  0
   12.1440   44.6612  130.0654 C   0  0  0  0  0  0  0  0  0  0  0  0
   11.1865   45.7265  129.5203 C   0  0  0  0  0  0  0  0  0  0  0  0
   10.9636   45.4631  128.0198 C   0  0  0  0  0  0  0  0  0  0  0  0
 35 36  1  0  0  0
 36 37  1  0  0  0
 36 34  1  0  0  0
 34  1  1  0  0  0
  1  2  1  0  0  0
  2  3  1  0  0  0
  3  4  2  0  0  0
  3  6  1  0  0  0
  6  7  1  0  0  0
  6  9  1  0  0  0
  9 10  1  0  0  0
  9 13  1  0  0  0
 13 14  1  0  0  0
 14 15  2  0  0  0
 15 16  1  0  0  0
 16 17  2  0  0  0
 17 18  1  0  0  0
 18 19  2  0  0  0
  1 20  1  0  0  0
 20 21  2  0  0  0
 20 22  1  0  0  0
 22 23  1  0  0  0
 23 24  1  0  0  0
 24 25  1  0  0  0
 25 26  2  0  0  0
 26 27  1  0  0  0
 26 28  1  0  0  0
 28 29  2  0  0  0
 28 30  1  0  0  0
 30 31  1  0  0  0
 31 32  2  0  0  0
 19 14  1  0  0  0
 31 24  1  0  0  0
  2  5  1  0  0  0
  7  8  1  0  0  0
 10 11  1  0  0  0
 10 12  1  0  0  0
 30 33  1  0  0  0
M  END
> <minimizedAffinity>
-7.16893

> <CNNscore>
0.1888205856

> <CNNaffinity>
7.0862083435

> <CNN_VS>
1.3380219936

> <CNNaffinity_variance>
0.7328873277

$$$$
[H]Cl.[H]O[C@]([H])(C(=O)N([H])[C@]([H])(C(=O)OC([H])([H])n1c([H])c(F)c(=O)n([H])c1=O)C([H])([H])C([H])(C([H])([H])[H])C([H])([H])[H])[C@]([H])(N([H])[H])C([H])([H])c1c([H])c([H])c([H])c([H])c1[H]


 37 38  0  0  0  0  0  0  0  0999 V2000
    7.6272   44.8102  131.7402 C   0  0  0  0  0  0  0  0  0  0  0  0
    8.9060   44.1033  131.5958 N   0  0  0  0  0  0  0  0  0  0  0  0
    9.0263   42.9431  130.7831 C   0  0  0  0  0  0  0  0  0  0  0  0
    8.0028   42.5363  130.1886 O   0  0  0  0  0  0  0  0  0  0  0  0
    9.7662   44.4320  132.0863 H   0  0  0  0  0  0  0  0  0  0  0  0
   10.3091   42.2145  130.6232 C   0  0  0  0  0  0  0  0  0  0  0  0
   11.1709   42.9727  129.8427 O   0  0  0  0  0  0  0  0  0  0  0  0
   11.6583   43.6103  130.4151 H   0  0  0  0  0  0  0  0  0  0  0  0
   10.9823   41.9535  131.9633 C   0  0  0  0  0  0  0  0  0  0  0  0
   10.1995   42.4284  133.0601 N   0  0  0  0  0  0  0  0  0  0  0  0
   10.1896   41.7980  133.8839 H   0  0  0  0  0  0  0  0  0  0  0  0
   10.2898   43.4218  133.2877 H   0  0  0  0  0  0  0  0  0  0  0  0
   12.3274   42.6254  131.9146 C   0  0  0  0  0  0  0  0  0  0  0  0
   12.3379   43.9680  132.5308 C   0  0  0  0  0  0  0  0  0  0  0  0
   12.4162   44.1644  133.8996 C   0  0  0  0  0  0  0  0  0  0  0  0
   12.4262   45.4239  134.4735 C   0  0  0  0  0  0  0  0  0  0  0  0
   12.3569   46.5271  133.6746 C   0  0  0  0  0  0  0  0  0  0  0  0
   12.2780   46.3815  132.3128 C   0  0  0  0  0  0  0  0  0  0  0  0
   12.2689   45.1294  131.7559 C   0  0  0  0  0  0  0  0  0  0  0  0
    7.3782   45.6290  130.5284 C   0  0  0  0  0  0  0  0  0  0  0  0
    6.2761   46.2815  130.4956 O   0  0  0  0  0  0  0  0  0  0  0  0
    8.1777   45.7734  129.4483 O   0  0  0  0  0  0  0  0  0  0  0  0
    8.7452   46.8723  128.8513 C   0  0  0  0  0  0  0  0  0  0  0  0
    8.3120   48.1645  129.2741 N   0  0  0  0  0  0  0  0  0  0  0  0
    8.8697   48.9276  130.2253 C   0  0  0  0  0  0  0  0  0  0  0  0
    8.3511   50.1804  130.5763 C   0  0  0  0  0  0  0  0  0  0  0  0
    8.9304   50.9291  131.5360 F   0  0  0  0  0  0  0  0  0  0  0  0
    7.2388   50.6563  129.9375 C   0  0  0  0  0  0  0  0  0  0  0  0
    6.6947   51.7580  130.1718 O   0  0  0  0  0  0  0  0  0  0  0  0
    6.6939   49.8658  128.9805 N   0  0  0  0  0  0  0  0  0  0  0  0
    7.2112   48.6797  128.6702 C   0  0  0  0  0  0  0  0  0  0  0  0
    6.6196   48.0137  127.7521 O   0  0  0  0  0  0  0  0  0  0  0  0
    5.8339   50.2122  128.4733 H   0  0  0  0  0  0  0  0  0  0  0  0
    7.5712   45.5436  133.0317 C   0  0  0  0  0  0  0  0  0  0  0  0
    8.9931   47.5897  133.2639 C   0  0  0  0  0  0  0  0  0  0  0  0
    8.8956   46.0740  133.4693 C   0  0  0  0  0  0  0  0  0  0  0  0
    9.1176   45.7668  134.9616 C   0  0  0  0  0  0  0  0  0  0  0  0
 35 36  1  0  0  0
 36 37  1  0  0  0
 36 34  1  0  0  0
 34  1  1  0  0  0
  1  2  1  0  0  0
  2  3  1  0  0  0
  3  4  2  0  0  0
  3  6  1  0  0  0
  6  7  1  0  0  0
  6  9  1  0  0  0
  9 10  1  0  0  0
  9 13  1  0  0  0
 13 14  1  0  0  0
 14 15  2  0  0  0
 15 16  1  0  0  0
 16 17  2  0  0  0
 17 18  1  0  0  0
 18 19  2  0  0  0
  1 20  1  0  0  0
 20 21  2  0  0  0
 20 22  1  0  0  0
 22 23  1  0  0  0
 23 24  1  0  0  0
 24 25  1  0  0  0
 25 26  2  0  0  0
 26 27  1  0  0  0
 26 28  1  0  0  0
 28 29  2  0  0  0
 28 30  1  0  0  0
 30 31  1  0  0  0
 31 32  2  0  0  0
 19 14  1  0  0  0
 31 24  1  0  0  0
  2  5  1  0  0  0
  7  8  1  0  0  0
 10 11  1  0  0  0
 10 12  1  0  0  0
 30 33  1  0  0  0
M  END
> <minimizedAffinity>
-4.72175

> <CNNscore>
0.1783921123

> <CNNaffinity>
7.0020055771

> <CNN_VS>
1.2491025925

> <CNNaffinity_variance>
0.1094879881

$$$$
[H]Cl.[H]O[C@]([H])(C(=O)N([H])[C@]([H])(C(=O)OC([H])([H])n1c([H])c(F)c(=O)n([H])c1=O)C([H])([H])C([H])(C([H])([H])[H])C([H])([H])[H])[C@]([H])(N([H])[H])C([H])([H])c1c([H])c([H])c([H])c([H])c1[H]


 37 38  0  0  0  0  0  0  0  0999 V2000
    7.1760   46.6128  130.1852 C   0  0  0  0  0  0  0  0  0  0  0  0
    8.0536   47.5251  130.9292 N   0  0  0  0  0  0  0  0  0  0  0  0
    9.2783   47.9922  130.3787 C   0  0  0  0  0  0  0  0  0  0  0  0
    9.5915   47.6008  129.2320 O   0  0  0  0  0  0  0  0  0  0  0  0
    7.8040   47.8584  131.8858 H   0  0  0  0  0  0  0  0  0  0  0  0
   10.1790   48.9147  131.1135 C   0  0  0  0  0  0  0  0  0  0  0  0
   10.3196   50.0899  130.3883 O   0  0  0  0  0  0  0  0  0  0  0  0
    9.5830   50.7053  130.6129 H   0  0  0  0  0  0  0  0  0  0  0  0
    9.6301   49.2647  132.4895 C   0  0  0  0  0  0  0  0  0  0  0  0
    9.5766   50.6762  132.7042 N   0  0  0  0  0  0  0  0  0  0  0  0
    8.7248   51.0022  133.1985 H   0  0  0  0  0  0  0  0  0  0  0  0
   10.4434   51.1231  133.0137 H   0  0  0  0  0  0  0  0  0  0  0  0
   10.5164   48.5870  133.4987 C   0  0  0  0  0  0  0  0  0  0  0  0
   10.0669   47.2263  133.8578 C   0  0  0  0  0  0  0  0  0  0  0  0
    8.7415   46.9181  134.1158 C   0  0  0  0  0  0  0  0  0  0  0  0
    8.3238   45.6419  134.4516 C   0  0  0  0  0  0  0  0  0  0  0  0
    9.2402   44.6354  134.5366 C   0  0  0  0  0  0  0  0  0  0  0  0
   10.5647   44.8935  134.2897 C   0  0  0  0  0  0  0  0  0  0  0  0
   10.9664   46.1610  133.9580 C   0  0  0  0  0  0  0  0  0  0  0  0
    7.7754   45.2557  130.1718 C   0  0  0  0  0  0  0  0  0  0  0  0
    7.8431   44.6493  131.2984 O   0  0  0  0  0  0  0  0  0  0  0  0
    8.2601   44.5754  129.1094 O   0  0  0  0  0  0  0  0  0  0  0  0
    9.5251   44.1664  128.7650 C   0  0  0  0  0  0  0  0  0  0  0  0
   10.4625   43.9289  129.8144 N   0  0  0  0  0  0  0  0  0  0  0  0
   11.4731   44.7284  130.1852 C   0  0  0  0  0  0  0  0  0  0  0  0
   12.3503   44.3897  131.2233 C   0  0  0  0  0  0  0  0  0  0  0  0
   13.3588   45.2110  131.5777 F   0  0  0  0  0  0  0  0  0  0  0  0
   12.1848   43.2074  131.8915 C   0  0  0  0  0  0  0  0  0  0  0  0
   12.9080   42.8082  132.8307 O   0  0  0  0  0  0  0  0  0  0  0  0
   11.1562   42.4171  131.4973 N   0  0  0  0  0  0  0  0  0  0  0  0
   10.3400   42.7680  130.5067 C   0  0  0  0  0  0  0  0  0  0  0  0
    9.4012   41.9497  130.2142 O   0  0  0  0  0  0  0  0  0  0  0  0
   11.0086   41.4986  131.9986 H   0  0  0  0  0  0  0  0  0  0  0  0
    6.8354   47.1761  128.8527 C   0  0  0  0  0  0  0  0  0  0  0  0
    4.4755   47.0511  129.6758 C   0  0  0  0  0  0  0  0  0  0  0  0
    5.4842   47.8077  128.8046 C   0  0  0  0  0  0  0  0  0  0  0  0
    5.5663   49.2626  129.3017 C   0  0  0  0  0  0  0  0  0  0  0  0
 35 36  1  0  0  0
 36 37  1  0  0  0
 36 34  1  0  0  0
 34  1  1  0  0  0
  1  2  1  0  0  0
  2  3  1  0  0  0
  3  4  2  0  0  0
  3  6  1  0  0  0
  6  7  1  0  0  0
  6  9  1  0  0  0
  9 10  1  0  0  0
  9 13  1  0  0  0
 13 14  1  0  0  0
 14 15  2  0  0  0
 15 16  1  0  0  0
 16 17  2  0  0  0
 17 18  1  0  0  0
 18 19  2  0  0  0
  1 20  1  0  0  0
 20 21  2  0  0  0
 20 22  1  0  0  0
 22 23  1  0  0  0
 23 24  1  0  0  0
 24 25  1  0  0  0
 25 26  2  0  0  0
 26 27  1  0  0  0
 26 28  1  0  0  0
 28 29  2  0  0  0
 28 30  1  0  0  0
 30 31  1  0  0  0
 31 32  2  0  0  0
 19 14  1  0  0  0
 31 24  1  0  0  0
  2  5  1  0  0  0
  7  8  1  0  0  0
 10 11  1  0  0  0
 10 12  1  0  0  0
 30 33  1  0  0  0
M  END
> <minimizedAffinity>
-5.70381

> <CNNscore>
0.1690058857

> <CNNaffinity>
7.0602807999

> <CNN_VS>
1.1932289600

> <CNNaffinity_variance>
0.2554447055

$$$$
[H]Cl.[H]O[C@]([H])(C(=O)N([H])[C@]([H])(C(=O)OC([H])([H])n1c([H])c(F)c(=O)n([H])c1=O)C([H])([H])C([H])(C([H])([H])[H])C([H])([H])[H])[C@]([H])(N([H])[H])C([H])([H])c1c([H])c([H])c([H])c([H])c1[H]


 37 38  0  0  0  0  0  0  0  0999 V2000
    9.7627   44.3552  130.3592 C   0  0  0  0  0  0  0  0  0  0  0  0
   10.7467   44.3302  131.4487 N   0  0  0  0  0  0  0  0  0  0  0  0
   11.0320   43.1360  132.1653 C   0  0  0  0  0  0  0  0  0  0  0  0
   10.4156   42.0966  131.8395 O   0  0  0  0  0  0  0  0  0  0  0  0
   11.2668   45.1898  131.7301 H   0  0  0  0  0  0  0  0  0  0  0  0
   12.0229   43.0891  133.2689 C   0  0  0  0  0  0  0  0  0  0  0  0
   13.2161   42.5663  132.7896 O   0  0  0  0  0  0  0  0  0  0  0  0
   13.7580   43.2898  132.3965 H   0  0  0  0  0  0  0  0  0  0  0  0
   12.3018   44.4731  133.8380 C   0  0  0  0  0  0  0  0  0  0  0  0
   13.5485   44.5276  134.5336 N   0  0  0  0  0  0  0  0  0  0  0  0
   14.0917   45.3964  134.3716 H   0  0  0  0  0  0  0  0  0  0  0  0
   13.5427   44.2063  135.5049 H   0  0  0  0  0  0  0  0  0  0  0  0
   11.1499   44.8130  134.7441 C   0  0  0  0  0  0  0  0  0  0  0  0
   10.3786   45.9919  134.2994 C   0  0  0  0  0  0  0  0  0  0  0  0
   10.9004   46.9522  133.4486 C   0  0  0  0  0  0  0  0  0  0  0  0
   10.1747   48.0554  133.0337 C   0  0  0  0  0  0  0  0  0  0  0  0
    8.8929   48.2195  133.4699 C   0  0  0  0  0  0  0  0  0  0  0  0
    8.3338   47.2938  134.3139 C   0  0  0  0  0  0  0  0  0  0  0  0
    9.0621   46.2056  134.7181 C   0  0  0  0  0  0  0  0  0  0  0  0
    8.4214   44.6612  130.9147 C   0  0  0  0  0  0  0  0  0  0  0  0
    8.0912   44.0411  131.9861 O   0  0  0  0  0  0  0  0  0  0  0  0
    7.4999   45.5210  130.4269 O   0  0  0  0  0  0  0  0  0  0  0  0
    7.4573   46.2941  129.2927 C   0  0  0  0  0  0  0  0  0  0  0  0
    7.1473   47.6796  129.4361 N   0  0  0  0  0  0  0  0  0  0  0  0
    5.9276   48.2363  129.4159 C   0  0  0  0  0  0  0  0  0  0  0  0
    5.7353   49.6173  129.5491 C   0  0  0  0  0  0  0  0  0  0  0  0
    4.4984   50.1529  129.5261 F   0  0  0  0  0  0  0  0  0  0  0  0
    6.8172   50.4399  129.7056 C   0  0  0  0  0  0  0  0  0  0  0  0
    6.7593   51.6829  129.8330 O   0  0  0  0  0  0  0  0  0  0  0  0
    8.0389   49.8526  129.7223 N   0  0  0  0  0  0  0  0  0  0  0  0
    8.1878   48.5366  129.5933 C   0  0  0  0  0  0  0  0  0  0  0  0
    9.3843   48.0849  129.6227 O   0  0  0  0  0  0  0  0  0  0  0  0
    8.8897   50.4679  129.8418 H   0  0  0  0  0  0  0  0  0  0  0  0
    9.8498   43.1187  129.5394 C   0  0  0  0  0  0  0  0  0  0  0  0
    8.9536   43.5811  127.2492 C   0  0  0  0  0  0  0  0  0  0  0  0
   10.2032   43.3776  128.1128 C   0  0  0  0  0  0  0  0  0  0  0  0
   11.0807   44.6385  128.0094 C   0  0  0  0  0  0  0  0  0  0  0  0
 35 36  1  0  0  0
 36 37  1  0  0  0
 36 34  1  0  0  0
 34  1  1  0  0  0
  1  2  1  0  0  0
  2  3  1  0  0  0
  3  4  2  0  0  0
  3  6  1  0  0  0
  6  7  1  0  0  0
  6  9  1  0  0  0
  9 10  1  0  0  0
  9 13  1  0  0  0
 13 14  1  0  0  0
 14 15  2  0  0  0
 15 16  1  0  0  0
 16 17  2  0  0  0
 17 18  1  0  0  0
 18 19  2  0  0  0
  1 20  1  0  0  0
 20 21  2  0  0  0
 20 22  1  0  0  0
 22 23  1  0  0  0
 23 24  1  0  0  0
 24 25  1  0  0  0
 25 26  2  0  0  0
 26 27  1  0  0  0
 26 28  1  0  0  0
 28 29  2  0  0  0
 28 30  1  0  0  0
 30 31  1  0  0  0
 31 32  2  0  0  0
 19 14  1  0  0  0
 31 24  1  0  0  0
  2  5  1  0  0  0
  7  8  1  0  0  0
 10 11  1  0  0  0
 10 12  1  0  0  0
 30 33  1  0  0  0
M  END
> <minimizedAffinity>
-5.36620

> <CNNscore>
0.1523728371

> <CNNaffinity>
7.0765028000

> <CNN_VS>
1.0782668591

> <CNNaffinity_variance>
0.2654561400

$$$$
[H]Cl.[H]O[C@]([H])(C(=O)N([H])[C@]([H])(C(=O)OC([H])([H])n1c([H])c(F)c(=O)n([H])c1=O)C([H])([H])C([H])(C([H])([H])[H])C([H])([H])[H])[C@]([H])(N([H])[H])C([H])([H])c1c([H])c([H])c([H])c([H])c1[H]


 37 38  0  0  0  0  0  0  0  0999 V2000
    9.1865   45.3868  130.2474 C   0  0  0  0  0  0  0  0  0  0  0  0
    8.6148   46.4932  129.4697 N   0  0  0  0  0  0  0  0  0  0  0  0
    7.2530   46.8758  129.6118 C   0  0  0  0  0  0  0  0  0  0  0  0
    6.5477   46.2376  130.4252 O   0  0  0  0  0  0  0  0  0  0  0  0
    9.1921   47.0327  128.7883 H   0  0  0  0  0  0  0  0  0  0  0  0
    6.6559   47.9910  128.8361 C   0  0  0  0  0  0  0  0  0  0  0  0
    5.5482   47.5234  128.1424 O   0  0  0  0  0  0  0  0  0  0  0  0
    4.7538   47.5649  128.7245 H   0  0  0  0  0  0  0  0  0  0  0  0
    6.2079   49.1319  129.7389 C   0  0  0  0  0  0  0  0  0  0  0  0
    5.0818   49.8303  129.2047 N   0  0  0  0  0  0  0  0  0  0  0  0
    4.3701   50.0986  129.9102 H   0  0  0  0  0  0  0  0  0  0  0  0
    5.2823   50.5530  128.5089 H   0  0  0  0  0  0  0  0  0  0  0  0
    7.3918   50.0443  129.9099 C   0  0  0  0  0  0  0  0  0  0  0  0
    8.4110   49.5185  130.8412 C   0  0  0  0  0  0  0  0  0  0  0  0
    8.0974   49.0327  132.0998 C   0  0  0  0  0  0  0  0  0  0  0  0
    9.0550   48.5404  132.9696 C   0  0  0  0  0  0  0  0  0  0  0  0
   10.3646   48.5253  132.5889 C   0  0  0  0  0  0  0  0  0  0  0  0
   10.7226   48.9965  131.3513 C   0  0  0  0  0  0  0  0  0  0  0  0
    9.7657   49.4816  130.4986 C   0  0  0  0  0  0  0  0  0  0  0  0
    9.9219   44.4744  129.3374 C   0  0  0  0  0  0  0  0  0  0  0  0
    9.2172   43.6229  128.6894 O   0  0  0  0  0  0  0  0  0  0  0  0
   11.2526   44.4325  129.1053 O   0  0  0  0  0  0  0  0  0  0  0  0
   12.3286   44.1459  129.9091 C   0  0  0  0  0  0  0  0  0  0  0  0
   12.1488   44.2202  131.3228 N   0  0  0  0  0  0  0  0  0  0  0  0
   12.3643   45.2877  132.1051 C   0  0  0  0  0  0  0  0  0  0  0  0
   12.1721   45.2476  133.4919 C   0  0  0  0  0  0  0  0  0  0  0  0
   12.3951   46.3348  134.2570 F   0  0  0  0  0  0  0  0  0  0  0  0
   11.7511   44.0884  134.0842 C   0  0  0  0  0  0  0  0  0  0  0  0
   11.5485   43.9429  135.3099 O   0  0  0  0  0  0  0  0  0  0  0  0
   11.5408   43.0238  133.2716 N   0  0  0  0  0  0  0  0  0  0  0  0
   11.7326   43.0947  131.9567 C   0  0  0  0  0  0  0  0  0  0  0  0
   11.5052   42.0322  131.2816 O   0  0  0  0  0  0  0  0  0  0  0  0
   11.2155   42.1173  133.7064 H   0  0  0  0  0  0  0  0  0  0  0  0
    8.1488   44.7455  131.0964 C   0  0  0  0  0  0  0  0  0  0  0  0
    8.0463   45.3421  133.5245 C   0  0  0  0  0  0  0  0  0  0  0  0
    8.6330   44.4023  132.4656 C   0  0  0  0  0  0  0  0  0  0  0  0
    8.2334   42.9576  132.8175 C   0  0  0  0  0  0  0  0  0  0  0  0
 35 36  1  0  0  0
 36 37  1  0  0  0
 36 34  1  0  0  0
 34  1  1  0  0  0
  1  2  1  0  0  0
  2  3  1  0  0  0
  3  4  2  0  0  0
  3  6  1  0  0  0
  6  7  1  0  0  0
  6  9  1  0  0  0
  9 10  1  0  0  0
  9 13  1  0  0  0
 13 14  1  0  0  0
 14 15  2  0  0  0
 15 16  1  0  0  0
 16 17  2  0  0  0
 17 18  1  0  0  0
 18 19  2  0  0  0
  1 20  1  0  0  0
 20 21  2  0  0  0
 20 22  1  0  0  0
 22 23  1  0  0  0
 23 24  1  0  0  0
 24 25  1  0  0  0
 25 26  2  0  0  0
 26 27  1  0  0  0
 26 28  1  0  0  0
 28 29  2  0  0  0
 28 30  1  0  0  0
 30 31  1  0  0  0
 31 32  2  0  0  0
 19 14  1  0  0  0
 31 24  1  0  0  0
  2  5  1  0  0  0
  7  8  1  0  0  0
 10 11  1  0  0  0
 10 12  1  0  0  0
 30 33  1  0  0  0
M  END
> <minimizedAffinity>
-8.00706

> <CNNscore>
0.1466668844

> <CNNaffinity>
6.8747534752

> <CNN_VS>
1.0082986355

> <CNNaffinity_variance>
0.9080971479

$$$$
[H]Cl.[H]O[C@]([H])(C(=O)N([H])[C@]([H])(C(=O)OC([H])([H])n1c([H])c(F)c(=O)n([H])c1=O)C([H])([H])C([H])(C([H])([H])[H])C([H])([H])[H])[C@]([H])(N([H])[H])C([H])([H])c1c([H])c([H])c([H])c([H])c1[H]


 37 38  0  0  0  0  0  0  0  0999 V2000
    8.6171   45.4843  132.2920 C   0  0  0  0  0  0  0  0  0  0  0  0
   10.0217   45.2201  131.9559 N   0  0  0  0  0  0  0  0  0  0  0  0
   10.6393   45.8155  130.8221 C   0  0  0  0  0  0  0  0  0  0  0  0
    9.9465   46.5778  130.1112 O   0  0  0  0  0  0  0  0  0  0  0  0
   10.6096   44.5865  132.5401 H   0  0  0  0  0  0  0  0  0  0  0  0
   12.0572   45.5622  130.4651 C   0  0  0  0  0  0  0  0  0  0  0  0
   12.8555   45.7862  131.5784 O   0  0  0  0  0  0  0  0  0  0  0  0
   12.8955   44.9667  132.1248 H   0  0  0  0  0  0  0  0  0  0  0  0
   12.2763   44.1294  130.0001 C   0  0  0  0  0  0  0  0  0  0  0  0
   11.0594   43.5066  129.5847 N   0  0  0  0  0  0  0  0  0  0  0  0
   11.1488   42.9145  128.7375 H   0  0  0  0  0  0  0  0  0  0  0  0
   10.4785   43.1034  130.3241 H   0  0  0  0  0  0  0  0  0  0  0  0
   12.9102   43.3901  131.1468 C   0  0  0  0  0  0  0  0  0  0  0  0
   12.0180   43.2372  132.3143 C   0  0  0  0  0  0  0  0  0  0  0  0
   10.8560   42.4845  132.2766 C   0  0  0  0  0  0  0  0  0  0  0  0
   10.0225   42.3431  133.3726 C   0  0  0  0  0  0  0  0  0  0  0  0
   10.3426   42.9626  134.5447 C   0  0  0  0  0  0  0  0  0  0  0  0
   11.4839   43.7189  134.6292 C   0  0  0  0  0  0  0  0  0  0  0  0
   12.3014   43.8517  133.5374 C   0  0  0  0  0  0  0  0  0  0  0  0
    7.7564   45.0998  131.1463 C   0  0  0  0  0  0  0  0  0  0  0  0
    7.9795   43.9516  130.6236 O   0  0  0  0  0  0  0  0  0  0  0  0
    6.7580   45.8164  130.5840 O   0  0  0  0  0  0  0  0  0  0  0  0
    6.6969   46.6044  129.4610 C   0  0  0  0  0  0  0  0  0  0  0  0
    6.8614   48.0130  129.6198 N   0  0  0  0  0  0  0  0  0  0  0  0
    7.8993   48.6414  130.1907 C   0  0  0  0  0  0  0  0  0  0  0  0
    7.9528   50.0358  130.3114 C   0  0  0  0  0  0  0  0  0  0  0  0
    9.0080   50.6442  130.8891 F   0  0  0  0  0  0  0  0  0  0  0  0
    6.9199   50.7970  129.8366 C   0  0  0  0  0  0  0  0  0  0  0  0
    6.8655   52.0454  129.8926 O   0  0  0  0  0  0  0  0  0  0  0  0
    5.8826   50.1377  129.2645 N   0  0  0  0  0  0  0  0  0  0  0  0
    5.8623   48.8110  129.1650 C   0  0  0  0  0  0  0  0  0  0  0  0
    4.8359   48.2890  128.6077 O   0  0  0  0  0  0  0  0  0  0  0  0
    5.0729   50.7046  128.8906 H   0  0  0  0  0  0  0  0  0  0  0  0
    8.4439   46.8757  132.7849 C   0  0  0  0  0  0  0  0  0  0  0  0
    9.9123   48.8176  133.3634 C   0  0  0  0  0  0  0  0  0  0  0  0
    9.5754   47.3476  133.6359 C   0  0  0  0  0  0  0  0  0  0  0  0
    9.2122   47.1962  135.1244 C   0  0  0  0  0  0  0  0  0  0  0  0
 35 36  1  0  0  0
 36 37  1  0  0  0
 36 34  1  0  0  0
 34  1  1  0  0  0
  1  2  1  0  0  0
  2  3  1  0  0  0
  3  4  2  0  0  0
  3  6  1  0  0  0
  6  7  1  0  0  0
  6  9  1  0  0  0
  9 10  1  0  0  0
  9 13  1  0  0  0
 13 14  1  0  0  0
 14 15  2  0  0  0
 15 16  1  0  0  0
 16 17  2  0  0  0
 17 18  1  0  0  0
 18 19  2  0  0  0
  1 20  1  0  0  0
 20 21  2  0  0  0
 20 22  1  0  0  0
 22 23  1  0  0  0
 23 24  1  0  0  0
 24 25  1  0  0  0
 25 26  2  0  0  0
 26 27  1  0  0  0
 26 28  1  0  0  0
 28 29  2  0  0  0
 28 30  1  0  0  0
 30 31  1  0  0  0
 31 32  2  0  0  0
 19 14  1  0  0  0
 31 24  1  0  0  0
  2  5  1  0  0  0
  7  8  1  0  0  0
 10 11  1  0  0  0
 10 12  1  0  0  0
 30 33  1  0  0  0
M  END
> <minimizedAffinity>
-4.24689

> <CNNscore>
0.1446560621

> <CNNaffinity>
7.2864294052

> <CNN_VS>
1.0540261269

> <CNNaffinity_variance>
0.1026302800

$$$$
[H]Cl.[H]O[C@]([H])(C(=O)N([H])[C@]([H])(C(=O)OC([H])([H])n1c([H])c(F)c(=O)n([H])c1=O)C([H])([H])C([H])(C([H])([H])[H])C([H])([H])[H])[C@]([H])(N([H])[H])C([H])([H])c1c([H])c([H])c([H])c([H])c1[H]


 37 38  0  0  0  0  0  0  0  0999 V2000
    7.7577   45.4664  130.6659 C   0  0  0  0  0  0  0  0  0  0  0  0
    7.5180   46.5871  129.7480 N   0  0  0  0  0  0  0  0  0  0  0  0
    6.2094   47.0933  129.5189 C   0  0  0  0  0  0  0  0  0  0  0  0
    5.2580   46.5524  130.1261 O   0  0  0  0  0  0  0  0  0  0  0  0
    8.3023   47.0463  129.2357 H   0  0  0  0  0  0  0  0  0  0  0  0
    5.9455   48.2250  128.5961 C   0  0  0  0  0  0  0  0  0  0  0  0
    5.1439   49.1597  129.2369 O   0  0  0  0  0  0  0  0  0  0  0  0
    5.7096   49.7769  129.7573 H   0  0  0  0  0  0  0  0  0  0  0  0
    7.2321   48.9147  128.1643 C   0  0  0  0  0  0  0  0  0  0  0  0
    8.3433   48.0168  128.1446 N   0  0  0  0  0  0  0  0  0  0  0  0
    8.9844   48.1464  127.3393 H   0  0  0  0  0  0  0  0  0  0  0  0
    8.8134   47.8541  129.0386 H   0  0  0  0  0  0  0  0  0  0  0  0
    7.4601   50.0527  129.1214 C   0  0  0  0  0  0  0  0  0  0  0  0
    8.4629   49.7536  130.1642 C   0  0  0  0  0  0  0  0  0  0  0  0
    8.4187   50.3140  131.4300 C   0  0  0  0  0  0  0  0  0  0  0  0
    9.3599   50.0311  132.4047 C   0  0  0  0  0  0  0  0  0  0  0  0
   10.3784   49.1682  132.1252 C   0  0  0  0  0  0  0  0  0  0  0  0
   10.4630   48.5888  130.8847 C   0  0  0  0  0  0  0  0  0  0  0  0
    9.5254   48.8765  129.9276 C   0  0  0  0  0  0  0  0  0  0  0  0
    7.7008   45.9559  132.0652 C   0  0  0  0  0  0  0  0  0  0  0  0
    7.6730   47.2267  132.2259 O   0  0  0  0  0  0  0  0  0  0  0  0
    7.6726   45.2206  133.1989 O   0  0  0  0  0  0  0  0  0  0  0  0
    8.6521   44.8281  134.0777 C   0  0  0  0  0  0  0  0  0  0  0  0
    9.9225   44.4564  133.5445 N   0  0  0  0  0  0  0  0  0  0  0  0
   10.9310   45.2796  133.2230 C   0  0  0  0  0  0  0  0  0  0  0  0
   12.1364   44.8091  132.6870 C   0  0  0  0  0  0  0  0  0  0  0  0
   13.1358   45.6571  132.3722 F   0  0  0  0  0  0  0  0  0  0  0  0
   12.3070   43.4678  132.4778 C   0  0  0  0  0  0  0  0  0  0  0  0
   13.3393   42.9421  132.0060 O   0  0  0  0  0  0  0  0  0  0  0  0
   11.2727   42.6572  132.8107 N   0  0  0  0  0  0  0  0  0  0  0  0
   10.1397   43.1359  133.3184 C   0  0  0  0  0  0  0  0  0  0  0  0
    9.2267   42.2847  133.5980 O   0  0  0  0  0  0  0  0  0  0  0  0
   11.3811   41.6171  132.6579 H   0  0  0  0  0  0  0  0  0  0  0  0
    8.9957   44.7333  130.2934 C   0  0  0  0  0  0  0  0  0  0  0  0
    9.8684   43.4584  128.3248 C   0  0  0  0  0  0  0  0  0  0  0  0
    8.7507   43.5908  129.3650 C   0  0  0  0  0  0  0  0  0  0  0  0
    8.6645   42.2759  130.1613 C   0  0  0  0  0  0  0  0  0  0  0  0
 35 36  1  0  0  0
 36 37  1  0  0  0
 36 34  1  0  0  0
 34  1  1  0  0  0
  1  2  1  0  0  0
  2  3  1  0  0  0
  3  4  2  0  0  0
  3  6  1  0  0  0
  6  7  1  0  0  0
  6  9  1  0  0  0
  9 10  1  0  0  0
  9 13  1  0  0  0
 13 14  1  0  0  0
 14 15  2  0  0  0
 15 16  1  0  0  0
 16 17  2  0  0  0
 17 18  1  0  0  0
 18 19  2  0  0  0
  1 20  1  0  0  0
 20 21  2  0  0  0
 20 22  1  0  0  0
 22 23  1  0  0  0
 23 24  1  0  0  0
 24 25  1  0  0  0
 25 26  2  0  0  0
 26 27  1  0  0  0
 26 28  1  0  0  0
 28 29  2  0  0  0
 28 30  1  0  0  0
 30 31  1  0  0  0
 31 32  2  0  0  0
 19 14  1  0  0  0
 31 24  1  0  0  0
  2  5  1  0  0  0
  7  8  1  0  0  0
 10 11  1  0  0  0
 10 12  1  0  0  0
 30 33  1  0  0  0
M  END
> <minimizedAffinity>
-4.59070

> <CNNscore>
0.1417332590

> <CNNaffinity>
6.5522460938

> <CNN_VS>
0.9286711812

> <CNNaffinity_variance>
0.5859378576

$$$$
