[H]OC(=O)C([H])([H])C([H])([H])c1c([H])c([H])c(C2=C3C([H])=C([H])C(C([H])([H])N(c4c([H])c([H])c([H])c([H])c4[H])S(=O)(=O)c4c([H])c([H])c([H])c([H])c4OC([H])([H])C([H])=C([H])[H])=C(F)C(O[H])=C3N([H])N=N2)c([H])c1[H]


 48 52  0  0  0  0  0  0  0  0999 V2000
    9.9314   50.5134  130.4434 O   0  0  0  0  0  0  0  0  0  0  0  0
    9.1838   49.3530  130.5881 C   0  0  0  0  0  0  0  0  0  0  0  0
    9.9689   48.2162  131.1303 C   0  0  0  0  0  0  0  0  0  0  0  0
   11.2598   48.5467  131.3390 F   0  0  0  0  0  0  0  0  0  0  0  0
    9.5473   47.0186  131.4104 C   0  0  0  0  0  0  0  0  0  0  0  0
    8.1432   46.5046  131.2543 C   0  0  0  0  0  0  0  0  0  0  0  0
    7.0423   47.0335  130.7950 C   0  0  0  0  0  0  0  0  0  0  0  0
    6.8959   48.3814  130.2695 C   0  0  0  0  0  0  0  0  0  0  0  0
    5.7116   48.6043  129.8164 C   0  0  0  0  0  0  0  0  0  0  0  0
    5.4286   49.9198  129.2718 N   0  0  0  0  0  0  0  0  0  0  0  0
    6.2812   50.8442  129.2218 N   0  0  0  0  0  0  0  0  0  0  0  0
    7.5908   50.6964  129.6862 N   0  0  0  0  0  0  0  0  0  0  0  0
    7.9164   49.4229  130.2291 C   0  0  0  0  0  0  0  0  0  0  0  0
   10.2214   50.7298  129.4816 H   0  0  0  0  0  0  0  0  0  0  0  0
    8.3078   51.4319  129.6582 H   0  0  0  0  0  0  0  0  0  0  0  0
    4.6297   47.6209  129.7073 C   0  0  0  0  0  0  0  0  0  0  0  0
    3.4146   47.8918  130.3336 C   0  0  0  0  0  0  0  0  0  0  0  0
    2.3204   47.0589  130.2207 C   0  0  0  0  0  0  0  0  0  0  0  0
    2.3907   45.9029  129.4674 C   0  0  0  0  0  0  0  0  0  0  0  0
    3.5922   45.6314  128.8458 C   0  0  0  0  0  0  0  0  0  0  0  0
    4.6829   46.4672  128.9620 C   0  0  0  0  0  0  0  0  0  0  0  0
    1.2215   44.9965  129.3389 C   0  0  0  0  0  0  0  0  0  0  0  0
    0.2481   45.5391  128.2899 C   0  0  0  0  0  0  0  0  0  0  0  0
   -0.0844   44.4930  127.2961 C   0  0  0  0  0  0  0  0  0  0  0  0
    0.3379   44.5858  125.9808 O   0  0  0  0  0  0  0  0  0  0  0  0
   -0.7652   43.4715  127.5978 O   0  0  0  0  0  0  0  0  0  0  0  0
    0.1891   45.4463  125.4389 H   0  0  0  0  0  0  0  0  0  0  0  0
   10.3717   45.9704  131.9305 C   0  0  0  0  0  0  0  0  0  0  0  0
   10.0740   44.8044  132.5834 N   0  0  0  0  0  0  0  0  0  0  0  0
   10.2773   44.6759  134.0115 C   0  0  0  0  0  0  0  0  0  0  0  0
   11.0673   43.7777  134.6337 C   0  0  0  0  0  0  0  0  0  0  0  0
   11.2408   43.7372  136.0269 C   0  0  0  0  0  0  0  0  0  0  0  0
   10.5813   44.6509  136.8127 C   0  0  0  0  0  0  0  0  0  0  0  0
    9.7649   45.5831  136.1961 C   0  0  0  0  0  0  0  0  0  0  0  0
    9.6039   45.6116  134.8342 C   0  0  0  0  0  0  0  0  0  0  0  0
    9.6712   43.3455  131.7679 S   0  0  0  0  0  0  0  0  0  0  0  0
   10.5742   42.2089  132.2080 O   0  0  0  0  0  0  0  0  0  0  0  0
    8.2695   42.8521  132.0409 O   0  0  0  0  0  0  0  0  0  0  0  0
    9.7702   43.4644  130.0279 C   0  0  0  0  0  0  0  0  0  0  0  0
    8.6959   43.4465  129.2194 C   0  0  0  0  0  0  0  0  0  0  0  0
    8.8214   43.5705  127.8286 C   0  0  0  0  0  0  0  0  0  0  0  0
   10.0726   43.7114  127.3139 C   0  0  0  0  0  0  0  0  0  0  0  0
   11.1771   43.7318  128.1270 C   0  0  0  0  0  0  0  0  0  0  0  0
   11.0621   43.6104  129.4964 C   0  0  0  0  0  0  0  0  0  0  0  0
   12.1365   43.6251  130.3410 O   0  0  0  0  0  0  0  0  0  0  0  0
   13.1740   44.4394  130.6200 C   0  0  0  0  0  0  0  0  0  0  0  0
   14.1306   44.7661  129.5376 C   0  0  0  0  0  0  0  0  0  0  0  0
   14.9234   43.8566  129.0046 C   0  0  0  0  0  0  0  0  0  0  0  0
  1  2  1  0  0  0
  2  3  1  0  0  0
  3  4  1  0  0  0
  3  5  2  0  0  0
  5 28  1  0  0  0
 28 29  1  0  0  0
 29 30  1  0  0  0
 30 31  2  0  0  0
 31 32  1  0  0  0
 32 33  2  0  0  0
 33 34  1  0  0  0
 34 35  2  0  0  0
 29 36  1  0  0  0
 36 37  2  0  0  0
 36 38  2  0  0  0
 36 39  1  0  0  0
 39 40  2  0  0  0
 40 41  1  0  0  0
 41 42  2  0  0  0
 42 43  1  0  0  0
 43 44  2  0  0  0
 44 45  1  0  0  0
 45 46  1  0  0  0
 46 47  1  0  0  0
 47 48  2  0  0  0
  5  6  1  0  0  0
  6  7  2  0  0  0
  7  8  1  0  0  0
  8  9  2  0  0  0
  9 10  1  0  0  0
 10 11  2  0  0  0
 11 12  1  0  0  0
 12 13  1  0  0  0
  9 16  1  0  0  0
 16 17  2  0  0  0
 17 18  1  0  0  0
 18 19  2  0  0  0
 19 22  1  0  0  0
 22 23  1  0  0  0
 23 24  1  0  0  0
 24 25  1  0  0  0
 24 26  2  0  0  0
 19 20  1  0  0  0
 20 21  2  0  0  0
 13  2  2  0  0  0
 21 16  1  0  0  0
 35 30  1  0  0  0
 44 39  1  0  0  0
 13  8  1  0  0  0
  1 14  1  0  0  0
 12 15  1  0  0  0
 25 27  1  0  0  0
M  END
> <minimizedAffinity>
12.80660

> <CNNscore>
0.5193995237

> <CNNaffinity>
8.5299625397

> <CNN_VS>
4.4304585457

> <CNNaffinity_variance>
0.7959050536

$$$$
[H]OC(=O)C([H])([H])C([H])([H])c1c([H])c([H])c(C2=C3C([H])=C([H])C(C([H])([H])N(c4c([H])c([H])c([H])c([H])c4[H])S(=O)(=O)c4c([H])c([H])c([H])c([H])c4OC([H])([H])C([H])=C([H])[H])=C(F)C(O[H])=C3N([H])N=N2)c([H])c1[H]


 48 52  0  0  0  0  0  0  0  0999 V2000
    9.7337   41.4059  129.7260 O   0  0  0  0  0  0  0  0  0  0  0  0
    9.7104   42.6839  130.2671 C   0  0  0  0  0  0  0  0  0  0  0  0
    8.7556   43.5907  129.5824 C   0  0  0  0  0  0  0  0  0  0  0  0
    8.1318   42.9840  128.5519 F   0  0  0  0  0  0  0  0  0  0  0  0
    8.4814   44.8273  129.8759 C   0  0  0  0  0  0  0  0  0  0  0  0
    9.0724   45.6329  130.9992 C   0  0  0  0  0  0  0  0  0  0  0  0
    9.9802   45.3792  131.9014 C   0  0  0  0  0  0  0  0  0  0  0  0
   10.7126   44.1319  132.0500 C   0  0  0  0  0  0  0  0  0  0  0  0
   11.6013   44.1937  132.9795 C   0  0  0  0  0  0  0  0  0  0  0  0
   12.3974   43.0079  133.2387 N   0  0  0  0  0  0  0  0  0  0  0  0
   12.2606   41.9316  132.6009 N   0  0  0  0  0  0  0  0  0  0  0  0
   11.3258   41.7695  131.5750 N   0  0  0  0  0  0  0  0  0  0  0  0
   10.5215   42.9056  131.2835 C   0  0  0  0  0  0  0  0  0  0  0  0
   10.5389   41.2017  129.1211 H   0  0  0  0  0  0  0  0  0  0  0  0
   11.1916   40.9043  131.0371 H   0  0  0  0  0  0  0  0  0  0  0  0
   11.9609   45.3866  133.7522 C   0  0  0  0  0  0  0  0  0  0  0  0
   10.9393   46.1902  134.2550 C   0  0  0  0  0  0  0  0  0  0  0  0
   11.1847   47.2878  135.0542 C   0  0  0  0  0  0  0  0  0  0  0  0
   12.4779   47.6372  135.3922 C   0  0  0  0  0  0  0  0  0  0  0  0
   13.4920   46.8438  134.8963 C   0  0  0  0  0  0  0  0  0  0  0  0
   13.2413   45.7479  134.0977 C   0  0  0  0  0  0  0  0  0  0  0  0
   12.7565   48.8171  136.2498 C   0  0  0  0  0  0  0  0  0  0  0  0
   14.2595   49.1040  136.2778 C   0  0  0  0  0  0  0  0  0  0  0  0
   14.9094   48.3751  137.3908 C   0  0  0  0  0  0  0  0  0  0  0  0
   15.8298   47.3681  137.1550 O   0  0  0  0  0  0  0  0  0  0  0  0
   14.6574   48.6349  138.6021 O   0  0  0  0  0  0  0  0  0  0  0  0
   15.6206   46.6062  136.4977 H   0  0  0  0  0  0  0  0  0  0  0  0
    7.5451   45.6410  129.1617 C   0  0  0  0  0  0  0  0  0  0  0  0
    7.2594   46.9788  129.2175 N   0  0  0  0  0  0  0  0  0  0  0  0
    5.8942   47.4457  129.3423 C   0  0  0  0  0  0  0  0  0  0  0  0
    5.4391   48.6839  129.0634 C   0  0  0  0  0  0  0  0  0  0  0  0
    4.0887   49.0533  129.1769 C   0  0  0  0  0  0  0  0  0  0  0  0
    3.1696   48.1201  129.5913 C   0  0  0  0  0  0  0  0  0  0  0  0
    3.6135   46.8420  129.8831 C   0  0  0  0  0  0  0  0  0  0  0  0
    4.9354   46.4942  129.7681 C   0  0  0  0  0  0  0  0  0  0  0  0
    8.4263   48.2039  128.9124 S   0  0  0  0  0  0  0  0  0  0  0  0
    9.6359   47.6365  128.1941 O   0  0  0  0  0  0  0  0  0  0  0  0
    7.9337   49.3171  128.0175 O   0  0  0  0  0  0  0  0  0  0  0  0
    8.9907   49.0100  130.3558 C   0  0  0  0  0  0  0  0  0  0  0  0
   10.0218   48.5696  131.0980 C   0  0  0  0  0  0  0  0  0  0  0  0
   10.4568   49.2637  132.2357 C   0  0  0  0  0  0  0  0  0  0  0  0
    9.8010   50.4071  132.5715 C   0  0  0  0  0  0  0  0  0  0  0  0
    8.7479   50.8680  131.8231 C   0  0  0  0  0  0  0  0  0  0  0  0
    8.3138   50.1909  130.7023 C   0  0  0  0  0  0  0  0  0  0  0  0
    7.2689   50.6156  129.9304 O   0  0  0  0  0  0  0  0  0  0  0  0
    6.7647   51.7865  129.4923 C   0  0  0  0  0  0  0  0  0  0  0  0
    6.9772   52.1651  128.0763 C   0  0  0  0  0  0  0  0  0  0  0  0
    7.1908   53.4139  127.7090 C   0  0  0  0  0  0  0  0  0  0  0  0
  1  2  1  0  0  0
  2  3  1  0  0  0
  3  4  1  0  0  0
  3  5  2  0  0  0
  5 28  1  0  0  0
 28 29  1  0  0  0
 29 30  1  0  0  0
 30 31  2  0  0  0
 31 32  1  0  0  0
 32 33  2  0  0  0
 33 34  1  0  0  0
 34 35  2  0  0  0
 29 36  1  0  0  0
 36 37  2  0  0  0
 36 38  2  0  0  0
 36 39  1  0  0  0
 39 40  2  0  0  0
 40 41  1  0  0  0
 41 42  2  0  0  0
 42 43  1  0  0  0
 43 44  2  0  0  0
 44 45  1  0  0  0
 45 46  1  0  0  0
 46 47  1  0  0  0
 47 48  2  0  0  0
  5  6  1  0  0  0
  6  7  2  0  0  0
  7  8  1  0  0  0
  8  9  2  0  0  0
  9 10  1  0  0  0
 10 11  2  0  0  0
 11 12  1  0  0  0
 12 13  1  0  0  0
  9 16  1  0  0  0
 16 17  2  0  0  0
 17 18  1  0  0  0
 18 19  2  0  0  0
 19 22  1  0  0  0
 22 23  1  0  0  0
 23 24  1  0  0  0
 24 25  1  0  0  0
 24 26  2  0  0  0
 19 20  1  0  0  0
 20 21  2  0  0  0
 13  2  2  0  0  0
 21 16  1  0  0  0
 35 30  1  0  0  0
 44 39  1  0  0  0
 13  8  1  0  0  0
  1 14  1  0  0  0
 12 15  1  0  0  0
 25 27  1  0  0  0
M  END
> <minimizedAffinity>
17.80561

> <CNNscore>
0.5065124035

> <CNNaffinity>
8.2020521164

> <CNN_VS>
4.1544413567

> <CNNaffinity_variance>
1.1850097179

$$$$
[H]OC(=O)C([H])([H])C([H])([H])c1c([H])c([H])c(C2=C3C([H])=C([H])C(C([H])([H])N(c4c([H])c([H])c([H])c([H])c4[H])S(=O)(=O)c4c([H])c([H])c([H])c([H])c4OC([H])([H])C([H])=C([H])[H])=C(F)C(O[H])=C3N([H])N=N2)c([H])c1[H]


 48 52  0  0  0  0  0  0  0  0999 V2000
    9.6536   50.0171  130.1077 O   0  0  0  0  0  0  0  0  0  0  0  0
    8.8835   48.8624  130.1206 C   0  0  0  0  0  0  0  0  0  0  0  0
    9.6921   47.6222  130.2235 C   0  0  0  0  0  0  0  0  0  0  0  0
   11.0154   47.8817  130.2510 F   0  0  0  0  0  0  0  0  0  0  0  0
    9.2648   46.3963  130.2944 C   0  0  0  0  0  0  0  0  0  0  0  0
    7.8302   45.9471  130.2963 C   0  0  0  0  0  0  0  0  0  0  0  0
    6.6939   46.5801  130.1924 C   0  0  0  0  0  0  0  0  0  0  0  0
    6.5266   48.0155  130.0315 C   0  0  0  0  0  0  0  0  0  0  0  0
    5.2930   48.3506  129.8786 C   0  0  0  0  0  0  0  0  0  0  0  0
    4.9864   49.7604  129.7182 N   0  0  0  0  0  0  0  0  0  0  0  0
    5.8641   50.6623  129.7207 N   0  0  0  0  0  0  0  0  0  0  0  0
    7.2269   50.3963  129.8777 N   0  0  0  0  0  0  0  0  0  0  0  0
    7.5773   49.0274  130.0380 C   0  0  0  0  0  0  0  0  0  0  0  0
    9.7725   50.4532  129.1848 H   0  0  0  0  0  0  0  0  0  0  0  0
    7.9655   51.1108  129.8836 H   0  0  0  0  0  0  0  0  0  0  0  0
    4.1577   47.4313  129.7547 C   0  0  0  0  0  0  0  0  0  0  0  0
    2.9475   47.7795  130.3519 C   0  0  0  0  0  0  0  0  0  0  0  0
    1.8088   47.0112  130.2226 C   0  0  0  0  0  0  0  0  0  0  0  0
    1.8270   45.8453  129.4815 C   0  0  0  0  0  0  0  0  0  0  0  0
    3.0234   45.4974  128.8887 C   0  0  0  0  0  0  0  0  0  0  0  0
    4.1587   46.2689  129.0212 C   0  0  0  0  0  0  0  0  0  0  0  0
    0.6094   45.0078  129.3356 C   0  0  0  0  0  0  0  0  0  0  0  0
   -0.1850   45.4448  128.1026 C   0  0  0  0  0  0  0  0  0  0  0  0
   -0.1901   44.3749  127.0790 C   0  0  0  0  0  0  0  0  0  0  0  0
   -0.6601   43.1042  127.3645 O   0  0  0  0  0  0  0  0  0  0  0  0
    0.2313   44.5680  125.9030 O   0  0  0  0  0  0  0  0  0  0  0  0
   -0.3361   42.5973  128.1978 H   0  0  0  0  0  0  0  0  0  0  0  0
   10.1127   45.2469  130.3891 C   0  0  0  0  0  0  0  0  0  0  0  0
   11.3271   45.0470  130.9890 N   0  0  0  0  0  0  0  0  0  0  0  0
   12.4926   44.6817  130.2109 C   0  0  0  0  0  0  0  0  0  0  0  0
   13.6921   44.2970  130.6916 C   0  0  0  0  0  0  0  0  0  0  0  0
   14.7686   43.9234  129.8703 C   0  0  0  0  0  0  0  0  0  0  0  0
   14.6112   43.9442  128.5057 C   0  0  0  0  0  0  0  0  0  0  0  0
   13.3883   44.3355  127.9891 C   0  0  0  0  0  0  0  0  0  0  0  0
   12.3449   44.6981  128.8024 C   0  0  0  0  0  0  0  0  0  0  0  0
   11.5338   44.9739  132.6941 S   0  0  0  0  0  0  0  0  0  0  0  0
   11.7061   43.5407  133.1604 O   0  0  0  0  0  0  0  0  0  0  0  0
   12.7625   45.6938  133.1988 O   0  0  0  0  0  0  0  0  0  0  0  0
   10.2083   45.6728  133.5919 C   0  0  0  0  0  0  0  0  0  0  0  0
   10.2420   46.9053  134.1283 C   0  0  0  0  0  0  0  0  0  0  0  0
    9.1438   47.4356  134.8197 C   0  0  0  0  0  0  0  0  0  0  0  0
    8.0312   46.6614  134.9340 C   0  0  0  0  0  0  0  0  0  0  0  0
    7.9829   45.4026  134.3913 C   0  0  0  0  0  0  0  0  0  0  0  0
    9.0592   44.8736  133.7094 C   0  0  0  0  0  0  0  0  0  0  0  0
    9.0521   43.6244  133.1550 O   0  0  0  0  0  0  0  0  0  0  0  0
    8.3157   42.9351  132.2607 C   0  0  0  0  0  0  0  0  0  0  0  0
    9.0158   42.1881  131.1905 C   0  0  0  0  0  0  0  0  0  0  0  0
    8.9052   42.5176  129.9180 C   0  0  0  0  0  0  0  0  0  0  0  0
  1  2  1  0  0  0
  2  3  1  0  0  0
  3  4  1  0  0  0
  3  5  2  0  0  0
  5 28  1  0  0  0
 28 29  1  0  0  0
 29 30  1  0  0  0
 30 31  2  0  0  0
 31 32  1  0  0  0
 32 33  2  0  0  0
 33 34  1  0  0  0
 34 35  2  0  0  0
 29 36  1  0  0  0
 36 37  2  0  0  0
 36 38  2  0  0  0
 36 39  1  0  0  0
 39 40  2  0  0  0
 40 41  1  0  0  0
 41 42  2  0  0  0
 42 43  1  0  0  0
 43 44  2  0  0  0
 44 45  1  0  0  0
 45 46  1  0  0  0
 46 47  1  0  0  0
 47 48  2  0  0  0
  5  6  1  0  0  0
  6  7  2  0  0  0
  7  8  1  0  0  0
  8  9  2  0  0  0
  9 10  1  0  0  0
 10 11  2  0  0  0
 11 12  1  0  0  0
 12 13  1  0  0  0
  9 16  1  0  0  0
 16 17  2  0  0  0
 17 18  1  0  0  0
 18 19  2  0  0  0
 19 22  1  0  0  0
 22 23  1  0  0  0
 23 24  1  0  0  0
 24 25  1  0  0  0
 24 26  2  0  0  0
 19 20  1  0  0  0
 20 21  2  0  0  0
 13  2  2  0  0  0
 21 16  1  0  0  0
 35 30  1  0  0  0
 44 39  1  0  0  0
 13  8  1  0  0  0
  1 14  1  0  0  0
 12 15  1  0  0  0
 25 27  1  0  0  0
M  END
> <minimizedAffinity>
13.18175

> <CNNscore>
0.4605742693

> <CNNaffinity>
8.5829133987

> <CNN_VS>
3.9530689716

> <CNNaffinity_variance>
0.3798736632

$$$$
[H]OC(=O)C([H])([H])C([H])([H])c1c([H])c([H])c(C2=C3C([H])=C([H])C(C([H])([H])N(c4c([H])c([H])c([H])c([H])c4[H])S(=O)(=O)c4c([H])c([H])c([H])c([H])c4OC([H])([H])C([H])=C([H])[H])=C(F)C(O[H])=C3N([H])N=N2)c([H])c1[H]


 48 52  0  0  0  0  0  0  0  0999 V2000
    9.6028   50.4372  129.7434 O   0  0  0  0  0  0  0  0  0  0  0  0
    8.8955   49.2434  129.7754 C   0  0  0  0  0  0  0  0  0  0  0  0
    9.7715   48.0454  129.7788 C   0  0  0  0  0  0  0  0  0  0  0  0
   11.0783   48.3739  129.7178 F   0  0  0  0  0  0  0  0  0  0  0  0
    9.4136   46.7970  129.8411 C   0  0  0  0  0  0  0  0  0  0  0  0
    8.0077   46.2724  129.9334 C   0  0  0  0  0  0  0  0  0  0  0  0
    6.8362   46.8469  129.9334 C   0  0  0  0  0  0  0  0  0  0  0  0
    6.5847   48.2755  129.8316 C   0  0  0  0  0  0  0  0  0  0  0  0
    5.3276   48.5489  129.7803 C   0  0  0  0  0  0  0  0  0  0  0  0
    4.9387   49.9444  129.6884 N   0  0  0  0  0  0  0  0  0  0  0  0
    5.7671   50.8912  129.6558 N   0  0  0  0  0  0  0  0  0  0  0  0
    7.1496   50.6935  129.7040 N   0  0  0  0  0  0  0  0  0  0  0  0
    7.5801   49.3411  129.7940 C   0  0  0  0  0  0  0  0  0  0  0  0
    9.6301   50.9051  128.8290 H   0  0  0  0  0  0  0  0  0  0  0  0
    7.8493   51.4457  129.6789 H   0  0  0  0  0  0  0  0  0  0  0  0
    4.2344   47.5745  129.7101 C   0  0  0  0  0  0  0  0  0  0  0  0
    2.9818   47.9390  130.2005 C   0  0  0  0  0  0  0  0  0  0  0  0
    1.8801   47.1137  130.1069 C   0  0  0  0  0  0  0  0  0  0  0  0
    1.9803   45.8710  129.5116 C   0  0  0  0  0  0  0  0  0  0  0  0
    3.2190   45.5067  129.0249 C   0  0  0  0  0  0  0  0  0  0  0  0
    4.3170   46.3353  129.1212 C   0  0  0  0  0  0  0  0  0  0  0  0
    0.8033   44.9718  129.4059 C   0  0  0  0  0  0  0  0  0  0  0  0
   -0.1226   45.4470  128.2838 C   0  0  0  0  0  0  0  0  0  0  0  0
   -0.2009   44.4334  127.2073 C   0  0  0  0  0  0  0  0  0  0  0  0
   -0.6127   43.1367  127.4644 O   0  0  0  0  0  0  0  0  0  0  0  0
    0.1023   44.7004  126.0094 O   0  0  0  0  0  0  0  0  0  0  0  0
   -0.1994   42.5954  128.2342 H   0  0  0  0  0  0  0  0  0  0  0  0
   10.3235   45.6921  129.8364 C   0  0  0  0  0  0  0  0  0  0  0  0
   10.5430   44.6777  130.7294 N   0  0  0  0  0  0  0  0  0  0  0  0
    9.5353   43.6665  130.9725 C   0  0  0  0  0  0  0  0  0  0  0  0
    9.1423   42.7009  130.1174 C   0  0  0  0  0  0  0  0  0  0  0  0
    8.1791   41.7305  130.4393 C   0  0  0  0  0  0  0  0  0  0  0  0
    7.5966   41.7491  131.6833 C   0  0  0  0  0  0  0  0  0  0  0  0
    7.9845   42.7310  132.5782 C   0  0  0  0  0  0  0  0  0  0  0  0
    8.9264   43.6731  132.2512 C   0  0  0  0  0  0  0  0  0  0  0  0
   11.8916   44.6374  131.7948 S   0  0  0  0  0  0  0  0  0  0  0  0
   12.7989   43.4632  131.4799 O   0  0  0  0  0  0  0  0  0  0  0  0
   12.7867   45.8512  131.7045 O   0  0  0  0  0  0  0  0  0  0  0  0
   11.4499   44.5347  133.4818 C   0  0  0  0  0  0  0  0  0  0  0  0
   11.7816   43.5012  134.2754 C   0  0  0  0  0  0  0  0  0  0  0  0
   11.4271   43.4733  135.6314 C   0  0  0  0  0  0  0  0  0  0  0  0
   10.7315   44.5315  136.1279 C   0  0  0  0  0  0  0  0  0  0  0  0
   10.3869   45.5925  135.3299 C   0  0  0  0  0  0  0  0  0  0  0  0
   10.7320   45.6277  133.9946 C   0  0  0  0  0  0  0  0  0  0  0  0
   10.4076   46.6648  133.1658 O   0  0  0  0  0  0  0  0  0  0  0  0
    9.6109   47.7518  133.1943 C   0  0  0  0  0  0  0  0  0  0  0  0
   10.2124   49.0794  132.9312 C   0  0  0  0  0  0  0  0  0  0  0  0
    9.5496   50.2018  133.1337 C   0  0  0  0  0  0  0  0  0  0  0  0
  1  2  1  0  0  0
  2  3  1  0  0  0
  3  4  1  0  0  0
  3  5  2  0  0  0
  5 28  1  0  0  0
 28 29  1  0  0  0
 29 30  1  0  0  0
 30 31  2  0  0  0
 31 32  1  0  0  0
 32 33  2  0  0  0
 33 34  1  0  0  0
 34 35  2  0  0  0
 29 36  1  0  0  0
 36 37  2  0  0  0
 36 38  2  0  0  0
 36 39  1  0  0  0
 39 40  2  0  0  0
 40 41  1  0  0  0
 41 42  2  0  0  0
 42 43  1  0  0  0
 43 44  2  0  0  0
 44 45  1  0  0  0
 45 46  1  0  0  0
 46 47  1  0  0  0
 47 48  2  0  0  0
  5  6  1  0  0  0
  6  7  2  0  0  0
  7  8  1  0  0  0
  8  9  2  0  0  0
  9 10  1  0  0  0
 10 11  2  0  0  0
 11 12  1  0  0  0
 12 13  1  0  0  0
  9 16  1  0  0  0
 16 17  2  0  0  0
 17 18  1  0  0  0
 18 19  2  0  0  0
 19 22  1  0  0  0
 22 23  1  0  0  0
 23 24  1  0  0  0
 24 25  1  0  0  0
 24 26  2  0  0  0
 19 20  1  0  0  0
 20 21  2  0  0  0
 13  2  2  0  0  0
 21 16  1  0  0  0
 35 30  1  0  0  0
 44 39  1  0  0  0
 13  8  1  0  0  0
  1 14  1  0  0  0
 12 15  1  0  0  0
 25 27  1  0  0  0
M  END
> <minimizedAffinity>
12.52068

> <CNNscore>
0.4371601939

> <CNNaffinity>
8.4819421768

> <CNN_VS>
3.7079675198

> <CNNaffinity_variance>
0.5215658545

$$$$
[H]OC(=O)C([H])([H])C([H])([H])c1c([H])c([H])c(C2=C3C([H])=C([H])C(C([H])([H])N(c4c([H])c([H])c([H])c([H])c4[H])S(=O)(=O)c4c([H])c([H])c([H])c([H])c4OC([H])([H])C([H])=C([H])[H])=C(F)C(O[H])=C3N([H])N=N2)c([H])c1[H]


 48 52  0  0  0  0  0  0  0  0999 V2000
   11.3851   42.6302  128.2656 O   0  0  0  0  0  0  0  0  0  0  0  0
   10.8118   43.6341  129.0337 C   0  0  0  0  0  0  0  0  0  0  0  0
   10.7206   43.2877  130.4740 C   0  0  0  0  0  0  0  0  0  0  0  0
   11.1891   42.0485  130.7270 F   0  0  0  0  0  0  0  0  0  0  0  0
   10.2696   44.0267  131.4440 C   0  0  0  0  0  0  0  0  0  0  0  0
    9.7357   45.4273  131.3286 C   0  0  0  0  0  0  0  0  0  0  0  0
    9.5394   46.2299  130.3187 C   0  0  0  0  0  0  0  0  0  0  0  0
    9.8157   45.9310  128.9228 C   0  0  0  0  0  0  0  0  0  0  0  0
    9.4516   46.8833  128.1367 C   0  0  0  0  0  0  0  0  0  0  0  0
    9.6822   46.7156  126.7134 N   0  0  0  0  0  0  0  0  0  0  0  0
   10.2164   45.6900  126.2168 N   0  0  0  0  0  0  0  0  0  0  0  0
   10.6418   44.6053  126.9882 N   0  0  0  0  0  0  0  0  0  0  0  0
   10.4363   44.7229  128.3905 C   0  0  0  0  0  0  0  0  0  0  0  0
   10.7236   42.0696  127.7142 H   0  0  0  0  0  0  0  0  0  0  0  0
   11.0802   43.7557  126.6115 H   0  0  0  0  0  0  0  0  0  0  0  0
    8.7319   48.0989  128.5288 C   0  0  0  0  0  0  0  0  0  0  0  0
    7.4242   48.2754  128.0805 C   0  0  0  0  0  0  0  0  0  0  0  0
    6.6486   49.3511  128.4615 C   0  0  0  0  0  0  0  0  0  0  0  0
    7.1501   50.3117  129.3185 C   0  0  0  0  0  0  0  0  0  0  0  0
    8.4445   50.1403  129.7645 C   0  0  0  0  0  0  0  0  0  0  0  0
    9.2154   49.0633  129.3806 C   0  0  0  0  0  0  0  0  0  0  0  0
    6.3271   51.4755  129.7351 C   0  0  0  0  0  0  0  0  0  0  0  0
    7.1330   52.7685  129.5901 C   0  0  0  0  0  0  0  0  0  0  0  0
    7.0527   53.2806  128.2031 C   0  0  0  0  0  0  0  0  0  0  0  0
    7.6105   54.4973  127.8488 O   0  0  0  0  0  0  0  0  0  0  0  0
    6.4752   52.6366  127.2813 O   0  0  0  0  0  0  0  0  0  0  0  0
    7.4190   55.3447  128.3979 H   0  0  0  0  0  0  0  0  0  0  0  0
   10.2113   43.6177  132.8145 C   0  0  0  0  0  0  0  0  0  0  0  0
    9.2113   43.6705  133.7482 N   0  0  0  0  0  0  0  0  0  0  0  0
    8.1828   42.6523  133.7985 C   0  0  0  0  0  0  0  0  0  0  0  0
    7.8064   41.9422  134.8811 C   0  0  0  0  0  0  0  0  0  0  0  0
    6.7724   40.9919  134.8592 C   0  0  0  0  0  0  0  0  0  0  0  0
    6.0980   40.7600  133.6850 C   0  0  0  0  0  0  0  0  0  0  0  0
    6.4666   41.4775  132.5603 C   0  0  0  0  0  0  0  0  0  0  0  0
    7.4786   42.4028  132.5952 C   0  0  0  0  0  0  0  0  0  0  0  0
    8.9444   45.0306  134.7652 S   0  0  0  0  0  0  0  0  0  0  0  0
    7.5084   45.0723  135.2525 O   0  0  0  0  0  0  0  0  0  0  0  0
    9.7791   45.0335  136.0246 O   0  0  0  0  0  0  0  0  0  0  0  0
    9.2930   46.5602  133.9967 C   0  0  0  0  0  0  0  0  0  0  0  0
    8.3434   47.4119  133.5717 C   0  0  0  0  0  0  0  0  0  0  0  0
    8.6700   48.6414  132.9827 C   0  0  0  0  0  0  0  0  0  0  0  0
    9.9877   48.9529  132.8520 C   0  0  0  0  0  0  0  0  0  0  0  0
   10.9667   48.0936  133.2816 C   0  0  0  0  0  0  0  0  0  0  0  0
   10.6536   46.8820  133.8622 C   0  0  0  0  0  0  0  0  0  0  0  0
   11.5982   45.9978  134.3024 O   0  0  0  0  0  0  0  0  0  0  0  0
   12.7156   45.4135  133.8257 C   0  0  0  0  0  0  0  0  0  0  0  0
   12.9928   44.0061  134.1941 C   0  0  0  0  0  0  0  0  0  0  0  0
   12.3878   43.4141  135.2057 C   0  0  0  0  0  0  0  0  0  0  0  0
  1  2  1  0  0  0
  2  3  1  0  0  0
  3  4  1  0  0  0
  3  5  2  0  0  0
  5 28  1  0  0  0
 28 29  1  0  0  0
 29 30  1  0  0  0
 30 31  2  0  0  0
 31 32  1  0  0  0
 32 33  2  0  0  0
 33 34  1  0  0  0
 34 35  2  0  0  0
 29 36  1  0  0  0
 36 37  2  0  0  0
 36 38  2  0  0  0
 36 39  1  0  0  0
 39 40  2  0  0  0
 40 41  1  0  0  0
 41 42  2  0  0  0
 42 43  1  0  0  0
 43 44  2  0  0  0
 44 45  1  0  0  0
 45 46  1  0  0  0
 46 47  1  0  0  0
 47 48  2  0  0  0
  5  6  1  0  0  0
  6  7  2  0  0  0
  7  8  1  0  0  0
  8  9  2  0  0  0
  9 10  1  0  0  0
 10 11  2  0  0  0
 11 12  1  0  0  0
 12 13  1  0  0  0
  9 16  1  0  0  0
 16 17  2  0  0  0
 17 18  1  0  0  0
 18 19  2  0  0  0
 19 22  1  0  0  0
 22 23  1  0  0  0
 23 24  1  0  0  0
 24 25  1  0  0  0
 24 26  2  0  0  0
 19 20  1  0  0  0
 20 21  2  0  0  0
 13  2  2  0  0  0
 21 16  1  0  0  0
 35 30  1  0  0  0
 44 39  1  0  0  0
 13  8  1  0  0  0
  1 14  1  0  0  0
 12 15  1  0  0  0
 25 27  1  0  0  0
M  END
> <minimizedAffinity>
20.93556

> <CNNscore>
0.4166705310

> <CNNaffinity>
7.7456002235

> <CNN_VS>
3.2273633480

> <CNNaffinity_variance>
0.5458934903

$$$$
[H]OC(=O)C([H])([H])C([H])([H])c1c([H])c([H])c(C2=C3C([H])=C([H])C(C([H])([H])N(c4c([H])c([H])c([H])c([H])c4[H])S(=O)(=O)c4c([H])c([H])c([H])c([H])c4OC([H])([H])C([H])=C([H])[H])=C(F)C(O[H])=C3N([H])N=N2)c([H])c1[H]


 48 52  0  0  0  0  0  0  0  0999 V2000
    9.4438   50.1715  129.7734 O   0  0  0  0  0  0  0  0  0  0  0  0
    8.6400   49.0425  129.6979 C   0  0  0  0  0  0  0  0  0  0  0  0
    9.4085   47.7918  129.4791 C   0  0  0  0  0  0  0  0  0  0  0  0
   10.7324   48.0244  129.3679 F   0  0  0  0  0  0  0  0  0  0  0  0
    8.9492   46.5780  129.4011 C   0  0  0  0  0  0  0  0  0  0  0  0
    7.5118   46.1551  129.5246 C   0  0  0  0  0  0  0  0  0  0  0  0
    6.3961   46.8123  129.6854 C   0  0  0  0  0  0  0  0  0  0  0  0
    6.2624   48.2563  129.7923 C   0  0  0  0  0  0  0  0  0  0  0  0
    5.0326   48.6298  129.8687 C   0  0  0  0  0  0  0  0  0  0  0  0
    4.7600   50.0503  129.9910 N   0  0  0  0  0  0  0  0  0  0  0  0
    5.6631   50.9262  130.0243 N   0  0  0  0  0  0  0  0  0  0  0  0
    7.0239   50.6183  129.9458 N   0  0  0  0  0  0  0  0  0  0  0  0
    7.3414   49.2373  129.8243 C   0  0  0  0  0  0  0  0  0  0  0  0
    9.4551   50.7576  128.9295 H   0  0  0  0  0  0  0  0  0  0  0  0
    7.7827   51.3108  129.9701 H   0  0  0  0  0  0  0  0  0  0  0  0
    3.8576   47.7612  129.7493 C   0  0  0  0  0  0  0  0  0  0  0  0
    4.0390   46.4459  129.3260 C   0  0  0  0  0  0  0  0  0  0  0  0
    3.0011   45.5393  129.2573 C   0  0  0  0  0  0  0  0  0  0  0  0
    1.7185   45.9098  129.6127 C   0  0  0  0  0  0  0  0  0  0  0  0
    1.5350   47.2114  130.0323 C   0  0  0  0  0  0  0  0  0  0  0  0
    2.5758   48.1136  130.0991 C   0  0  0  0  0  0  0  0  0  0  0  0
    0.5919   44.9450  129.5416 C   0  0  0  0  0  0  0  0  0  0  0  0
   -0.3614   45.3319  128.4085 C   0  0  0  0  0  0  0  0  0  0  0  0
   -0.1870   44.4286  127.2484 C   0  0  0  0  0  0  0  0  0  0  0  0
   -0.5388   43.0910  127.3150 O   0  0  0  0  0  0  0  0  0  0  0  0
    0.2882   44.8314  126.1484 O   0  0  0  0  0  0  0  0  0  0  0  0
   -0.2188   42.5000  128.0925 H   0  0  0  0  0  0  0  0  0  0  0  0
    9.7589   45.4177  129.1843 C   0  0  0  0  0  0  0  0  0  0  0  0
   10.5012   44.6424  130.0342 N   0  0  0  0  0  0  0  0  0  0  0  0
   11.9324   44.5053  129.8612 C   0  0  0  0  0  0  0  0  0  0  0  0
   12.8400   44.2647  130.8289 C   0  0  0  0  0  0  0  0  0  0  0  0
   14.2131   44.1096  130.5775 C   0  0  0  0  0  0  0  0  0  0  0  0
   14.6746   44.2040  129.2870 C   0  0  0  0  0  0  0  0  0  0  0  0
   13.7612   44.4502  128.2767 C   0  0  0  0  0  0  0  0  0  0  0  0
   12.4226   44.5998  128.5358 C   0  0  0  0  0  0  0  0  0  0  0  0
    9.8024   43.5959  131.2056 S   0  0  0  0  0  0  0  0  0  0  0  0
    8.2875   43.6538  131.1524 O   0  0  0  0  0  0  0  0  0  0  0  0
   10.1395   42.1362  131.0091 O   0  0  0  0  0  0  0  0  0  0  0  0
   10.2941   43.9495  132.8441 C   0  0  0  0  0  0  0  0  0  0  0  0
   11.1172   43.1628  133.5593 C   0  0  0  0  0  0  0  0  0  0  0  0
   11.5056   43.4997  134.8635 C   0  0  0  0  0  0  0  0  0  0  0  0
   11.0224   44.6565  135.3913 C   0  0  0  0  0  0  0  0  0  0  0  0
   10.1823   45.4686  134.6728 C   0  0  0  0  0  0  0  0  0  0  0  0
    9.7955   45.1443  133.3889 C   0  0  0  0  0  0  0  0  0  0  0  0
    8.9603   45.9251  132.6401 O   0  0  0  0  0  0  0  0  0  0  0  0
    8.3460   47.1198  132.7518 C   0  0  0  0  0  0  0  0  0  0  0  0
    9.0700   48.2310  133.4109 C   0  0  0  0  0  0  0  0  0  0  0  0
   10.1179   48.8106  132.8578 C   0  0  0  0  0  0  0  0  0  0  0  0
  1  2  1  0  0  0
  2  3  1  0  0  0
  3  4  1  0  0  0
  3  5  2  0  0  0
  5 28  1  0  0  0
 28 29  1  0  0  0
 29 30  1  0  0  0
 30 31  2  0  0  0
 31 32  1  0  0  0
 32 33  2  0  0  0
 33 34  1  0  0  0
 34 35  2  0  0  0
 29 36  1  0  0  0
 36 37  2  0  0  0
 36 38  2  0  0  0
 36 39  1  0  0  0
 39 40  2  0  0  0
 40 41  1  0  0  0
 41 42  2  0  0  0
 42 43  1  0  0  0
 43 44  2  0  0  0
 44 45  1  0  0  0
 45 46  1  0  0  0
 46 47  1  0  0  0
 47 48  2  0  0  0
  5  6  1  0  0  0
  6  7  2  0  0  0
  7  8  1  0  0  0
  8  9  2  0  0  0
  9 10  1  0  0  0
 10 11  2  0  0  0
 11 12  1  0  0  0
 12 13  1  0  0  0
  9 16  1  0  0  0
 16 17  2  0  0  0
 17 18  1  0  0  0
 18 19  2  0  0  0
 19 22  1  0  0  0
 22 23  1  0  0  0
 23 24  1  0  0  0
 24 25  1  0  0  0
 24 26  2  0  0  0
 19 20  1  0  0  0
 20 21  2  0  0  0
 13  2  2  0  0  0
 21 16  1  0  0  0
 35 30  1  0  0  0
 44 39  1  0  0  0
 13  8  1  0  0  0
  1 14  1  0  0  0
 12 15  1  0  0  0
 25 27  1  0  0  0
M  END
> <minimizedAffinity>
12.94573

> <CNNscore>
0.3964917362

> <CNNaffinity>
8.4392385483

> <CNN_VS>
3.3460884094

> <CNNaffinity_variance>
0.4126776755

$$$$
[H]OC(=O)C([H])([H])C([H])([H])c1c([H])c([H])c(C2=C3C([H])=C([H])C(C([H])([H])N(c4c([H])c([H])c([H])c([H])c4[H])S(=O)(=O)c4c([H])c([H])c([H])c([H])c4OC([H])([H])C([H])=C([H])[H])=C(F)C(O[H])=C3N([H])N=N2)c([H])c1[H]


 48 52  0  0  0  0  0  0  0  0999 V2000
   10.5745   42.7188  129.8168 O   0  0  0  0  0  0  0  0  0  0  0  0
   10.4983   44.0595  130.1678 C   0  0  0  0  0  0  0  0  0  0  0  0
   11.4370   44.4330  131.2549 C   0  0  0  0  0  0  0  0  0  0  0  0
   12.1478   43.3747  131.6956 F   0  0  0  0  0  0  0  0  0  0  0  0
   11.6265   45.6097  131.7745 C   0  0  0  0  0  0  0  0  0  0  0  0
   10.9325   46.8840  131.3815 C   0  0  0  0  0  0  0  0  0  0  0  0
    9.9929   47.1626  130.5201 C   0  0  0  0  0  0  0  0  0  0  0  0
    9.3234   46.2111  129.6478 C   0  0  0  0  0  0  0  0  0  0  0  0
    8.3840   46.7570  128.9571 C   0  0  0  0  0  0  0  0  0  0  0  0
    7.6417   45.9165  128.0354 N   0  0  0  0  0  0  0  0  0  0  0  0
    7.8718   44.6886  127.8827 N   0  0  0  0  0  0  0  0  0  0  0  0
    8.8678   44.0084  128.5882 N   0  0  0  0  0  0  0  0  0  0  0  0
    9.6228   44.7906  129.5051 C   0  0  0  0  0  0  0  0  0  0  0  0
    9.8156   42.1281  130.1787 H   0  0  0  0  0  0  0  0  0  0  0  0
    9.0782   43.0078  128.4851 H   0  0  0  0  0  0  0  0  0  0  0  0
    7.9182   48.1420  129.0761 C   0  0  0  0  0  0  0  0  0  0  0  0
    8.3037   49.0626  128.1033 C   0  0  0  0  0  0  0  0  0  0  0  0
    7.8517   50.3662  128.0958 C   0  0  0  0  0  0  0  0  0  0  0  0
    6.9830   50.8155  129.0717 C   0  0  0  0  0  0  0  0  0  0  0  0
    6.5991   49.9068  130.0363 C   0  0  0  0  0  0  0  0  0  0  0  0
    7.0539   48.6050  130.0394 C   0  0  0  0  0  0  0  0  0  0  0  0
    6.4903   52.2164  129.0767 C   0  0  0  0  0  0  0  0  0  0  0  0
    6.2626   52.6991  127.6423 C   0  0  0  0  0  0  0  0  0  0  0  0
    6.9921   53.9637  127.3954 C   0  0  0  0  0  0  0  0  0  0  0  0
    7.9999   54.3936  128.2419 O   0  0  0  0  0  0  0  0  0  0  0  0
    6.7323   54.7074  126.4067 O   0  0  0  0  0  0  0  0  0  0  0  0
    7.8548   54.4290  129.2587 H   0  0  0  0  0  0  0  0  0  0  0  0
   12.5535   45.8903  132.8285 C   0  0  0  0  0  0  0  0  0  0  0  0
   12.4305   45.8667  134.1919 N   0  0  0  0  0  0  0  0  0  0  0  0
   13.2351   46.7323  135.0288 C   0  0  0  0  0  0  0  0  0  0  0  0
   14.5017   46.5090  135.4335 C   0  0  0  0  0  0  0  0  0  0  0  0
   15.2317   47.4157  136.2195 C   0  0  0  0  0  0  0  0  0  0  0  0
   14.6432   48.5955  136.6055 C   0  0  0  0  0  0  0  0  0  0  0  0
   13.3434   48.8468  136.2016 C   0  0  0  0  0  0  0  0  0  0  0  0
   12.6414   47.9526  135.4341 C   0  0  0  0  0  0  0  0  0  0  0  0
   11.5161   44.6790  135.0338 S   0  0  0  0  0  0  0  0  0  0  0  0
   12.3700   43.4703  135.3673 O   0  0  0  0  0  0  0  0  0  0  0  0
   10.9729   45.1461  136.3641 O   0  0  0  0  0  0  0  0  0  0  0  0
   10.1155   44.1179  134.1535 C   0  0  0  0  0  0  0  0  0  0  0  0
    9.8019   42.8188  134.0055 C   0  0  0  0  0  0  0  0  0  0  0  0
    8.6527   42.4152  133.3115 C   0  0  0  0  0  0  0  0  0  0  0  0
    7.8546   43.3838  132.7868 C   0  0  0  0  0  0  0  0  0  0  0  0
    8.1622   44.7128  132.9306 C   0  0  0  0  0  0  0  0  0  0  0  0
    9.2912   45.1181  133.6121 C   0  0  0  0  0  0  0  0  0  0  0  0
    9.6337   46.4309  133.7771 O   0  0  0  0  0  0  0  0  0  0  0  0
    9.1816   47.5005  134.4618 C   0  0  0  0  0  0  0  0  0  0  0  0
    8.1470   47.2922  135.5009 C   0  0  0  0  0  0  0  0  0  0  0  0
    7.5399   48.2999  136.0976 C   0  0  0  0  0  0  0  0  0  0  0  0
  1  2  1  0  0  0
  2  3  1  0  0  0
  3  4  1  0  0  0
  3  5  2  0  0  0
  5 28  1  0  0  0
 28 29  1  0  0  0
 29 30  1  0  0  0
 30 31  2  0  0  0
 31 32  1  0  0  0
 32 33  2  0  0  0
 33 34  1  0  0  0
 34 35  2  0  0  0
 29 36  1  0  0  0
 36 37  2  0  0  0
 36 38  2  0  0  0
 36 39  1  0  0  0
 39 40  2  0  0  0
 40 41  1  0  0  0
 41 42  2  0  0  0
 42 43  1  0  0  0
 43 44  2  0  0  0
 44 45  1  0  0  0
 45 46  1  0  0  0
 46 47  1  0  0  0
 47 48  2  0  0  0
  5  6  1  0  0  0
  6  7  2  0  0  0
  7  8  1  0  0  0
  8  9  2  0  0  0
  9 10  1  0  0  0
 10 11  2  0  0  0
 11 12  1  0  0  0
 12 13  1  0  0  0
  9 16  1  0  0  0
 16 17  2  0  0  0
 17 18  1  0  0  0
 18 19  2  0  0  0
 19 22  1  0  0  0
 22 23  1  0  0  0
 23 24  1  0  0  0
 24 25  1  0  0  0
 24 26  2  0  0  0
 19 20  1  0  0  0
 20 21  2  0  0  0
 13  2  2  0  0  0
 21 16  1  0  0  0
 35 30  1  0  0  0
 44 39  1  0  0  0
 13  8  1  0  0  0
  1 14  1  0  0  0
 12 15  1  0  0  0
 25 27  1  0  0  0
M  END
> <minimizedAffinity>
19.22903

> <CNNscore>
0.3923703432

> <CNNaffinity>
7.8546881676

> <CNN_VS>
3.0819466114

> <CNNaffinity_variance>
0.4614999890

$$$$
[H]OC(=O)C([H])([H])C([H])([H])c1c([H])c([H])c(C2=C3C([H])=C([H])C(C([H])([H])N(c4c([H])c([H])c([H])c([H])c4[H])S(=O)(=O)c4c([H])c([H])c([H])c([H])c4OC([H])([H])C([H])=C([H])[H])=C(F)C(O[H])=C3N([H])N=N2)c([H])c1[H]


 48 52  0  0  0  0  0  0  0  0999 V2000
    9.5968   50.4294  130.1812 O   0  0  0  0  0  0  0  0  0  0  0  0
    8.8700   49.2475  130.2191 C   0  0  0  0  0  0  0  0  0  0  0  0
    9.7196   48.0451  130.4068 C   0  0  0  0  0  0  0  0  0  0  0  0
   11.0304   48.3565  130.4695 F   0  0  0  0  0  0  0  0  0  0  0  0
    9.3356   46.8079  130.5179 C   0  0  0  0  0  0  0  0  0  0  0  0
    7.9195   46.3041  130.4892 C   0  0  0  0  0  0  0  0  0  0  0  0
    6.7652   46.8876  130.3164 C   0  0  0  0  0  0  0  0  0  0  0  0
    6.5511   48.3071  130.0849 C   0  0  0  0  0  0  0  0  0  0  0  0
    5.3124   48.5872  129.8732 C   0  0  0  0  0  0  0  0  0  0  0  0
    4.9600   49.9757  129.6384 N   0  0  0  0  0  0  0  0  0  0  0  0
    5.8031   50.9101  129.6312 N   0  0  0  0  0  0  0  0  0  0  0  0
    7.1680   50.7041  129.8484 N   0  0  0  0  0  0  0  0  0  0  0  0
    7.5626   49.3581  130.0829 C   0  0  0  0  0  0  0  0  0  0  0  0
    9.7337   50.8288  129.2444 H   0  0  0  0  0  0  0  0  0  0  0  0
    7.8789   51.4462  129.8481 H   0  0  0  0  0  0  0  0  0  0  0  0
    4.2173   47.6202  129.7509 C   0  0  0  0  0  0  0  0  0  0  0  0
    2.9643   47.9620  130.2564 C   0  0  0  0  0  0  0  0  0  0  0  0
    1.8611   47.1450  130.1182 C   0  0  0  0  0  0  0  0  0  0  0  0
    1.9601   45.9341  129.4604 C   0  0  0  0  0  0  0  0  0  0  0  0
    3.1991   45.5924  128.9585 C   0  0  0  0  0  0  0  0  0  0  0  0
    4.2986   46.4126  129.0994 C   0  0  0  0  0  0  0  0  0  0  0  0
    0.7813   45.0442  129.3061 C   0  0  0  0  0  0  0  0  0  0  0  0
   -0.0802   45.5113  128.1305 C   0  0  0  0  0  0  0  0  0  0  0  0
   -0.1699   44.4547  127.0971 C   0  0  0  0  0  0  0  0  0  0  0  0
   -0.6591   43.1938  127.3937 O   0  0  0  0  0  0  0  0  0  0  0  0
    0.1931   44.6507  125.9022 O   0  0  0  0  0  0  0  0  0  0  0  0
   -0.3052   42.6680  128.2027 H   0  0  0  0  0  0  0  0  0  0  0  0
   10.2213   45.6975  130.6946 C   0  0  0  0  0  0  0  0  0  0  0  0
    9.9936   44.3647  130.9099 N   0  0  0  0  0  0  0  0  0  0  0  0
    9.9771   43.4232  129.8097 C   0  0  0  0  0  0  0  0  0  0  0  0
    9.8643   42.0826  129.9001 C   0  0  0  0  0  0  0  0  0  0  0  0
    9.8210   41.2349  128.7811 C   0  0  0  0  0  0  0  0  0  0  0  0
    9.8958   41.7798  127.5222 C   0  0  0  0  0  0  0  0  0  0  0  0
   10.0118   43.1540  127.4046 C   0  0  0  0  0  0  0  0  0  0  0  0
   10.0530   43.9708  128.5058 C   0  0  0  0  0  0  0  0  0  0  0  0
    9.4818   43.7300  132.4235 S   0  0  0  0  0  0  0  0  0  0  0  0
    8.1425   43.0294  132.2949 O   0  0  0  0  0  0  0  0  0  0  0  0
   10.4090   42.6861  133.0008 O   0  0  0  0  0  0  0  0  0  0  0  0
    9.3355   44.9377  133.6771 C   0  0  0  0  0  0  0  0  0  0  0  0
    8.1576   45.4189  134.1118 C   0  0  0  0  0  0  0  0  0  0  0  0
    8.0871   46.3701  135.1392 C   0  0  0  0  0  0  0  0  0  0  0  0
    9.2549   46.7971  135.6907 C   0  0  0  0  0  0  0  0  0  0  0  0
   10.4634   46.3143  135.2573 C   0  0  0  0  0  0  0  0  0  0  0  0
   10.5414   45.3782  134.2469 C   0  0  0  0  0  0  0  0  0  0  0  0
   11.7245   44.8727  133.7859 O   0  0  0  0  0  0  0  0  0  0  0  0
   12.6950   45.2358  132.9235 C   0  0  0  0  0  0  0  0  0  0  0  0
   13.1414   44.2576  131.9050 C   0  0  0  0  0  0  0  0  0  0  0  0
   13.1367   44.5365  130.6158 C   0  0  0  0  0  0  0  0  0  0  0  0
  1  2  1  0  0  0
  2  3  1  0  0  0
  3  4  1  0  0  0
  3  5  2  0  0  0
  5 28  1  0  0  0
 28 29  1  0  0  0
 29 30  1  0  0  0
 30 31  2  0  0  0
 31 32  1  0  0  0
 32 33  2  0  0  0
 33 34  1  0  0  0
 34 35  2  0  0  0
 29 36  1  0  0  0
 36 37  2  0  0  0
 36 38  2  0  0  0
 36 39  1  0  0  0
 39 40  2  0  0  0
 40 41  1  0  0  0
 41 42  2  0  0  0
 42 43  1  0  0  0
 43 44  2  0  0  0
 44 45  1  0  0  0
 45 46  1  0  0  0
 46 47  1  0  0  0
 47 48  2  0  0  0
  5  6  1  0  0  0
  6  7  2  0  0  0
  7  8  1  0  0  0
  8  9  2  0  0  0
  9 10  1  0  0  0
 10 11  2  0  0  0
 11 12  1  0  0  0
 12 13  1  0  0  0
  9 16  1  0  0  0
 16 17  2  0  0  0
 17 18  1  0  0  0
 18 19  2  0  0  0
 19 22  1  0  0  0
 22 23  1  0  0  0
 23 24  1  0  0  0
 24 25  1  0  0  0
 24 26  2  0  0  0
 19 20  1  0  0  0
 20 21  2  0  0  0
 13  2  2  0  0  0
 21 16  1  0  0  0
 35 30  1  0  0  0
 44 39  1  0  0  0
 13  8  1  0  0  0
  1 14  1  0  0  0
 12 15  1  0  0  0
 25 27  1  0  0  0
M  END
> <minimizedAffinity>
14.10356

> <CNNscore>
0.3826497793

> <CNNaffinity>
8.4524307251

> <CNN_VS>
3.2343206406

> <CNNaffinity_variance>
0.5347071886

$$$$
[H]OC(=O)C([H])([H])C([H])([H])c1c([H])c([H])c(C2=C3C([H])=C([H])C(C([H])([H])N(c4c([H])c([H])c([H])c([H])c4[H])S(=O)(=O)c4c([H])c([H])c([H])c([H])c4OC([H])([H])C([H])=C([H])[H])=C(F)C(O[H])=C3N([H])N=N2)c([H])c1[H]


 48 52  0  0  0  0  0  0  0  0999 V2000
   12.6762   42.8726  129.7887 O   0  0  0  0  0  0  0  0  0  0  0  0
   11.9693   44.0182  130.1270 C   0  0  0  0  0  0  0  0  0  0  0  0
   12.5299   44.7235  131.3064 C   0  0  0  0  0  0  0  0  0  0  0  0
   13.5967   44.0788  131.8216 F   0  0  0  0  0  0  0  0  0  0  0  0
   12.1168   45.8345  131.8407 C   0  0  0  0  0  0  0  0  0  0  0  0
   10.9626   46.6773  131.3742 C   0  0  0  0  0  0  0  0  0  0  0  0
   10.0851   46.5428  130.4179 C   0  0  0  0  0  0  0  0  0  0  0  0
   10.0042   45.4331  129.4818 C   0  0  0  0  0  0  0  0  0  0  0  0
    8.9898   45.5293  128.6948 C   0  0  0  0  0  0  0  0  0  0  0  0
    8.7989   44.4881  127.7015 N   0  0  0  0  0  0  0  0  0  0  0  0
    9.5724   43.5033  127.5764 N   0  0  0  0  0  0  0  0  0  0  0  0
   10.6963   43.3120  128.3844 N   0  0  0  0  0  0  0  0  0  0  0  0
   10.9253   44.3071  129.3742 C   0  0  0  0  0  0  0  0  0  0  0  0
   12.2357   41.9878  130.0697 H   0  0  0  0  0  0  0  0  0  0  0  0
   11.3449   42.5188  128.3060 H   0  0  0  0  0  0  0  0  0  0  0  0
    7.9394   46.5499  128.7612 C   0  0  0  0  0  0  0  0  0  0  0  0
    6.7528   46.2454  129.4256 C   0  0  0  0  0  0  0  0  0  0  0  0
    5.7430   47.1693  129.6007 C   0  0  0  0  0  0  0  0  0  0  0  0
    5.8740   48.4557  129.1141 C   0  0  0  0  0  0  0  0  0  0  0  0
    7.0476   48.7608  128.4557 C   0  0  0  0  0  0  0  0  0  0  0  0
    8.0537   47.8336  128.2833 C   0  0  0  0  0  0  0  0  0  0  0  0
    4.7945   49.4594  129.2937 C   0  0  0  0  0  0  0  0  0  0  0  0
    5.2242   50.5177  130.3123 C   0  0  0  0  0  0  0  0  0  0  0  0
    6.6032   50.9799  130.0344 C   0  0  0  0  0  0  0  0  0  0  0  0
    6.8878   51.7937  128.9510 O   0  0  0  0  0  0  0  0  0  0  0  0
    7.5810   50.6564  130.7674 O   0  0  0  0  0  0  0  0  0  0  0  0
    6.5518   51.5547  128.0096 H   0  0  0  0  0  0  0  0  0  0  0  0
   12.7120   46.4532  132.9860 C   0  0  0  0  0  0  0  0  0  0  0  0
   12.2694   46.6310  134.2694 N   0  0  0  0  0  0  0  0  0  0  0  0
   13.0272   47.4210  135.2174 C   0  0  0  0  0  0  0  0  0  0  0  0
   12.6210   48.5528  135.8274 C   0  0  0  0  0  0  0  0  0  0  0  0
   13.4028   49.2470  136.7654 C   0  0  0  0  0  0  0  0  0  0  0  0
   14.6470   48.7644  137.0914 C   0  0  0  0  0  0  0  0  0  0  0  0
   15.0853   47.6035  136.4781 C   0  0  0  0  0  0  0  0  0  0  0  0
   14.3118   46.9352  135.5634 C   0  0  0  0  0  0  0  0  0  0  0  0
   10.9402   45.7671  134.9346 S   0  0  0  0  0  0  0  0  0  0  0  0
   11.2682   44.2934  135.0823 O   0  0  0  0  0  0  0  0  0  0  0  0
   10.5448   46.2149  136.3223 O   0  0  0  0  0  0  0  0  0  0  0  0
    9.4761   45.8972  133.9908 C   0  0  0  0  0  0  0  0  0  0  0  0
    8.7582   47.0292  133.8850 C   0  0  0  0  0  0  0  0  0  0  0  0
    7.6020   47.0944  133.0948 C   0  0  0  0  0  0  0  0  0  0  0  0
    7.2225   45.9697  132.4305 C   0  0  0  0  0  0  0  0  0  0  0  0
    7.9456   44.8084  132.5291 C   0  0  0  0  0  0  0  0  0  0  0  0
    9.0844   44.7360  133.3044 C   0  0  0  0  0  0  0  0  0  0  0  0
    9.8323   43.5990  133.4299 O   0  0  0  0  0  0  0  0  0  0  0  0
    9.8063   42.3329  132.9678 C   0  0  0  0  0  0  0  0  0  0  0  0
    9.7347   42.1128  131.5049 C   0  0  0  0  0  0  0  0  0  0  0  0
    8.5912   42.1358  130.8478 C   0  0  0  0  0  0  0  0  0  0  0  0
  1  2  1  0  0  0
  2  3  1  0  0  0
  3  4  1  0  0  0
  3  5  2  0  0  0
  5 28  1  0  0  0
 28 29  1  0  0  0
 29 30  1  0  0  0
 30 31  2  0  0  0
 31 32  1  0  0  0
 32 33  2  0  0  0
 33 34  1  0  0  0
 34 35  2  0  0  0
 29 36  1  0  0  0
 36 37  2  0  0  0
 36 38  2  0  0  0
 36 39  1  0  0  0
 39 40  2  0  0  0
 40 41  1  0  0  0
 41 42  2  0  0  0
 42 43  1  0  0  0
 43 44  2  0  0  0
 44 45  1  0  0  0
 45 46  1  0  0  0
 46 47  1  0  0  0
 47 48  2  0  0  0
  5  6  1  0  0  0
  6  7  2  0  0  0
  7  8  1  0  0  0
  8  9  2  0  0  0
  9 10  1  0  0  0
 10 11  2  0  0  0
 11 12  1  0  0  0
 12 13  1  0  0  0
  9 16  1  0  0  0
 16 17  2  0  0  0
 17 18  1  0  0  0
 18 19  2  0  0  0
 19 22  1  0  0  0
 22 23  1  0  0  0
 23 24  1  0  0  0
 24 25  1  0  0  0
 24 26  2  0  0  0
 19 20  1  0  0  0
 20 21  2  0  0  0
 13  2  2  0  0  0
 21 16  1  0  0  0
 35 30  1  0  0  0
 44 39  1  0  0  0
 13  8  1  0  0  0
  1 14  1  0  0  0
 12 15  1  0  0  0
 25 27  1  0  0  0
M  END
> <minimizedAffinity>
11.74196

> <CNNscore>
0.3802903891

> <CNNaffinity>
8.0362014771

> <CNN_VS>
3.0560901165

> <CNNaffinity_variance>
0.5471504331

$$$$
[H]Oc1c([H])c([H])c(-c2c([H])c([H])c3c(c2[H])Oc2c([H])c(O[H])c([H])c([H])c2[C@@]3([H])c2c([H])c([H])c([H])c([H])c2[H])c([H])c1[H]


 30 34  0  0  0  0  0  0  0  0999 V2000
    9.7655   44.8631  133.3915 C   0  0  0  0  0  0  0  0  0  0  0  0
    9.4808   43.9569  132.3994 C   0  0  0  0  0  0  0  0  0  0  0  0
    8.9020   44.3867  131.2224 C   0  0  0  0  0  0  0  0  0  0  0  0
    8.6119   45.7212  131.0458 C   0  0  0  0  0  0  0  0  0  0  0  0
    7.9925   46.1362  129.7627 C   0  0  0  0  0  0  0  0  0  0  0  0
    7.7319   47.5923  129.7096 C   0  0  0  0  0  0  0  0  0  0  0  0
    7.1559   48.1118  128.5752 C   0  0  0  0  0  0  0  0  0  0  0  0
    6.8813   49.4649  128.4449 C   0  0  0  0  0  0  0  0  0  0  0  0
    7.2024   50.2904  129.4910 C   0  0  0  0  0  0  0  0  0  0  0  0
    6.9506   51.6474  129.4143 O   0  0  0  0  0  0  0  0  0  0  0  0
    7.7833   49.8111  130.6517 C   0  0  0  0  0  0  0  0  0  0  0  0
    8.0412   48.4501  130.7408 C   0  0  0  0  0  0  0  0  0  0  0  0
    8.6205   47.9641  131.8969 O   0  0  0  0  0  0  0  0  0  0  0  0
    8.9083   46.6242  132.0640 C   0  0  0  0  0  0  0  0  0  0  0  0
    9.4816   46.1851  133.2251 C   0  0  0  0  0  0  0  0  0  0  0  0
    6.5314   52.0859  128.6107 H   0  0  0  0  0  0  0  0  0  0  0  0
   12.1904   43.0376  138.0693 O   0  0  0  0  0  0  0  0  0  0  0  0
   11.5402   43.5301  136.9460 C   0  0  0  0  0  0  0  0  0  0  0  0
   10.4661   44.3824  136.9936 C   0  0  0  0  0  0  0  0  0  0  0  0
    9.8707   44.8303  135.8345 C   0  0  0  0  0  0  0  0  0  0  0  0
   10.3767   44.4042  134.6297 C   0  0  0  0  0  0  0  0  0  0  0  0
   11.4618   43.5423  134.5365 C   0  0  0  0  0  0  0  0  0  0  0  0
   12.0272   43.1187  135.7200 C   0  0  0  0  0  0  0  0  0  0  0  0
   11.8338   42.1625  138.4472 H   0  0  0  0  0  0  0  0  0  0  0  0
    8.8327   45.6880  128.6241 C   0  0  0  0  0  0  0  0  0  0  0  0
    8.5902   44.4392  128.0641 C   0  0  0  0  0  0  0  0  0  0  0  0
    9.3709   43.9974  126.9964 C   0  0  0  0  0  0  0  0  0  0  0  0
   10.3857   44.7800  126.4815 C   0  0  0  0  0  0  0  0  0  0  0  0
   10.6261   46.0184  127.0367 C   0  0  0  0  0  0  0  0  0  0  0  0
    9.8460   46.4633  128.1058 C   0  0  0  0  0  0  0  0  0  0  0  0
 17 18  1  0  0  0
 18 19  2  0  0  0
 19 20  1  0  0  0
 20 21  2  0  0  0
 21 22  1  0  0  0
 22 23  2  0  0  0
 21  1  1  0  0  0
  1  2  2  0  0  0
  2  3  1  0  0  0
  3  4  2  0  0  0
  4  5  1  0  0  0
  5 25  1  0  0  0
 25 26  2  0  0  0
 26 27  1  0  0  0
 27 28  2  0  0  0
 28 29  1  0  0  0
 29 30  2  0  0  0
  5  6  1  0  0  0
  6  7  2  0  0  0
  7  8  1  0  0  0
  8  9  2  0  0  0
  9 10  1  0  0  0
  9 11  1  0  0  0
 11 12  2  0  0  0
 12 13  1  0  0  0
 13 14  1  0  0  0
 14 15  2  0  0  0
 23 18  1  0  0  0
 15  1  1  0  0  0
 14  4  1  0  0  0
 30 25  1  0  0  0
 12  6  1  0  0  0
 17 24  1  0  0  0
 10 16  1  0  0  0
M  END
> <minimizedAffinity>
9.96652

> <CNNscore>
0.5181241035

> <CNNaffinity>
7.7345299721

> <CNN_VS>
4.0074462891

> <CNNaffinity_variance>
2.3205380440

$$$$
[H]Oc1c([H])c([H])c(-c2c([H])c([H])c3c(c2[H])Oc2c([H])c(O[H])c([H])c([H])c2[C@@]3([H])c2c([H])c([H])c([H])c([H])c2[H])c([H])c1[H]


 30 34  0  0  0  0  0  0  0  0999 V2000
    7.7415   48.6826  129.4277 C   0  0  0  0  0  0  0  0  0  0  0  0
    7.5914   48.3945  130.7623 C   0  0  0  0  0  0  0  0  0  0  0  0
    7.8842   47.1288  131.2287 C   0  0  0  0  0  0  0  0  0  0  0  0
    8.3257   46.1593  130.3561 C   0  0  0  0  0  0  0  0  0  0  0  0
    8.6304   44.8143  130.9042 C   0  0  0  0  0  0  0  0  0  0  0  0
    9.0897   43.8724  129.8588 C   0  0  0  0  0  0  0  0  0  0  0  0
    9.4038   42.5871  130.2302 C   0  0  0  0  0  0  0  0  0  0  0  0
    9.8436   41.6447  129.3129 C   0  0  0  0  0  0  0  0  0  0  0  0
    9.9613   42.0283  128.0021 C   0  0  0  0  0  0  0  0  0  0  0  0
   10.3952   41.1291  127.0461 O   0  0  0  0  0  0  0  0  0  0  0  0
    9.6561   43.3112  127.5835 C   0  0  0  0  0  0  0  0  0  0  0  0
    9.2193   44.2234  128.5342 C   0  0  0  0  0  0  0  0  0  0  0  0
    8.9122   45.5061  128.1235 O   0  0  0  0  0  0  0  0  0  0  0  0
    8.4711   46.4715  129.0065 C   0  0  0  0  0  0  0  0  0  0  0  0
    8.1775   47.7292  128.5576 C   0  0  0  0  0  0  0  0  0  0  0  0
   10.6399   40.1754  127.2570 H   0  0  0  0  0  0  0  0  0  0  0  0
    6.5108   53.8328  127.6803 O   0  0  0  0  0  0  0  0  0  0  0  0
    6.8434   52.5364  128.0488 C   0  0  0  0  0  0  0  0  0  0  0  0
    7.4272   51.6252  127.2055 C   0  0  0  0  0  0  0  0  0  0  0  0
    7.7292   50.3539  127.6427 C   0  0  0  0  0  0  0  0  0  0  0  0
    7.4324   50.0189  128.9422 C   0  0  0  0  0  0  0  0  0  0  0  0
    6.8418   50.9103  129.8285 C   0  0  0  0  0  0  0  0  0  0  0  0
    6.5567   52.1711  129.3503 C   0  0  0  0  0  0  0  0  0  0  0  0
    5.5766   53.9657  127.2989 H   0  0  0  0  0  0  0  0  0  0  0  0
    9.6134   44.9270  132.0106 C   0  0  0  0  0  0  0  0  0  0  0  0
    9.1590   44.8400  133.3213 C   0  0  0  0  0  0  0  0  0  0  0  0
   10.0656   44.9476  134.3754 C   0  0  0  0  0  0  0  0  0  0  0  0
   11.4132   45.1398  134.1420 C   0  0  0  0  0  0  0  0  0  0  0  0
   11.8639   45.2260  132.8423 C   0  0  0  0  0  0  0  0  0  0  0  0
   10.9584   45.1187  131.7849 C   0  0  0  0  0  0  0  0  0  0  0  0
 17 18  1  0  0  0
 18 19  2  0  0  0
 19 20  1  0  0  0
 20 21  2  0  0  0
 21 22  1  0  0  0
 22 23  2  0  0  0
 21  1  1  0  0  0
  1  2  2  0  0  0
  2  3  1  0  0  0
  3  4  2  0  0  0
  4  5  1  0  0  0
  5 25  1  0  0  0
 25 26  2  0  0  0
 26 27  1  0  0  0
 27 28  2  0  0  0
 28 29  1  0  0  0
 29 30  2  0  0  0
  5  6  1  0  0  0
  6  7  2  0  0  0
  7  8  1  0  0  0
  8  9  2  0  0  0
  9 10  1  0  0  0
  9 11  1  0  0  0
 11 12  2  0  0  0
 12 13  1  0  0  0
 13 14  1  0  0  0
 14 15  2  0  0  0
 23 18  1  0  0  0
 15  1  1  0  0  0
 14  4  1  0  0  0
 30 25  1  0  0  0
 12  6  1  0  0  0
 17 24  1  0  0  0
 10 16  1  0  0  0
M  END
> <minimizedAffinity>
9.85639

> <CNNscore>
0.4714482427

> <CNNaffinity>
7.1024231911

> <CNN_VS>
3.3484249115

> <CNNaffinity_variance>
1.1903299093

$$$$
[H]Oc1c([H])c([H])c(-c2c([H])c([H])c3c(c2[H])Oc2c([H])c(O[H])c([H])c([H])c2[C@@]3([H])c2c([H])c([H])c([H])c([H])c2[H])c([H])c1[H]


 30 34  0  0  0  0  0  0  0  0999 V2000
    7.9906   48.2676  130.2480 C   0  0  0  0  0  0  0  0  0  0  0  0
    8.0765   48.0220  131.5966 C   0  0  0  0  0  0  0  0  0  0  0  0
    8.4358   46.7669  132.0445 C   0  0  0  0  0  0  0  0  0  0  0  0
    8.7073   45.7653  131.1394 C   0  0  0  0  0  0  0  0  0  0  0  0
    9.0922   44.4332  131.6681 C   0  0  0  0  0  0  0  0  0  0  0  0
    9.3509   43.4537  130.5890 C   0  0  0  0  0  0  0  0  0  0  0  0
    9.7143   42.1757  130.9402 C   0  0  0  0  0  0  0  0  0  0  0  0
    9.9765   41.1998  129.9905 C   0  0  0  0  0  0  0  0  0  0  0  0
    9.8638   41.5420  128.6679 C   0  0  0  0  0  0  0  0  0  0  0  0
   10.1137   40.6083  127.6798 O   0  0  0  0  0  0  0  0  0  0  0  0
    9.5008   42.8160  128.2686 C   0  0  0  0  0  0  0  0  0  0  0  0
    9.2472   43.7627  129.2516 C   0  0  0  0  0  0  0  0  0  0  0  0
    8.8838   45.0368  128.8605 O   0  0  0  0  0  0  0  0  0  0  0  0
    8.6145   46.0345  129.7760 C   0  0  0  0  0  0  0  0  0  0  0  0
    8.2573   47.2823  129.3457 C   0  0  0  0  0  0  0  0  0  0  0  0
   10.3833   39.6579  127.8747 H   0  0  0  0  0  0  0  0  0  0  0  0
    6.5632   53.3104  128.3436 O   0  0  0  0  0  0  0  0  0  0  0  0
    6.9050   52.0787  128.8852 C   0  0  0  0  0  0  0  0  0  0  0  0
    6.8772   51.7970  130.2277 C   0  0  0  0  0  0  0  0  0  0  0  0
    7.2310   50.5491  130.6927 C   0  0  0  0  0  0  0  0  0  0  0  0
    7.6124   49.5931  129.7819 C   0  0  0  0  0  0  0  0  0  0  0  0
    7.6545   49.8362  128.4151 C   0  0  0  0  0  0  0  0  0  0  0  0
    7.2926   51.0974  127.9930 C   0  0  0  0  0  0  0  0  0  0  0  0
    7.3205   53.9829  128.2435 H   0  0  0  0  0  0  0  0  0  0  0  0
   10.2564   44.5649  132.5794 C   0  0  0  0  0  0  0  0  0  0  0  0
   11.4086   45.1835  132.1084 C   0  0  0  0  0  0  0  0  0  0  0  0
   12.5150   45.3137  132.9470 C   0  0  0  0  0  0  0  0  0  0  0  0
   12.4889   44.8378  134.2433 C   0  0  0  0  0  0  0  0  0  0  0  0
   11.3465   44.2244  134.7104 C   0  0  0  0  0  0  0  0  0  0  0  0
   10.2371   44.0927  133.8729 C   0  0  0  0  0  0  0  0  0  0  0  0
 17 18  1  0  0  0
 18 19  2  0  0  0
 19 20  1  0  0  0
 20 21  2  0  0  0
 21 22  1  0  0  0
 22 23  2  0  0  0
 21  1  1  0  0  0
  1  2  2  0  0  0
  2  3  1  0  0  0
  3  4  2  0  0  0
  4  5  1  0  0  0
  5 25  1  0  0  0
 25 26  2  0  0  0
 26 27  1  0  0  0
 27 28  2  0  0  0
 28 29  1  0  0  0
 29 30  2  0  0  0
  5  6  1  0  0  0
  6  7  2  0  0  0
  7  8  1  0  0  0
  8  9  2  0  0  0
  9 10  1  0  0  0
  9 11  1  0  0  0
 11 12  2  0  0  0
 12 13  1  0  0  0
 13 14  1  0  0  0
 14 15  2  0  0  0
 23 18  1  0  0  0
 15  1  1  0  0  0
 14  4  1  0  0  0
 30 25  1  0  0  0
 12  6  1  0  0  0
 17 24  1  0  0  0
 10 16  1  0  0  0
M  END
> <minimizedAffinity>
4.88240

> <CNNscore>
0.4570574462

> <CNNaffinity>
7.3967561722

> <CNN_VS>
3.3807425499

> <CNNaffinity_variance>
1.3686563969

$$$$
[H]Oc1c([H])c([H])c(-c2c([H])c([H])c3c(c2[H])Oc2c([H])c(O[H])c([H])c([H])c2[C@@]3([H])c2c([H])c([H])c([H])c([H])c2[H])c([H])c1[H]


 30 34  0  0  0  0  0  0  0  0999 V2000
    8.6272   47.9525  130.0655 C   0  0  0  0  0  0  0  0  0  0  0  0
    8.1837   46.8214  129.4247 C   0  0  0  0  0  0  0  0  0  0  0  0
    8.7151   45.5915  129.7560 C   0  0  0  0  0  0  0  0  0  0  0  0
    9.6874   45.5014  130.7271 C   0  0  0  0  0  0  0  0  0  0  0  0
   10.2268   44.1574  131.0510 C   0  0  0  0  0  0  0  0  0  0  0  0
   11.2642   44.2075  132.1057 C   0  0  0  0  0  0  0  0  0  0  0  0
   11.8515   43.0296  132.5007 C   0  0  0  0  0  0  0  0  0  0  0  0
   12.8290   42.9901  133.4835 C   0  0  0  0  0  0  0  0  0  0  0  0
   13.2053   44.1731  134.0649 C   0  0  0  0  0  0  0  0  0  0  0  0
   14.1751   44.1913  135.0498 O   0  0  0  0  0  0  0  0  0  0  0  0
   12.6412   45.3821  133.6986 C   0  0  0  0  0  0  0  0  0  0  0  0
   11.6662   45.3768  132.7106 C   0  0  0  0  0  0  0  0  0  0  0  0
   11.0988   46.5803  132.3392 O   0  0  0  0  0  0  0  0  0  0  0  0
   10.1238   46.6601  131.3649 C   0  0  0  0  0  0  0  0  0  0  0  0
    9.5889   47.8723  131.0271 C   0  0  0  0  0  0  0  0  0  0  0  0
   14.6405   43.3621  135.3808 H   0  0  0  0  0  0  0  0  0  0  0  0
    6.4406   52.8675  128.5974 O   0  0  0  0  0  0  0  0  0  0  0  0
    6.9963   51.6710  129.0295 C   0  0  0  0  0  0  0  0  0  0  0  0
    7.4719   51.4607  130.2992 C   0  0  0  0  0  0  0  0  0  0  0  0
    8.0112   50.2441  130.6564 C   0  0  0  0  0  0  0  0  0  0  0  0
    8.0623   49.2461  129.7127 C   0  0  0  0  0  0  0  0  0  0  0  0
    7.5923   49.4168  128.4169 C   0  0  0  0  0  0  0  0  0  0  0  0
    7.0608   50.6489  128.1018 C   0  0  0  0  0  0  0  0  0  0  0  0
    7.0866   53.5437  128.1958 H   0  0  0  0  0  0  0  0  0  0  0  0
    9.1189   43.2392  131.4153 C   0  0  0  0  0  0  0  0  0  0  0  0
    8.7121   43.1744  132.7428 C   0  0  0  0  0  0  0  0  0  0  0  0
    7.6759   42.3152  133.1067 C   0  0  0  0  0  0  0  0  0  0  0  0
    7.0422   41.5230  132.1696 C   0  0  0  0  0  0  0  0  0  0  0  0
    7.4454   41.5872  130.8532 C   0  0  0  0  0  0  0  0  0  0  0  0
    8.4827   42.4466  130.4859 C   0  0  0  0  0  0  0  0  0  0  0  0
 17 18  1  0  0  0
 18 19  2  0  0  0
 19 20  1  0  0  0
 20 21  2  0  0  0
 21 22  1  0  0  0
 22 23  2  0  0  0
 21  1  1  0  0  0
  1  2  2  0  0  0
  2  3  1  0  0  0
  3  4  2  0  0  0
  4  5  1  0  0  0
  5 25  1  0  0  0
 25 26  2  0  0  0
 26 27  1  0  0  0
 27 28  2  0  0  0
 28 29  1  0  0  0
 29 30  2  0  0  0
  5  6  1  0  0  0
  6  7  2  0  0  0
  7  8  1  0  0  0
  8  9  2  0  0  0
  9 10  1  0  0  0
  9 11  1  0  0  0
 11 12  2  0  0  0
 12 13  1  0  0  0
 13 14  1  0  0  0
 14 15  2  0  0  0
 23 18  1  0  0  0
 15  1  1  0  0  0
 14  4  1  0  0  0
 30 25  1  0  0  0
 12  6  1  0  0  0
 17 24  1  0  0  0
 10 16  1  0  0  0
M  END
> <minimizedAffinity>
4.10759

> <CNNscore>
0.4500388503

> <CNNaffinity>
7.4284448624

> <CNN_VS>
3.3430888653

> <CNNaffinity_variance>
2.0656979084

$$$$
[H]Oc1c([H])c([H])c(-c2c([H])c([H])c3c(c2[H])Oc2c([H])c(O[H])c([H])c([H])c2[C@@]3([H])c2c([H])c([H])c([H])c([H])c2[H])c([H])c1[H]


 30 34  0  0  0  0  0  0  0  0999 V2000
    8.7349   48.4328  130.3638 C   0  0  0  0  0  0  0  0  0  0  0  0
    9.3126   47.4986  129.5392 C   0  0  0  0  0  0  0  0  0  0  0  0
    9.9150   46.3819  130.0826 C   0  0  0  0  0  0  0  0  0  0  0  0
    9.9351   46.2072  131.4483 C   0  0  0  0  0  0  0  0  0  0  0  0
   10.5918   44.9899  131.9860 C   0  0  0  0  0  0  0  0  0  0  0  0
   10.5439   44.9321  133.4643 C   0  0  0  0  0  0  0  0  0  0  0  0
   11.1199   43.8554  134.0948 C   0  0  0  0  0  0  0  0  0  0  0  0
   11.1159   43.7246  135.4754 C   0  0  0  0  0  0  0  0  0  0  0  0
   10.5139   44.7105  136.2135 C   0  0  0  0  0  0  0  0  0  0  0  0
   10.4810   44.6304  137.5931 O   0  0  0  0  0  0  0  0  0  0  0  0
    9.9218   45.8117  135.6212 C   0  0  0  0  0  0  0  0  0  0  0  0
    9.9482   45.9035  134.2364 C   0  0  0  0  0  0  0  0  0  0  0  0
    9.3596   47.0007  133.6379 O   0  0  0  0  0  0  0  0  0  0  0  0
    9.3439   47.1662  132.2674 C   0  0  0  0  0  0  0  0  0  0  0  0
    8.7506   48.2679  131.7161 C   0  0  0  0  0  0  0  0  0  0  0  0
   10.8850   43.8673  138.1109 H   0  0  0  0  0  0  0  0  0  0  0  0
    6.2926   52.8727  128.0366 O   0  0  0  0  0  0  0  0  0  0  0  0
    6.9055   51.8051  128.6781 C   0  0  0  0  0  0  0  0  0  0  0  0
    7.3102   51.8278  129.9889 C   0  0  0  0  0  0  0  0  0  0  0  0
    7.9132   50.7277  130.5588 C   0  0  0  0  0  0  0  0  0  0  0  0
    8.1004   49.6073  129.7850 C   0  0  0  0  0  0  0  0  0  0  0  0
    7.7060   49.5421  128.4549 C   0  0  0  0  0  0  0  0  0  0  0  0
    7.1068   50.6644  127.9247 C   0  0  0  0  0  0  0  0  0  0  0  0
    6.9120   53.5325  127.5709 H   0  0  0  0  0  0  0  0  0  0  0  0
    9.9967   43.7773  131.3706 C   0  0  0  0  0  0  0  0  0  0  0  0
    8.6706   43.4675  131.6488 C   0  0  0  0  0  0  0  0  0  0  0  0
    8.0937   42.3305  131.0841 C   0  0  0  0  0  0  0  0  0  0  0  0
    8.8173   41.5016  130.2494 C   0  0  0  0  0  0  0  0  0  0  0  0
   10.1323   41.8088  129.9734 C   0  0  0  0  0  0  0  0  0  0  0  0
   10.7125   42.9467  130.5375 C   0  0  0  0  0  0  0  0  0  0  0  0
 17 18  1  0  0  0
 18 19  2  0  0  0
 19 20  1  0  0  0
 20 21  2  0  0  0
 21 22  1  0  0  0
 22 23  2  0  0  0
 21  1  1  0  0  0
  1  2  2  0  0  0
  2  3  1  0  0  0
  3  4  2  0  0  0
  4  5  1  0  0  0
  5 25  1  0  0  0
 25 26  2  0  0  0
 26 27  1  0  0  0
 27 28  2  0  0  0
 28 29  1  0  0  0
 29 30  2  0  0  0
  5  6  1  0  0  0
  6  7  2  0  0  0
  7  8  1  0  0  0
  8  9  2  0  0  0
  9 10  1  0  0  0
  9 11  1  0  0  0
 11 12  2  0  0  0
 12 13  1  0  0  0
 13 14  1  0  0  0
 14 15  2  0  0  0
 23 18  1  0  0  0
 15  1  1  0  0  0
 14  4  1  0  0  0
 30 25  1  0  0  0
 12  6  1  0  0  0
 17 24  1  0  0  0
 10 16  1  0  0  0
M  END
> <minimizedAffinity>
3.17631

> <CNNscore>
0.4488884509

> <CNNaffinity>
7.4360756874

> <CNN_VS>
3.3379685879

> <CNNaffinity_variance>
1.3750972748

$$$$
[H]Oc1c([H])c([H])c(-c2c([H])c([H])c3c(c2[H])Oc2c([H])c(O[H])c([H])c([H])c2[C@@]3([H])c2c([H])c([H])c([H])c([H])c2[H])c([H])c1[H]


 30 34  0  0  0  0  0  0  0  0999 V2000
    7.5048   47.0155  130.1918 C   0  0  0  0  0  0  0  0  0  0  0  0
    7.2058   46.1531  131.2181 C   0  0  0  0  0  0  0  0  0  0  0  0
    8.1415   45.2260  131.6307 C   0  0  0  0  0  0  0  0  0  0  0  0
    9.3710   45.1683  131.0132 C   0  0  0  0  0  0  0  0  0  0  0  0
   10.3453   44.1569  131.4929 C   0  0  0  0  0  0  0  0  0  0  0  0
   11.6193   44.2030  130.7408 C   0  0  0  0  0  0  0  0  0  0  0  0
   12.6114   43.3152  131.0814 C   0  0  0  0  0  0  0  0  0  0  0  0
   13.8344   43.2947  130.4280 C   0  0  0  0  0  0  0  0  0  0  0  0
   14.0382   44.1959  129.4153 C   0  0  0  0  0  0  0  0  0  0  0  0
   15.2388   44.2193  128.7306 O   0  0  0  0  0  0  0  0  0  0  0  0
   13.0680   45.1075  129.0389 C   0  0  0  0  0  0  0  0  0  0  0  0
   11.8580   45.0940  129.7190 C   0  0  0  0  0  0  0  0  0  0  0  0
   10.8842   46.0009  129.3483 O   0  0  0  0  0  0  0  0  0  0  0  0
    9.6547   46.0515  129.9743 C   0  0  0  0  0  0  0  0  0  0  0  0
    8.7186   46.9650  129.5753 C   0  0  0  0  0  0  0  0  0  0  0  0
   16.0020   43.5949  128.9344 H   0  0  0  0  0  0  0  0  0  0  0  0
    3.6324   50.6612  128.5164 O   0  0  0  0  0  0  0  0  0  0  0  0
    4.6398   49.8099  128.9495 C   0  0  0  0  0  0  0  0  0  0  0  0
    5.8531   50.2377  129.4261 C   0  0  0  0  0  0  0  0  0  0  0  0
    6.8064   49.3323  129.8387 C   0  0  0  0  0  0  0  0  0  0  0  0
    6.5147   47.9914  129.7622 C   0  0  0  0  0  0  0  0  0  0  0  0
    5.2996   47.5159  129.2864 C   0  0  0  0  0  0  0  0  0  0  0  0
    4.3747   48.4553  128.8842 C   0  0  0  0  0  0  0  0  0  0  0  0
    3.6479   50.9102  127.5298 H   0  0  0  0  0  0  0  0  0  0  0  0
   10.5645   44.3144  132.9525 C   0  0  0  0  0  0  0  0  0  0  0  0
   10.4282   45.5770  133.5175 C   0  0  0  0  0  0  0  0  0  0  0  0
   10.6340   45.7474  134.8861 C   0  0  0  0  0  0  0  0  0  0  0  0
   10.9723   44.6810  135.6959 C   0  0  0  0  0  0  0  0  0  0  0  0
   11.1074   43.4290  135.1357 C   0  0  0  0  0  0  0  0  0  0  0  0
   10.9020   43.2555  133.7656 C   0  0  0  0  0  0  0  0  0  0  0  0
 17 18  1  0  0  0
 18 19  2  0  0  0
 19 20  1  0  0  0
 20 21  2  0  0  0
 21 22  1  0  0  0
 22 23  2  0  0  0
 21  1  1  0  0  0
  1  2  2  0  0  0
  2  3  1  0  0  0
  3  4  2  0  0  0
  4  5  1  0  0  0
  5 25  1  0  0  0
 25 26  2  0  0  0
 26 27  1  0  0  0
 27 28  2  0  0  0
 28 29  1  0  0  0
 29 30  2  0  0  0
  5  6  1  0  0  0
  6  7  2  0  0  0
  7  8  1  0  0  0
  8  9  2  0  0  0
  9 10  1  0  0  0
  9 11  1  0  0  0
 11 12  2  0  0  0
 12 13  1  0  0  0
 13 14  1  0  0  0
 14 15  2  0  0  0
 23 18  1  0  0  0
 15  1  1  0  0  0
 14  4  1  0  0  0
 30 25  1  0  0  0
 12  6  1  0  0  0
 17 24  1  0  0  0
 10 16  1  0  0  0
M  END
> <minimizedAffinity>
3.35728

> <CNNscore>
0.4447353482

> <CNNaffinity>
7.4349579811

> <CNN_VS>
3.3065886497

> <CNNaffinity_variance>
2.2249674797

$$$$
[H]Oc1c([H])c([H])c(-c2c([H])c([H])c3c(c2[H])Oc2c([H])c(O[H])c([H])c([H])c2[C@@]3([H])c2c([H])c([H])c([H])c([H])c2[H])c([H])c1[H]


 30 34  0  0  0  0  0  0  0  0999 V2000
    8.0379   47.7892  130.4492 C   0  0  0  0  0  0  0  0  0  0  0  0
    8.3900   46.6060  129.8471 C   0  0  0  0  0  0  0  0  0  0  0  0
    9.4784   45.8960  130.3123 C   0  0  0  0  0  0  0  0  0  0  0  0
   10.2076   46.3750  131.3777 C   0  0  0  0  0  0  0  0  0  0  0  0
   11.3677   45.5757  131.8442 C   0  0  0  0  0  0  0  0  0  0  0  0
   12.0609   46.2071  132.9895 C   0  0  0  0  0  0  0  0  0  0  0  0
   13.1580   45.5718  133.5198 C   0  0  0  0  0  0  0  0  0  0  0  0
   13.8616   46.0953  134.5940 C   0  0  0  0  0  0  0  0  0  0  0  0
   13.4324   47.2831  135.1271 C   0  0  0  0  0  0  0  0  0  0  0  0
   14.0967   47.8498  136.1986 O   0  0  0  0  0  0  0  0  0  0  0  0
   12.3333   47.9572  134.6253 C   0  0  0  0  0  0  0  0  0  0  0  0
   11.6576   47.3982  133.5493 C   0  0  0  0  0  0  0  0  0  0  0  0
   10.5596   48.0660  133.0426 O   0  0  0  0  0  0  0  0  0  0  0  0
    9.8344   47.5769  131.9744 C   0  0  0  0  0  0  0  0  0  0  0  0
    8.7541   48.2704  131.5036 C   0  0  0  0  0  0  0  0  0  0  0  0
   14.9052   47.4321  136.6296 H   0  0  0  0  0  0  0  0  0  0  0  0
    3.5898   50.5324  128.5042 O   0  0  0  0  0  0  0  0  0  0  0  0
    4.7208   49.9121  129.0172 C   0  0  0  0  0  0  0  0  0  0  0  0
    5.6919   50.5615  129.7367 C   0  0  0  0  0  0  0  0  0  0  0  0
    6.7890   49.8786  130.2149 C   0  0  0  0  0  0  0  0  0  0  0  0
    6.8889   48.5326  129.9550 C   0  0  0  0  0  0  0  0  0  0  0  0
    5.9291   47.8370  129.2312 C   0  0  0  0  0  0  0  0  0  0  0  0
    4.8482   48.5582  128.7717 C   0  0  0  0  0  0  0  0  0  0  0  0
    3.6744   50.9153  127.5651 H   0  0  0  0  0  0  0  0  0  0  0  0
   10.9367   44.1909  132.1603 C   0  0  0  0  0  0  0  0  0  0  0  0
    9.9591   43.9988  133.1294 C   0  0  0  0  0  0  0  0  0  0  0  0
    9.5431   42.7056  133.4442 C   0  0  0  0  0  0  0  0  0  0  0  0
   10.0859   41.6059  132.8091 C   0  0  0  0  0  0  0  0  0  0  0  0
   11.0553   41.7963  131.8480 C   0  0  0  0  0  0  0  0  0  0  0  0
   11.4737   43.0901  131.5307 C   0  0  0  0  0  0  0  0  0  0  0  0
 17 18  1  0  0  0
 18 19  2  0  0  0
 19 20  1  0  0  0
 20 21  2  0  0  0
 21 22  1  0  0  0
 22 23  2  0  0  0
 21  1  1  0  0  0
  1  2  2  0  0  0
  2  3  1  0  0  0
  3  4  2  0  0  0
  4  5  1  0  0  0
  5 25  1  0  0  0
 25 26  2  0  0  0
 26 27  1  0  0  0
 27 28  2  0  0  0
 28 29  1  0  0  0
 29 30  2  0  0  0
  5  6  1  0  0  0
  6  7  2  0  0  0
  7  8  1  0  0  0
  8  9  2  0  0  0
  9 10  1  0  0  0
  9 11  1  0  0  0
 11 12  2  0  0  0
 12 13  1  0  0  0
 13 14  1  0  0  0
 14 15  2  0  0  0
 23 18  1  0  0  0
 15  1  1  0  0  0
 14  4  1  0  0  0
 30 25  1  0  0  0
 12  6  1  0  0  0
 17 24  1  0  0  0
 10 16  1  0  0  0
M  END
> <minimizedAffinity>
8.98210

> <CNNscore>
0.4321348965

> <CNNaffinity>
7.4333815575

> <CNN_VS>
3.2122235298

> <CNNaffinity_variance>
1.8108800650

$$$$
[H]Oc1c([H])c([H])c(-c2c([H])c([H])c3c(c2[H])Oc2c([H])c(O[H])c([H])c([H])c2[C@@]3([H])c2c([H])c([H])c([H])c([H])c2[H])c([H])c1[H]


 30 34  0  0  0  0  0  0  0  0999 V2000
    8.3797   48.3005  130.2867 C   0  0  0  0  0  0  0  0  0  0  0  0
    7.6917   47.6016  131.2484 C   0  0  0  0  0  0  0  0  0  0  0  0
    8.2254   46.4387  131.7659 C   0  0  0  0  0  0  0  0  0  0  0  0
    9.4450   45.9827  131.3176 C   0  0  0  0  0  0  0  0  0  0  0  0
    9.9796   44.7293  131.9053 C   0  0  0  0  0  0  0  0  0  0  0  0
   11.2915   44.3545  131.3314 C   0  0  0  0  0  0  0  0  0  0  0  0
   11.9001   43.2093  131.7859 C   0  0  0  0  0  0  0  0  0  0  0  0
   13.1300   42.7898  131.3017 C   0  0  0  0  0  0  0  0  0  0  0  0
   13.7389   43.5555  130.3416 C   0  0  0  0  0  0  0  0  0  0  0  0
   14.9657   43.1839  129.8242 O   0  0  0  0  0  0  0  0  0  0  0  0
   13.1630   44.7156  129.8549 C   0  0  0  0  0  0  0  0  0  0  0  0
   11.9311   45.0994  130.3666 C   0  0  0  0  0  0  0  0  0  0  0  0
   11.3497   46.2563  129.8851 O   0  0  0  0  0  0  0  0  0  0  0  0
   10.1268   46.7057  130.3418 C   0  0  0  0  0  0  0  0  0  0  0  0
    9.5867   47.8562  129.8374 C   0  0  0  0  0  0  0  0  0  0  0  0
   15.4600   42.3571  130.1171 H   0  0  0  0  0  0  0  0  0  0  0  0
    6.2214   52.9528  128.0977 O   0  0  0  0  0  0  0  0  0  0  0  0
    6.7484   51.8232  128.7088 C   0  0  0  0  0  0  0  0  0  0  0  0
    6.8699   51.6723  130.0671 C   0  0  0  0  0  0  0  0  0  0  0  0
    7.4040   50.5205  130.6026 C   0  0  0  0  0  0  0  0  0  0  0  0
    7.8124   49.5263  129.7458 C   0  0  0  0  0  0  0  0  0  0  0  0
    7.7074   49.6382  128.3654 C   0  0  0  0  0  0  0  0  0  0  0  0
    7.1675   50.8065  127.8721 C   0  0  0  0  0  0  0  0  0  0  0  0
    6.8848   53.6891  127.8663 H   0  0  0  0  0  0  0  0  0  0  0  0
   10.0418   44.8472  133.3837 C   0  0  0  0  0  0  0  0  0  0  0  0
   10.8782   43.9899  134.0890 C   0  0  0  0  0  0  0  0  0  0  0  0
   10.9481   44.0813  135.4787 C   0  0  0  0  0  0  0  0  0  0  0  0
   10.1989   45.0116  136.1721 C   0  0  0  0  0  0  0  0  0  0  0  0
    9.3695   45.8617  135.4728 C   0  0  0  0  0  0  0  0  0  0  0  0
    9.2976   45.7724  134.0812 C   0  0  0  0  0  0  0  0  0  0  0  0
 17 18  1  0  0  0
 18 19  2  0  0  0
 19 20  1  0  0  0
 20 21  2  0  0  0
 21 22  1  0  0  0
 22 23  2  0  0  0
 21  1  1  0  0  0
  1  2  2  0  0  0
  2  3  1  0  0  0
  3  4  2  0  0  0
  4  5  1  0  0  0
  5 25  1  0  0  0
 25 26  2  0  0  0
 26 27  1  0  0  0
 27 28  2  0  0  0
 28 29  1  0  0  0
 29 30  2  0  0  0
  5  6  1  0  0  0
  6  7  2  0  0  0
  7  8  1  0  0  0
  8  9  2  0  0  0
  9 10  1  0  0  0
  9 11  1  0  0  0
 11 12  2  0  0  0
 12 13  1  0  0  0
 13 14  1  0  0  0
 14 15  2  0  0  0
 23 18  1  0  0  0
 15  1  1  0  0  0
 14  4  1  0  0  0
 30 25  1  0  0  0
 12  6  1  0  0  0
 17 24  1  0  0  0
 10 16  1  0  0  0
M  END
> <minimizedAffinity>
6.04234

> <CNNscore>
0.4171086848

> <CNNaffinity>
7.2346382141

> <CNN_VS>
3.0176303387

> <CNNaffinity_variance>
2.1119694710

$$$$
[H]Oc1c([H])c([H])c(-c2c([H])c([H])c3c(c2[H])Oc2c([H])c(O[H])c([H])c([H])c2[C@@]3([H])c2c([H])c([H])c([H])c([H])c2[H])c([H])c1[H]


 30 34  0  0  0  0  0  0  0  0999 V2000
    8.6803   48.7188  130.4189 C   0  0  0  0  0  0  0  0  0  0  0  0
   10.0520   48.7293  130.4885 C   0  0  0  0  0  0  0  0  0  0  0  0
   10.7195   47.6574  131.0459 C   0  0  0  0  0  0  0  0  0  0  0  0
   10.0094   46.5814  131.5300 C   0  0  0  0  0  0  0  0  0  0  0  0
   10.7706   45.4513  132.1179 C   0  0  0  0  0  0  0  0  0  0  0  0
    9.8849   44.3681  132.6007 C   0  0  0  0  0  0  0  0  0  0  0  0
   10.4612   43.2592  133.1724 C   0  0  0  0  0  0  0  0  0  0  0  0
    9.7025   42.2000  133.6474 C   0  0  0  0  0  0  0  0  0  0  0  0
    8.3390   42.2826  133.5329 C   0  0  0  0  0  0  0  0  0  0  0  0
    7.5349   41.2552  133.9898 O   0  0  0  0  0  0  0  0  0  0  0  0
    7.7162   43.3795  132.9645 C   0  0  0  0  0  0  0  0  0  0  0  0
    8.5129   44.4178  132.5019 C   0  0  0  0  0  0  0  0  0  0  0  0
    7.8980   45.5166  131.9337 O   0  0  0  0  0  0  0  0  0  0  0  0
    8.6189   46.5902  131.4503 C   0  0  0  0  0  0  0  0  0  0  0  0
    7.9701   47.6585  130.8957 C   0  0  0  0  0  0  0  0  0  0  0  0
    7.8983   40.4189  134.4169 H   0  0  0  0  0  0  0  0  0  0  0  0
    6.0193   53.0059  128.0454 O   0  0  0  0  0  0  0  0  0  0  0  0
    6.6724   51.9711  128.7009 C   0  0  0  0  0  0  0  0  0  0  0  0
    6.8767   51.9301  130.0570 C   0  0  0  0  0  0  0  0  0  0  0  0
    7.5349   50.8682  130.6381 C   0  0  0  0  0  0  0  0  0  0  0  0
    7.9824   49.8512  129.8291 C   0  0  0  0  0  0  0  0  0  0  0  0
    7.7968   49.8531  128.4527 C   0  0  0  0  0  0  0  0  0  0  0  0
    7.1336   50.9340  127.9127 C   0  0  0  0  0  0  0  0  0  0  0  0
    6.6039   53.7755  127.7263 H   0  0  0  0  0  0  0  0  0  0  0  0
   11.7692   44.9485  131.1416 C   0  0  0  0  0  0  0  0  0  0  0  0
   11.3851   44.7832  129.8160 C   0  0  0  0  0  0  0  0  0  0  0  0
   12.3067   44.3081  128.8837 C   0  0  0  0  0  0  0  0  0  0  0  0
   13.6006   43.9968  129.2529 C   0  0  0  0  0  0  0  0  0  0  0  0
   13.9817   44.1607  130.5672 C   0  0  0  0  0  0  0  0  0  0  0  0
   13.0609   44.6363  131.5030 C   0  0  0  0  0  0  0  0  0  0  0  0
 17 18  1  0  0  0
 18 19  2  0  0  0
 19 20  1  0  0  0
 20 21  2  0  0  0
 21 22  1  0  0  0
 22 23  2  0  0  0
 21  1  1  0  0  0
  1  2  2  0  0  0
  2  3  1  0  0  0
  3  4  2  0  0  0
  4  5  1  0  0  0
  5 25  1  0  0  0
 25 26  2  0  0  0
 26 27  1  0  0  0
 27 28  2  0  0  0
 28 29  1  0  0  0
 29 30  2  0  0  0
  5  6  1  0  0  0
  6  7  2  0  0  0
  7  8  1  0  0  0
  8  9  2  0  0  0
  9 10  1  0  0  0
  9 11  1  0  0  0
 11 12  2  0  0  0
 12 13  1  0  0  0
 13 14  1  0  0  0
 14 15  2  0  0  0
 23 18  1  0  0  0
 15  1  1  0  0  0
 14  4  1  0  0  0
 30 25  1  0  0  0
 12  6  1  0  0  0
 17 24  1  0  0  0
 10 16  1  0  0  0
M  END
> <minimizedAffinity>
6.23465

> <CNNscore>
0.4121027589

> <CNNaffinity>
7.0823068619

> <CNN_VS>
2.9186382294

> <CNNaffinity_variance>
1.5218608379

$$$$
[H]C#CC([H])([H])Oc1c([H])c([H])c(C([H])([H])[C@]([H])(c2c([H])nc(N([H])C(=O)N([H])[H])c([H])c2[H])c2c([H])c([H])c(OC([H])([H])[H])c([H])c2[H])c([H])c1C(F)(F)F


 37 39  0  0  0  0  0  0  0  0999 V2000
    8.9103   44.8972  129.1397 C   0  0  0  0  0  0  0  0  0  0  0  0
    7.8009   42.5811  132.4684 C   0  0  0  0  0  0  0  0  0  0  0  0
    8.0240   41.9735  131.2446 C   0  0  0  0  0  0  0  0  0  0  0  0
    8.3870   42.7025  130.1393 C   0  0  0  0  0  0  0  0  0  0  0  0
    8.5264   44.0643  130.2735 C   0  0  0  0  0  0  0  0  0  0  0  0
    8.3002   44.6751  131.5125 C   0  0  0  0  0  0  0  0  0  0  0  0
    7.9400   43.9454  132.6054 C   0  0  0  0  0  0  0  0  0  0  0  0
    6.2214   41.1646  133.6610 C   0  0  0  0  0  0  0  0  0  0  0  0
    7.4354   41.8484  133.5818 O   0  0  0  0  0  0  0  0  0  0  0  0
    8.1815   46.1968  129.1519 C   0  0  0  0  0  0  0  0  0  0  0  0
    6.8271   46.2314  129.3499 C   0  0  0  0  0  0  0  0  0  0  0  0
    6.1911   47.4540  129.3554 C   0  0  0  0  0  0  0  0  0  0  0  0
    6.8665   48.6417  129.1693 C   0  0  0  0  0  0  0  0  0  0  0  0
    8.1935   48.5432  128.9800 N   0  0  0  0  0  0  0  0  0  0  0  0
    8.8679   47.3780  128.9646 C   0  0  0  0  0  0  0  0  0  0  0  0
    6.2004   49.8997  129.1766 N   0  0  0  0  0  0  0  0  0  0  0  0
    6.7109   50.9971  129.8861 C   0  0  0  0  0  0  0  0  0  0  0  0
    7.9189   50.9044  130.6326 N   0  0  0  0  0  0  0  0  0  0  0  0
    6.0930   52.1061  129.8724 O   0  0  0  0  0  0  0  0  0  0  0  0
    5.3137   49.9829  128.6340 H   0  0  0  0  0  0  0  0  0  0  0  0
    8.8617   50.8756  130.1665 H   0  0  0  0  0  0  0  0  0  0  0  0
    7.9295   50.8604  131.6772 H   0  0  0  0  0  0  0  0  0  0  0  0
   10.3906   45.0866  128.9367 C   0  0  0  0  0  0  0  0  0  0  0  0
   11.1670   45.1485  130.1863 C   0  0  0  0  0  0  0  0  0  0  0  0
   12.2922   44.3748  130.3396 C   0  0  0  0  0  0  0  0  0  0  0  0
   13.0407   44.4364  131.5181 C   0  0  0  0  0  0  0  0  0  0  0  0
   12.6374   45.2837  132.5285 C   0  0  0  0  0  0  0  0  0  0  0  0
   11.5067   46.0731  132.3980 C   0  0  0  0  0  0  0  0  0  0  0  0
   10.7815   46.0011  131.2330 C   0  0  0  0  0  0  0  0  0  0  0  0
   11.0996   46.9729  133.5027 C   0  0  0  0  0  0  0  0  0  0  0  0
   12.1963   47.2027  134.3110 F   0  0  0  0  0  0  0  0  0  0  0  0
   10.1294   46.3901  134.2858 F   0  0  0  0  0  0  0  0  0  0  0  0
   10.6606   48.1721  132.9660 F   0  0  0  0  0  0  0  0  0  0  0  0
   13.3404   45.3823  133.7112 O   0  0  0  0  0  0  0  0  0  0  0  0
   13.2262   44.3287  134.6637 C   0  0  0  0  0  0  0  0  0  0  0  0
   11.8750   43.7399  134.5938 C   0  0  0  0  0  0  0  0  0  0  0  0
   10.7734   43.2599  134.5165 C   0  0  0  0  0  0  0  0  0  0  0  0
  8  9  1  0  0  0
  9  2  1  0  0  0
  2  3  2  0  0  0
  3  4  1  0  0  0
  4  5  2  0  0  0
  5  6  1  0  0  0
  6  7  2  0  0  0
  5  1  1  0  0  0
  1 23  1  0  0  0
 23 24  1  0  0  0
 24 25  2  0  0  0
 25 26  1  0  0  0
 26 27  2  0  0  0
 27 34  1  0  0  0
 34 35  1  0  0  0
 35 36  1  0  0  0
 36 37  3  0  0  0
 27 28  1  0  0  0
 28 29  2  0  0  0
 28 30  1  0  0  0
 30 31  1  0  0  0
 30 32  1  0  0  0
 30 33  1  0  0  0
  1 10  1  0  0  0
 10 11  2  0  0  0
 11 12  1  0  0  0
 12 13  2  0  0  0
 13 16  1  0  0  0
 16 17  1  0  0  0
 17 18  1  0  0  0
 17 19  2  0  0  0
 13 14  1  0  0  0
 14 15  2  0  0  0
  7  2  1  0  0  0
 29 24  1  0  0  0
 15 10  1  0  0  0
 16 20  1  0  0  0
 18 21  1  0  0  0
 18 22  1  0  0  0
M  END
> <minimizedAffinity>
0.22938

> <CNNscore>
0.5492191315

> <CNNaffinity>
8.3881626129

> <CNN_VS>
4.6069393158

> <CNNaffinity_variance>
1.2740150690

$$$$
[H]C#CC([H])([H])Oc1c([H])c([H])c(C([H])([H])[C@]([H])(c2c([H])nc(N([H])C(=O)N([H])[H])c([H])c2[H])c2c([H])c([H])c(OC([H])([H])[H])c([H])c2[H])c([H])c1C(F)(F)F


 37 39  0  0  0  0  0  0  0  0999 V2000
   10.8211   47.1589  132.8757 C   0  0  0  0  0  0  0  0  0  0  0  0
   12.8176   44.7376  130.0781 C   0  0  0  0  0  0  0  0  0  0  0  0
   13.1750   44.6912  131.4149 C   0  0  0  0  0  0  0  0  0  0  0  0
   12.5422   45.4696  132.3522 C   0  0  0  0  0  0  0  0  0  0  0  0
   11.5343   46.3061  131.9320 C   0  0  0  0  0  0  0  0  0  0  0  0
   11.1757   46.3502  130.5796 C   0  0  0  0  0  0  0  0  0  0  0  0
   11.8081   45.5748  129.6547 C   0  0  0  0  0  0  0  0  0  0  0  0
   14.8427   43.9239  129.0010 C   0  0  0  0  0  0  0  0  0  0  0  0
   13.4538   43.9545  129.1336 O   0  0  0  0  0  0  0  0  0  0  0  0
   10.0077   48.1872  132.1677 C   0  0  0  0  0  0  0  0  0  0  0  0
   10.1113   49.5094  132.5079 C   0  0  0  0  0  0  0  0  0  0  0  0
    9.3425   50.4290  131.8277 C   0  0  0  0  0  0  0  0  0  0  0  0
    8.4745   50.0680  130.8191 C   0  0  0  0  0  0  0  0  0  0  0  0
    8.4168   48.7565  130.5306 N   0  0  0  0  0  0  0  0  0  0  0  0
    9.1430   47.8139  131.1605 C   0  0  0  0  0  0  0  0  0  0  0  0
    7.6845   51.0255  130.1224 N   0  0  0  0  0  0  0  0  0  0  0  0
    6.6999   50.6356  129.2020 C   0  0  0  0  0  0  0  0  0  0  0  0
    6.4447   49.2641  128.9210 N   0  0  0  0  0  0  0  0  0  0  0  0
    6.0118   51.5143  128.5969 O   0  0  0  0  0  0  0  0  0  0  0  0
    7.8601   52.0347  130.3178 H   0  0  0  0  0  0  0  0  0  0  0  0
    5.9363   48.6411  129.5994 H   0  0  0  0  0  0  0  0  0  0  0  0
    6.7486   48.8092  128.0300 H   0  0  0  0  0  0  0  0  0  0  0  0
   10.0221   46.4423  133.9325 C   0  0  0  0  0  0  0  0  0  0  0  0
    9.4543   45.1576  133.4906 C   0  0  0  0  0  0  0  0  0  0  0  0
    9.0510   44.2258  134.4165 C   0  0  0  0  0  0  0  0  0  0  0  0
    8.5005   43.0089  134.0051 C   0  0  0  0  0  0  0  0  0  0  0  0
    8.3662   42.7519  132.6570 C   0  0  0  0  0  0  0  0  0  0  0  0
    8.7657   43.6751  131.7047 C   0  0  0  0  0  0  0  0  0  0  0  0
    9.3050   44.8670  132.1253 C   0  0  0  0  0  0  0  0  0  0  0  0
    8.6083   43.3684  130.2635 C   0  0  0  0  0  0  0  0  0  0  0  0
    8.0707   44.4743  129.6337 F   0  0  0  0  0  0  0  0  0  0  0  0
    7.7341   42.3229  130.0711 F   0  0  0  0  0  0  0  0  0  0  0  0
    9.8538   43.0891  129.7256 F   0  0  0  0  0  0  0  0  0  0  0  0
    7.8293   41.5670  132.1982 O   0  0  0  0  0  0  0  0  0  0  0  0
    6.4449   41.3130  132.4203 C   0  0  0  0  0  0  0  0  0  0  0  0
    6.2255   40.9582  133.8356 C   0  0  0  0  0  0  0  0  0  0  0  0
    6.0320   40.6558  134.9849 C   0  0  0  0  0  0  0  0  0  0  0  0
  8  9  1  0  0  0
  9  2  1  0  0  0
  2  3  2  0  0  0
  3  4  1  0  0  0
  4  5  2  0  0  0
  5  6  1  0  0  0
  6  7  2  0  0  0
  5  1  1  0  0  0
  1 23  1  0  0  0
 23 24  1  0  0  0
 24 25  2  0  0  0
 25 26  1  0  0  0
 26 27  2  0  0  0
 27 34  1  0  0  0
 34 35  1  0  0  0
 35 36  1  0  0  0
 36 37  3  0  0  0
 27 28  1  0  0  0
 28 29  2  0  0  0
 28 30  1  0  0  0
 30 31  1  0  0  0
 30 32  1  0  0  0
 30 33  1  0  0  0
  1 10  1  0  0  0
 10 11  2  0  0  0
 11 12  1  0  0  0
 12 13  2  0  0  0
 13 16  1  0  0  0
 16 17  1  0  0  0
 17 18  1  0  0  0
 17 19  2  0  0  0
 13 14  1  0  0  0
 14 15  2  0  0  0
  7  2  1  0  0  0
 29 24  1  0  0  0
 15 10  1  0  0  0
 16 20  1  0  0  0
 18 21  1  0  0  0
 18 22  1  0  0  0
M  END
> <minimizedAffinity>
3.85461

> <CNNscore>
0.5455462337

> <CNNaffinity>
8.3154420853

> <CNN_VS>
4.5364580154

> <CNNaffinity_variance>
1.4873217344

$$$$
[H]C#CC([H])([H])Oc1c([H])c([H])c(C([H])([H])[C@]([H])(c2c([H])nc(N([H])C(=O)N([H])[H])c([H])c2[H])c2c([H])c([H])c(OC([H])([H])[H])c([H])c2[H])c([H])c1C(F)(F)F


 37 39  0  0  0  0  0  0  0  0999 V2000
    7.0747   47.8842  130.0405 C   0  0  0  0  0  0  0  0  0  0  0  0
    9.4170   47.2535  133.4743 C   0  0  0  0  0  0  0  0  0  0  0  0
    9.6139   48.3835  132.6989 C   0  0  0  0  0  0  0  0  0  0  0  0
    8.8653   48.6174  131.5721 C   0  0  0  0  0  0  0  0  0  0  0  0
    7.9047   47.6962  131.2246 C   0  0  0  0  0  0  0  0  0  0  0  0
    7.7085   46.5550  132.0110 C   0  0  0  0  0  0  0  0  0  0  0  0
    8.4552   46.3291  133.1283 C   0  0  0  0  0  0  0  0  0  0  0  0
    9.8539   46.0062  135.5180 C   0  0  0  0  0  0  0  0  0  0  0  0
   10.1698   47.0168  134.6089 O   0  0  0  0  0  0  0  0  0  0  0  0
    7.0049   49.3208  129.6513 C   0  0  0  0  0  0  0  0  0  0  0  0
    6.5296   50.2561  130.5311 C   0  0  0  0  0  0  0  0  0  0  0  0
    6.4826   51.5746  130.1325 C   0  0  0  0  0  0  0  0  0  0  0  0
    6.8957   51.9863  128.8831 C   0  0  0  0  0  0  0  0  0  0  0  0
    7.3521   51.0229  128.0645 N   0  0  0  0  0  0  0  0  0  0  0  0
    7.4210   49.7206  128.3988 C   0  0  0  0  0  0  0  0  0  0  0  0
    6.8432   53.3508  128.4807 N   0  0  0  0  0  0  0  0  0  0  0  0
    7.2517   53.7555  127.2010 C   0  0  0  0  0  0  0  0  0  0  0  0
    7.7385   52.8210  126.2445 N   0  0  0  0  0  0  0  0  0  0  0  0
    7.1923   54.9804  126.8726 O   0  0  0  0  0  0  0  0  0  0  0  0
    6.4887   54.0474  129.1711 H   0  0  0  0  0  0  0  0  0  0  0  0
    7.0986   52.1575  125.7374 H   0  0  0  0  0  0  0  0  0  0  0  0
    8.7522   52.7475  125.9993 H   0  0  0  0  0  0  0  0  0  0  0  0
    7.3996   47.0002  128.8651 C   0  0  0  0  0  0  0  0  0  0  0  0
    8.5710   46.1319  129.0699 C   0  0  0  0  0  0  0  0  0  0  0  0
    9.8256   46.5710  128.7214 C   0  0  0  0  0  0  0  0  0  0  0  0
   10.9437   45.7573  128.9232 C   0  0  0  0  0  0  0  0  0  0  0  0
   10.7747   44.5057  129.4769 C   0  0  0  0  0  0  0  0  0  0  0  0
    9.5203   44.0406  129.8360 C   0  0  0  0  0  0  0  0  0  0  0  0
    8.4309   44.8528  129.6313 C   0  0  0  0  0  0  0  0  0  0  0  0
    9.3723   42.6904  130.4284 C   0  0  0  0  0  0  0  0  0  0  0  0
    9.9105   41.7646  129.5554 F   0  0  0  0  0  0  0  0  0  0  0  0
    8.0457   42.3668  130.6009 F   0  0  0  0  0  0  0  0  0  0  0  0
   10.0611   42.6494  131.6294 F   0  0  0  0  0  0  0  0  0  0  0  0
   11.8447   43.6636  129.6971 O   0  0  0  0  0  0  0  0  0  0  0  0
   12.9915   44.1774  130.3688 C   0  0  0  0  0  0  0  0  0  0  0  0
   12.6074   44.6609  131.7089 C   0  0  0  0  0  0  0  0  0  0  0  0
   12.2761   45.0612  132.7951 C   0  0  0  0  0  0  0  0  0  0  0  0
  8  9  1  0  0  0
  9  2  1  0  0  0
  2  3  2  0  0  0
  3  4  1  0  0  0
  4  5  2  0  0  0
  5  6  1  0  0  0
  6  7  2  0  0  0
  5  1  1  0  0  0
  1 23  1  0  0  0
 23 24  1  0  0  0
 24 25  2  0  0  0
 25 26  1  0  0  0
 26 27  2  0  0  0
 27 34  1  0  0  0
 34 35  1  0  0  0
 35 36  1  0  0  0
 36 37  3  0  0  0
 27 28  1  0  0  0
 28 29  2  0  0  0
 28 30  1  0  0  0
 30 31  1  0  0  0
 30 32  1  0  0  0
 30 33  1  0  0  0
  1 10  1  0  0  0
 10 11  2  0  0  0
 11 12  1  0  0  0
 12 13  2  0  0  0
 13 16  1  0  0  0
 16 17  1  0  0  0
 17 18  1  0  0  0
 17 19  2  0  0  0
 13 14  1  0  0  0
 14 15  2  0  0  0
  7  2  1  0  0  0
 29 24  1  0  0  0
 15 10  1  0  0  0
 16 20  1  0  0  0
 18 21  1  0  0  0
 18 22  1  0  0  0
M  END
> <minimizedAffinity>
-2.57644

> <CNNscore>
0.5069769621

> <CNNaffinity>
7.8830556870

> <CNN_VS>
3.9965276718

> <CNNaffinity_variance>
0.2533874512

$$$$
[H]C#CC([H])([H])Oc1c([H])c([H])c(C([H])([H])[C@]([H])(c2c([H])nc(N([H])C(=O)N([H])[H])c([H])c2[H])c2c([H])c([H])c(OC([H])([H])[H])c([H])c2[H])c([H])c1C(F)(F)F


 37 39  0  0  0  0  0  0  0  0999 V2000
    9.3815   48.5605  130.8141 C   0  0  0  0  0  0  0  0  0  0  0  0
    8.8193   44.7843  129.0535 C   0  0  0  0  0  0  0  0  0  0  0  0
    7.8065   45.3569  129.8040 C   0  0  0  0  0  0  0  0  0  0  0  0
    7.9598   46.5882  130.3916 C   0  0  0  0  0  0  0  0  0  0  0  0
    9.1534   47.2494  130.2178 C   0  0  0  0  0  0  0  0  0  0  0  0
   10.1751   46.6674  129.4583 C   0  0  0  0  0  0  0  0  0  0  0  0
   10.0161   45.4448  128.8780 C   0  0  0  0  0  0  0  0  0  0  0  0
    9.7356   42.8506  127.8940 C   0  0  0  0  0  0  0  0  0  0  0  0
    8.6662   43.5449  128.4615 O   0  0  0  0  0  0  0  0  0  0  0  0
    8.5699   49.6111  130.1377 C   0  0  0  0  0  0  0  0  0  0  0  0
    8.1889   50.7380  130.8156 C   0  0  0  0  0  0  0  0  0  0  0  0
    7.4397   51.6862  130.1532 C   0  0  0  0  0  0  0  0  0  0  0  0
    7.0601   51.5429  128.8353 C   0  0  0  0  0  0  0  0  0  0  0  0
    7.4639   50.4163  128.2235 N   0  0  0  0  0  0  0  0  0  0  0  0
    8.1962   49.4564  128.8193 C   0  0  0  0  0  0  0  0  0  0  0  0
    6.2860   52.5281  128.1598 N   0  0  0  0  0  0  0  0  0  0  0  0
    6.8820   53.4848  127.3243 C   0  0  0  0  0  0  0  0  0  0  0  0
    8.2889   53.5157  127.1130 N   0  0  0  0  0  0  0  0  0  0  0  0
    6.1636   54.3504  126.7356 O   0  0  0  0  0  0  0  0  0  0  0  0
    5.2534   52.5181  128.3049 H   0  0  0  0  0  0  0  0  0  0  0  0
    8.7777   52.8073  126.5080 H   0  0  0  0  0  0  0  0  0  0  0  0
    8.9044   54.2411  127.5469 H   0  0  0  0  0  0  0  0  0  0  0  0
    9.2520   48.6305  132.3131 C   0  0  0  0  0  0  0  0  0  0  0  0
    9.6510   47.3966  133.0105 C   0  0  0  0  0  0  0  0  0  0  0  0
    8.8839   46.9058  134.0394 C   0  0  0  0  0  0  0  0  0  0  0  0
    9.2498   45.7292  134.6987 C   0  0  0  0  0  0  0  0  0  0  0  0
   10.3919   45.0640  134.3053 C   0  0  0  0  0  0  0  0  0  0  0  0
   11.1819   45.5391  133.2714 C   0  0  0  0  0  0  0  0  0  0  0  0
   10.8084   46.6973  132.6330 C   0  0  0  0  0  0  0  0  0  0  0  0
   12.4035   44.8012  132.8730 C   0  0  0  0  0  0  0  0  0  0  0  0
   13.2093   45.6479  132.1362 F   0  0  0  0  0  0  0  0  0  0  0  0
   12.0950   43.7277  132.0688 F   0  0  0  0  0  0  0  0  0  0  0  0
   13.0767   44.3984  134.0145 F   0  0  0  0  0  0  0  0  0  0  0  0
   10.7974   43.8991  134.9227 O   0  0  0  0  0  0  0  0  0  0  0  0
   10.4232   42.6525  134.3426 C   0  0  0  0  0  0  0  0  0  0  0  0
    9.4027   42.8758  133.3006 C   0  0  0  0  0  0  0  0  0  0  0  0
    8.5557   43.0592  132.4645 C   0  0  0  0  0  0  0  0  0  0  0  0
  8  9  1  0  0  0
  9  2  1  0  0  0
  2  3  2  0  0  0
  3  4  1  0  0  0
  4  5  2  0  0  0
  5  6  1  0  0  0
  6  7  2  0  0  0
  5  1  1  0  0  0
  1 23  1  0  0  0
 23 24  1  0  0  0
 24 25  2  0  0  0
 25 26  1  0  0  0
 26 27  2  0  0  0
 27 34  1  0  0  0
 34 35  1  0  0  0
 35 36  1  0  0  0
 36 37  3  0  0  0
 27 28  1  0  0  0
 28 29  2  0  0  0
 28 30  1  0  0  0
 30 31  1  0  0  0
 30 32  1  0  0  0
 30 33  1  0  0  0
  1 10  1  0  0  0
 10 11  2  0  0  0
 11 12  1  0  0  0
 12 13  2  0  0  0
 13 16  1  0  0  0
 16 17  1  0  0  0
 17 18  1  0  0  0
 17 19  2  0  0  0
 13 14  1  0  0  0
 14 15  2  0  0  0
  7  2  1  0  0  0
 29 24  1  0  0  0
 15 10  1  0  0  0
 16 20  1  0  0  0
 18 21  1  0  0  0
 18 22  1  0  0  0
M  END
> <minimizedAffinity>
-1.49210

> <CNNscore>
0.4264598787

> <CNNaffinity>
7.8924951553

> <CNN_VS>
3.3658325672

> <CNNaffinity_variance>
0.4084850252

$$$$
[H]C#CC([H])([H])Oc1c([H])c([H])c(C([H])([H])[C@]([H])(c2c([H])nc(N([H])C(=O)N([H])[H])c([H])c2[H])c2c([H])c([H])c(OC([H])([H])[H])c([H])c2[H])c([H])c1C(F)(F)F


 37 39  0  0  0  0  0  0  0  0999 V2000
    7.7028   47.3793  130.0079 C   0  0  0  0  0  0  0  0  0  0  0  0
    8.8558   46.7777  134.0060 C   0  0  0  0  0  0  0  0  0  0  0  0
    9.3426   47.8648  133.3003 C   0  0  0  0  0  0  0  0  0  0  0  0
    8.9850   48.0882  131.9937 C   0  0  0  0  0  0  0  0  0  0  0  0
    8.1233   47.2002  131.3927 C   0  0  0  0  0  0  0  0  0  0  0  0
    7.6331   46.1023  132.1094 C   0  0  0  0  0  0  0  0  0  0  0  0
    7.9923   45.8867  133.4060 C   0  0  0  0  0  0  0  0  0  0  0  0
   10.2132   45.6439  135.6779 C   0  0  0  0  0  0  0  0  0  0  0  0
    9.2150   46.5517  135.3213 O   0  0  0  0  0  0  0  0  0  0  0  0
    7.4617   48.8165  129.6973 C   0  0  0  0  0  0  0  0  0  0  0  0
    7.3082   49.7287  130.7068 C   0  0  0  0  0  0  0  0  0  0  0  0
    7.0881   51.0486  130.3770 C   0  0  0  0  0  0  0  0  0  0  0  0
    7.0169   51.4842  129.0706 C   0  0  0  0  0  0  0  0  0  0  0  0
    7.1754   50.5427  128.1245 N   0  0  0  0  0  0  0  0  0  0  0  0
    7.3925   49.2402  128.3869 C   0  0  0  0  0  0  0  0  0  0  0  0
    6.7891   52.8499  128.7401 N   0  0  0  0  0  0  0  0  0  0  0  0
    7.1565   53.3748  127.4920 C   0  0  0  0  0  0  0  0  0  0  0  0
    7.7748   52.5666  126.4972 N   0  0  0  0  0  0  0  0  0  0  0  0
    6.9395   54.5974  127.2278 O   0  0  0  0  0  0  0  0  0  0  0  0
    6.3368   53.4547  129.4592 H   0  0  0  0  0  0  0  0  0  0  0  0
    7.2349   51.8536  125.9431 H   0  0  0  0  0  0  0  0  0  0  0  0
    8.7924   52.6408  126.2685 H   0  0  0  0  0  0  0  0  0  0  0  0
    8.5704   46.7190  128.9688 C   0  0  0  0  0  0  0  0  0  0  0  0
    9.3141   45.5473  129.4609 C   0  0  0  0  0  0  0  0  0  0  0  0
    8.8335   44.2798  129.2359 C   0  0  0  0  0  0  0  0  0  0  0  0
    9.5393   43.1623  129.6898 C   0  0  0  0  0  0  0  0  0  0  0  0
   10.7260   43.3451  130.3679 C   0  0  0  0  0  0  0  0  0  0  0  0
   11.2307   44.6126  130.6074 C   0  0  0  0  0  0  0  0  0  0  0  0
   10.5249   45.7013  130.1545 C   0  0  0  0  0  0  0  0  0  0  0  0
   12.5087   44.7752  131.3396 C   0  0  0  0  0  0  0  0  0  0  0  0
   13.5491   44.4681  130.4840 F   0  0  0  0  0  0  0  0  0  0  0  0
   12.5848   43.9063  132.4043 F   0  0  0  0  0  0  0  0  0  0  0  0
   12.6236   46.0917  131.7546 F   0  0  0  0  0  0  0  0  0  0  0  0
   11.4612   42.2762  130.8368 O   0  0  0  0  0  0  0  0  0  0  0  0
   10.8863   41.4367  131.8342 C   0  0  0  0  0  0  0  0  0  0  0  0
   10.0847   42.2511  132.7677 C   0  0  0  0  0  0  0  0  0  0  0  0
    9.4307   42.9309  133.5161 C   0  0  0  0  0  0  0  0  0  0  0  0
  8  9  1  0  0  0
  9  2  1  0  0  0
  2  3  2  0  0  0
  3  4  1  0  0  0
  4  5  2  0  0  0
  5  6  1  0  0  0
  6  7  2  0  0  0
  5  1  1  0  0  0
  1 23  1  0  0  0
 23 24  1  0  0  0
 24 25  2  0  0  0
 25 26  1  0  0  0
 26 27  2  0  0  0
 27 34  1  0  0  0
 34 35  1  0  0  0
 35 36  1  0  0  0
 36 37  3  0  0  0
 27 28  1  0  0  0
 28 29  2  0  0  0
 28 30  1  0  0  0
 30 31  1  0  0  0
 30 32  1  0  0  0
 30 33  1  0  0  0
  1 10  1  0  0  0
 10 11  2  0  0  0
 11 12  1  0  0  0
 12 13  2  0  0  0
 13 16  1  0  0  0
 16 17  1  0  0  0
 17 18  1  0  0  0
 17 19  2  0  0  0
 13 14  1  0  0  0
 14 15  2  0  0  0
  7  2  1  0  0  0
 29 24  1  0  0  0
 15 10  1  0  0  0
 16 20  1  0  0  0
 18 21  1  0  0  0
 18 22  1  0  0  0
M  END
> <minimizedAffinity>
-2.99740

> <CNNscore>
0.4152873755

> <CNNaffinity>
7.8342027664

> <CNN_VS>
3.2534453869

> <CNNaffinity_variance>
0.4340840280

$$$$
[H]C#CC([H])([H])Oc1c([H])c([H])c(C([H])([H])[C@]([H])(c2c([H])nc(N([H])C(=O)N([H])[H])c([H])c2[H])c2c([H])c([H])c(OC([H])([H])[H])c([H])c2[H])c([H])c1C(F)(F)F


 37 39  0  0  0  0  0  0  0  0999 V2000
   10.4324   47.8524  132.3434 C   0  0  0  0  0  0  0  0  0  0  0  0
   12.4746   45.2290  129.7700 C   0  0  0  0  0  0  0  0  0  0  0  0
   12.9353   45.4335  131.0594 C   0  0  0  0  0  0  0  0  0  0  0  0
   12.2906   46.2839  131.9232 C   0  0  0  0  0  0  0  0  0  0  0  0
   11.1648   46.9361  131.4770 C   0  0  0  0  0  0  0  0  0  0  0  0
   10.7019   46.7267  130.1727 C   0  0  0  0  0  0  0  0  0  0  0  0
   11.3468   45.8813  129.3206 C   0  0  0  0  0  0  0  0  0  0  0  0
   14.4899   44.1086  128.9909 C   0  0  0  0  0  0  0  0  0  0  0  0
   13.1227   44.3732  128.8994 O   0  0  0  0  0  0  0  0  0  0  0  0
    9.3166   48.5143  131.6105 C   0  0  0  0  0  0  0  0  0  0  0  0
    8.3274   47.7667  131.0297 C   0  0  0  0  0  0  0  0  0  0  0  0
    7.3126   48.4178  130.3621 C   0  0  0  0  0  0  0  0  0  0  0  0
    7.2562   49.7915  130.2576 C   0  0  0  0  0  0  0  0  0  0  0  0
    8.2547   50.4704  130.8479 N   0  0  0  0  0  0  0  0  0  0  0  0
    9.2709   49.8891  131.5127 C   0  0  0  0  0  0  0  0  0  0  0  0
    6.2036   50.4548  129.5658 N   0  0  0  0  0  0  0  0  0  0  0  0
    5.0969   49.7527  129.0650 C   0  0  0  0  0  0  0  0  0  0  0  0
    4.9744   48.3440  129.2247 N   0  0  0  0  0  0  0  0  0  0  0  0
    4.1743   50.3736  128.4525 O   0  0  0  0  0  0  0  0  0  0  0  0
    6.2794   51.4873  129.4409 H   0  0  0  0  0  0  0  0  0  0  0  0
    4.7258   47.9070  130.1489 H   0  0  0  0  0  0  0  0  0  0  0  0
    5.1247   47.6758  128.4347 H   0  0  0  0  0  0  0  0  0  0  0  0
    9.9780   47.2852  133.6626 C   0  0  0  0  0  0  0  0  0  0  0  0
    9.8748   45.8165  133.6834 C   0  0  0  0  0  0  0  0  0  0  0  0
   10.5341   45.0913  134.6465 C   0  0  0  0  0  0  0  0  0  0  0  0
   10.4319   43.6979  134.6798 C   0  0  0  0  0  0  0  0  0  0  0  0
    9.6607   43.0564  133.7336 C   0  0  0  0  0  0  0  0  0  0  0  0
    8.9870   43.7653  132.7526 C   0  0  0  0  0  0  0  0  0  0  0  0
    9.0976   45.1350  132.7334 C   0  0  0  0  0  0  0  0  0  0  0  0
    8.1668   43.0461  131.7498 C   0  0  0  0  0  0  0  0  0  0  0  0
    7.4137   42.0884  132.4013 F   0  0  0  0  0  0  0  0  0  0  0  0
    8.9611   42.3904  130.8369 F   0  0  0  0  0  0  0  0  0  0  0  0
    7.3247   43.9518  131.1259 F   0  0  0  0  0  0  0  0  0  0  0  0
    9.5265   41.6836  133.7220 O   0  0  0  0  0  0  0  0  0  0  0  0
   10.4680   40.9114  132.9820 C   0  0  0  0  0  0  0  0  0  0  0  0
   11.4011   41.8095  132.2750 C   0  0  0  0  0  0  0  0  0  0  0  0
   12.1725   42.5454  131.7153 C   0  0  0  0  0  0  0  0  0  0  0  0
  8  9  1  0  0  0
  9  2  1  0  0  0
  2  3  2  0  0  0
  3  4  1  0  0  0
  4  5  2  0  0  0
  5  6  1  0  0  0
  6  7  2  0  0  0
  5  1  1  0  0  0
  1 23  1  0  0  0
 23 24  1  0  0  0
 24 25  2  0  0  0
 25 26  1  0  0  0
 26 27  2  0  0  0
 27 34  1  0  0  0
 34 35  1  0  0  0
 35 36  1  0  0  0
 36 37  3  0  0  0
 27 28  1  0  0  0
 28 29  2  0  0  0
 28 30  1  0  0  0
 30 31  1  0  0  0
 30 32  1  0  0  0
 30 33  1  0  0  0
  1 10  1  0  0  0
 10 11  2  0  0  0
 11 12  1  0  0  0
 12 13  2  0  0  0
 13 16  1  0  0  0
 16 17  1  0  0  0
 17 18  1  0  0  0
 17 19  2  0  0  0
 13 14  1  0  0  0
 14 15  2  0  0  0
  7  2  1  0  0  0
 29 24  1  0  0  0
 15 10  1  0  0  0
 16 20  1  0  0  0
 18 21  1  0  0  0
 18 22  1  0  0  0
M  END
> <minimizedAffinity>
2.92864

> <CNNscore>
0.4029347897

> <CNNaffinity>
8.0573472977

> <CNN_VS>
3.2465856075

> <CNNaffinity_variance>
1.0014001131

$$$$
[H]C#CC([H])([H])Oc1c([H])c([H])c(C([H])([H])[C@]([H])(c2c([H])nc(N([H])C(=O)N([H])[H])c([H])c2[H])c2c([H])c([H])c(OC([H])([H])[H])c([H])c2[H])c([H])c1C(F)(F)F


 37 39  0  0  0  0  0  0  0  0999 V2000
    9.8291   48.5638  130.7842 C   0  0  0  0  0  0  0  0  0  0  0  0
    9.6923   44.9011  128.7248 C   0  0  0  0  0  0  0  0  0  0  0  0
   10.8437   45.6694  128.6969 C   0  0  0  0  0  0  0  0  0  0  0  0
   10.9193   46.8698  129.3589 C   0  0  0  0  0  0  0  0  0  0  0  0
    9.8156   47.2989  130.0587 C   0  0  0  0  0  0  0  0  0  0  0  0
    8.6532   46.5194  130.0848 C   0  0  0  0  0  0  0  0  0  0  0  0
    8.5852   45.3289  129.4253 C   0  0  0  0  0  0  0  0  0  0  0  0
    9.6949   42.4673  128.7221 C   0  0  0  0  0  0  0  0  0  0  0  0
    9.6149   43.6926  128.0588 O   0  0  0  0  0  0  0  0  0  0  0  0
    8.8976   49.5505  130.1687 C   0  0  0  0  0  0  0  0  0  0  0  0
    8.5253   50.6755  130.8546 C   0  0  0  0  0  0  0  0  0  0  0  0
    7.6628   51.5636  130.2491 C   0  0  0  0  0  0  0  0  0  0  0  0
    7.1617   51.3621  128.9804 C   0  0  0  0  0  0  0  0  0  0  0  0
    7.5633   50.2406  128.3579 N   0  0  0  0  0  0  0  0  0  0  0  0
    8.4029   49.3380  128.8991 C   0  0  0  0  0  0  0  0  0  0  0  0
    6.2712   52.2855  128.3635 N   0  0  0  0  0  0  0  0  0  0  0  0
    6.7244   53.2345  127.4348 C   0  0  0  0  0  0  0  0  0  0  0  0
    8.0962   53.3191  127.0659 N   0  0  0  0  0  0  0  0  0  0  0  0
    5.9045   54.0443  126.9019 O   0  0  0  0  0  0  0  0  0  0  0  0
    5.2627   52.2357  128.6240 H   0  0  0  0  0  0  0  0  0  0  0  0
    8.5484   52.6101  126.4338 H   0  0  0  0  0  0  0  0  0  0  0  0
    8.7203   54.0871  127.4033 H   0  0  0  0  0  0  0  0  0  0  0  0
    9.6377   48.4666  132.2750 C   0  0  0  0  0  0  0  0  0  0  0  0
    9.4613   47.0917  132.7714 C   0  0  0  0  0  0  0  0  0  0  0  0
    8.2061   46.6228  133.0755 C   0  0  0  0  0  0  0  0  0  0  0  0
    8.0292   45.3153  133.5363 C   0  0  0  0  0  0  0  0  0  0  0  0
    9.1304   44.4983  133.6833 C   0  0  0  0  0  0  0  0  0  0  0  0
   10.4058   44.9481  133.3837 C   0  0  0  0  0  0  0  0  0  0  0  0
   10.5630   46.2363  132.9316 C   0  0  0  0  0  0  0  0  0  0  0  0
   11.5686   44.0454  133.5530 C   0  0  0  0  0  0  0  0  0  0  0  0
   11.3465   43.2422  134.6550 F   0  0  0  0  0  0  0  0  0  0  0  0
   12.7205   44.7593  133.7929 F   0  0  0  0  0  0  0  0  0  0  0  0
   11.6919   43.2555  132.4218 F   0  0  0  0  0  0  0  0  0  0  0  0
    9.0107   43.2002  134.1342 O   0  0  0  0  0  0  0  0  0  0  0  0
    8.4968   42.2127  133.2448 C   0  0  0  0  0  0  0  0  0  0  0  0
    7.2871   41.6007  133.8272 C   0  0  0  0  0  0  0  0  0  0  0  0
    6.3116   41.0895  134.3142 C   0  0  0  0  0  0  0  0  0  0  0  0
  8  9  1  0  0  0
  9  2  1  0  0  0
  2  3  2  0  0  0
  3  4  1  0  0  0
  4  5  2  0  0  0
  5  6  1  0  0  0
  6  7  2  0  0  0
  5  1  1  0  0  0
  1 23  1  0  0  0
 23 24  1  0  0  0
 24 25  2  0  0  0
 25 26  1  0  0  0
 26 27  2  0  0  0
 27 34  1  0  0  0
 34 35  1  0  0  0
 35 36  1  0  0  0
 36 37  3  0  0  0
 27 28  1  0  0  0
 28 29  2  0  0  0
 28 30  1  0  0  0
 30 31  1  0  0  0
 30 32  1  0  0  0
 30 33  1  0  0  0
  1 10  1  0  0  0
 10 11  2  0  0  0
 11 12  1  0  0  0
 12 13  2  0  0  0
 13 16  1  0  0  0
 16 17  1  0  0  0
 17 18  1  0  0  0
 17 19  2  0  0  0
 13 14  1  0  0  0
 14 15  2  0  0  0
  7  2  1  0  0  0
 29 24  1  0  0  0
 15 10  1  0  0  0
 16 20  1  0  0  0
 18 21  1  0  0  0
 18 22  1  0  0  0
M  END
> <minimizedAffinity>
3.28902

> <CNNscore>
0.4004296958

> <CNNaffinity>
7.5902724266

> <CNN_VS>
3.0393705368

> <CNNaffinity_variance>
0.5139783621

$$$$
[H]C#CC([H])([H])Oc1c([H])c([H])c(C([H])([H])[C@]([H])(c2c([H])nc(N([H])C(=O)N([H])[H])c([H])c2[H])c2c([H])c([H])c(OC([H])([H])[H])c([H])c2[H])c([H])c1C(F)(F)F


 37 39  0  0  0  0  0  0  0  0999 V2000
   10.9498   47.0064  133.7121 C   0  0  0  0  0  0  0  0  0  0  0  0
    7.0907   45.5780  134.5739 C   0  0  0  0  0  0  0  0  0  0  0  0
    7.5468   46.7432  135.1663 C   0  0  0  0  0  0  0  0  0  0  0  0
    8.8018   47.2349  134.9053 C   0  0  0  0  0  0  0  0  0  0  0  0
    9.6064   46.5389  134.0334 C   0  0  0  0  0  0  0  0  0  0  0  0
    9.1418   45.3612  133.4362 C   0  0  0  0  0  0  0  0  0  0  0  0
    7.8950   44.8789  133.6999 C   0  0  0  0  0  0  0  0  0  0  0  0
    5.6223   43.8911  135.5339 C   0  0  0  0  0  0  0  0  0  0  0  0
    5.8276   45.0819  134.8358 O   0  0  0  0  0  0  0  0  0  0  0  0
   11.6591   46.0441  132.8226 C   0  0  0  0  0  0  0  0  0  0  0  0
   12.2285   44.9112  133.3392 C   0  0  0  0  0  0  0  0  0  0  0  0
   12.8742   44.0463  132.4823 C   0  0  0  0  0  0  0  0  0  0  0  0
   12.9681   44.2788  131.1264 C   0  0  0  0  0  0  0  0  0  0  0  0
   12.3899   45.4067  130.6790 N   0  0  0  0  0  0  0  0  0  0  0  0
   11.7465   46.2875  131.4681 C   0  0  0  0  0  0  0  0  0  0  0  0
   13.6374   43.3793  130.2494 N   0  0  0  0  0  0  0  0  0  0  0  0
   14.5911   43.8288  129.3237 C   0  0  0  0  0  0  0  0  0  0  0  0
   14.9342   45.2058  129.2175 N   0  0  0  0  0  0  0  0  0  0  0  0
   15.1708   43.0009  128.5554 O   0  0  0  0  0  0  0  0  0  0  0  0
   13.3964   42.3668  130.3155 H   0  0  0  0  0  0  0  0  0  0  0  0
   15.5299   45.6893  129.9375 H   0  0  0  0  0  0  0  0  0  0  0  0
   14.6126   45.8031  128.4219 H   0  0  0  0  0  0  0  0  0  0  0  0
   11.0473   48.4195  133.2002 C   0  0  0  0  0  0  0  0  0  0  0  0
   10.0979   48.7359  132.1201 C   0  0  0  0  0  0  0  0  0  0  0  0
    9.4527   49.9489  132.1009 C   0  0  0  0  0  0  0  0  0  0  0  0
    8.5588   50.2611  131.0730 C   0  0  0  0  0  0  0  0  0  0  0  0
    8.3300   49.3367  130.0756 C   0  0  0  0  0  0  0  0  0  0  0  0
    8.9678   48.1070  130.0733 C   0  0  0  0  0  0  0  0  0  0  0  0
    9.8439   47.8153  131.0910 C   0  0  0  0  0  0  0  0  0  0  0  0
    8.6997   47.1353  128.9873 C   0  0  0  0  0  0  0  0  0  0  0  0
    9.9013   46.5910  128.5763 F   0  0  0  0  0  0  0  0  0  0  0  0
    8.1365   47.7546  127.8949 F   0  0  0  0  0  0  0  0  0  0  0  0
    7.8796   46.1315  129.4757 F   0  0  0  0  0  0  0  0  0  0  0  0
    7.4578   49.5949  129.0387 O   0  0  0  0  0  0  0  0  0  0  0  0
    6.0665   49.7032  129.3271 C   0  0  0  0  0  0  0  0  0  0  0  0
    5.4675   48.3566  129.3981 C   0  0  0  0  0  0  0  0  0  0  0  0
    4.9883   47.2545  129.4735 C   0  0  0  0  0  0  0  0  0  0  0  0
  8  9  1  0  0  0
  9  2  1  0  0  0
  2  3  2  0  0  0
  3  4  1  0  0  0
  4  5  2  0  0  0
  5  6  1  0  0  0
  6  7  2  0  0  0
  5  1  1  0  0  0
  1 23  1  0  0  0
 23 24  1  0  0  0
 24 25  2  0  0  0
 25 26  1  0  0  0
 26 27  2  0  0  0
 27 34  1  0  0  0
 34 35  1  0  0  0
 35 36  1  0  0  0
 36 37  3  0  0  0
 27 28  1  0  0  0
 28 29  2  0  0  0
 28 30  1  0  0  0
 30 31  1  0  0  0
 30 32  1  0  0  0
 30 33  1  0  0  0
  1 10  1  0  0  0
 10 11  2  0  0  0
 11 12  1  0  0  0
 12 13  2  0  0  0
 13 16  1  0  0  0
 16 17  1  0  0  0
 17 18  1  0  0  0
 17 19  2  0  0  0
 13 14  1  0  0  0
 14 15  2  0  0  0
  7  2  1  0  0  0
 29 24  1  0  0  0
 15 10  1  0  0  0
 16 20  1  0  0  0
 18 21  1  0  0  0
 18 22  1  0  0  0
M  END
> <minimizedAffinity>
8.66893

> <CNNscore>
0.3721719086

> <CNNaffinity>
7.6791701317

> <CNN_VS>
2.8579714298

> <CNNaffinity_variance>
1.4986540079

$$$$
[H]C#CC([H])([H])Oc1c([H])c([H])c(C([H])([H])[C@]([H])(c2c([H])nc(N([H])C(=O)N([H])[H])c([H])c2[H])c2c([H])c([H])c(OC([H])([H])[H])c([H])c2[H])c([H])c1C(F)(F)F


 37 39  0  0  0  0  0  0  0  0999 V2000
    9.1155   45.9351  131.2874 C   0  0  0  0  0  0  0  0  0  0  0  0
   10.9085   44.7925  134.9144 C   0  0  0  0  0  0  0  0  0  0  0  0
    9.5485   44.6132  134.7268 C   0  0  0  0  0  0  0  0  0  0  0  0
    8.9339   44.9764  133.5541 C   0  0  0  0  0  0  0  0  0  0  0  0
    9.7050   45.5282  132.5576 C   0  0  0  0  0  0  0  0  0  0  0  0
   11.0798   45.7078  132.7508 C   0  0  0  0  0  0  0  0  0  0  0  0
   11.6832   45.3451  133.9175 C   0  0  0  0  0  0  0  0  0  0  0  0
   11.4428   43.1353  136.6149 C   0  0  0  0  0  0  0  0  0  0  0  0
   11.5284   44.4274  136.0945 O   0  0  0  0  0  0  0  0  0  0  0  0
    9.8539   45.3463  130.1350 C   0  0  0  0  0  0  0  0  0  0  0  0
   10.4036   46.1548  129.1764 C   0  0  0  0  0  0  0  0  0  0  0  0
   11.0798   45.5705  128.1273 C   0  0  0  0  0  0  0  0  0  0  0  0
   11.2234   44.2044  128.0071 C   0  0  0  0  0  0  0  0  0  0  0  0
   10.6626   43.4637  128.9784 N   0  0  0  0  0  0  0  0  0  0  0  0
    9.9910   43.9785  130.0255 C   0  0  0  0  0  0  0  0  0  0  0  0
   11.9238   43.6104  126.9194 N   0  0  0  0  0  0  0  0  0  0  0  0
   13.3158   43.4378  126.9487 C   0  0  0  0  0  0  0  0  0  0  0  0
   14.0937   43.8489  128.0671 N   0  0  0  0  0  0  0  0  0  0  0  0
   13.9110   42.9041  125.9624 O   0  0  0  0  0  0  0  0  0  0  0  0
   11.3670   43.3040  126.0926 H   0  0  0  0  0  0  0  0  0  0  0  0
   14.0939   43.3141  128.9731 H   0  0  0  0  0  0  0  0  0  0  0  0
   14.7013   44.6995  128.0441 H   0  0  0  0  0  0  0  0  0  0  0  0
    7.6280   45.7352  131.1611 C   0  0  0  0  0  0  0  0  0  0  0  0
    6.9255   46.8443  130.4943 C   0  0  0  0  0  0  0  0  0  0  0  0
    5.6918   46.6380  129.9256 C   0  0  0  0  0  0  0  0  0  0  0  0
    5.0138   47.6883  129.3009 C   0  0  0  0  0  0  0  0  0  0  0  0
    5.5972   48.9372  129.2608 C   0  0  0  0  0  0  0  0  0  0  0  0
    6.8400   49.1699  129.8264 C   0  0  0  0  0  0  0  0  0  0  0  0
    7.4938   48.1268  130.4371 C   0  0  0  0  0  0  0  0  0  0  0  0
    7.4399   50.5235  129.7659 C   0  0  0  0  0  0  0  0  0  0  0  0
    6.6205   51.3998  130.4512 F   0  0  0  0  0  0  0  0  0  0  0  0
    7.5232   50.9719  128.4675 F   0  0  0  0  0  0  0  0  0  0  0  0
    8.6870   50.4888  130.3679 F   0  0  0  0  0  0  0  0  0  0  0  0
    4.9705   50.0073  128.6568 O   0  0  0  0  0  0  0  0  0  0  0  0
    3.5771   50.2002  128.8842 C   0  0  0  0  0  0  0  0  0  0  0  0
    2.9830   50.9240  127.7439 C   0  0  0  0  0  0  0  0  0  0  0  0
    2.4981   51.5316  126.8243 C   0  0  0  0  0  0  0  0  0  0  0  0
  8  9  1  0  0  0
  9  2  1  0  0  0
  2  3  2  0  0  0
  3  4  1  0  0  0
  4  5  2  0  0  0
  5  6  1  0  0  0
  6  7  2  0  0  0
  5  1  1  0  0  0
  1 23  1  0  0  0
 23 24  1  0  0  0
 24 25  2  0  0  0
 25 26  1  0  0  0
 26 27  2  0  0  0
 27 34  1  0  0  0
 34 35  1  0  0  0
 35 36  1  0  0  0
 36 37  3  0  0  0
 27 28  1  0  0  0
 28 29  2  0  0  0
 28 30  1  0  0  0
 30 31  1  0  0  0
 30 32  1  0  0  0
 30 33  1  0  0  0
  1 10  1  0  0  0
 10 11  2  0  0  0
 11 12  1  0  0  0
 12 13  2  0  0  0
 13 16  1  0  0  0
 16 17  1  0  0  0
 17 18  1  0  0  0
 17 19  2  0  0  0
 13 14  1  0  0  0
 14 15  2  0  0  0
  7  2  1  0  0  0
 29 24  1  0  0  0
 15 10  1  0  0  0
 16 20  1  0  0  0
 18 21  1  0  0  0
 18 22  1  0  0  0
M  END
> <minimizedAffinity>
12.82568

> <CNNscore>
0.3701266944

> <CNNaffinity>
7.4600372314

> <CNN_VS>
2.7611589432

> <CNNaffinity_variance>
1.0765638351

$$$$
[H]Oc1c([H])c([H])c([C@@]2([H])Sc3c(c([H])c([H])c(O[H])c3O[H])O[C@]2([H])c2c([H])c([H])c(OC([H])([H])[C@@]([H])(OC([H])([H])C([H])([H])N3C([H])([H])C([H])([H])C([H])([H])C3([H])[H])C([H])([H])[H])c([H])c2[H])c([H])c1[H]


 40 44  0  0  0  0  0  0  0  0999 V2000
   10.4605   46.7301  131.1511 C   0  0  0  0  0  0  0  0  0  0  0  0
   11.0262   47.2139  132.2979 O   0  0  0  0  0  0  0  0  0  0  0  0
   10.7878   46.8716  133.5931 C   0  0  0  0  0  0  0  0  0  0  0  0
   11.0461   47.7808  134.5949 C   0  0  0  0  0  0  0  0  0  0  0  0
   10.8106   47.4543  135.9232 C   0  0  0  0  0  0  0  0  0  0  0  0
   10.3089   46.1955  136.2366 C   0  0  0  0  0  0  0  0  0  0  0  0
   10.0768   45.8820  137.5801 O   0  0  0  0  0  0  0  0  0  0  0  0
   10.0551   45.2959  135.2225 C   0  0  0  0  0  0  0  0  0  0  0  0
    9.5491   44.0456  135.6234 O   0  0  0  0  0  0  0  0  0  0  0  0
   10.2929   45.6397  133.9475 C   0  0  0  0  0  0  0  0  0  0  0  0
    9.9615   44.4696  132.6463 S   0  0  0  0  0  0  0  0  0  0  0  0
    9.6844   45.4808  131.1711 C   0  0  0  0  0  0  0  0  0  0  0  0
   10.2673   46.5460  138.2906 H   0  0  0  0  0  0  0  0  0  0  0  0
    9.3662   43.3914  134.8745 H   0  0  0  0  0  0  0  0  0  0  0  0
    9.9934   44.6374  129.9897 C   0  0  0  0  0  0  0  0  0  0  0  0
    9.0219   43.7780  129.4866 C   0  0  0  0  0  0  0  0  0  0  0  0
    9.2551   42.9666  128.3844 C   0  0  0  0  0  0  0  0  0  0  0  0
   10.4966   43.0150  127.7652 C   0  0  0  0  0  0  0  0  0  0  0  0
   10.6961   42.1993  126.6753 O   0  0  0  0  0  0  0  0  0  0  0  0
   11.4731   43.8538  128.2408 C   0  0  0  0  0  0  0  0  0  0  0  0
   11.2072   44.6464  129.3386 C   0  0  0  0  0  0  0  0  0  0  0  0
   11.5763   42.1905  126.1846 H   0  0  0  0  0  0  0  0  0  0  0  0
    7.8857   49.6863  129.5285 C   0  0  0  0  0  0  0  0  0  0  0  0
    8.4119   49.8659  130.8090 C   0  0  0  0  0  0  0  0  0  0  0  0
    9.2480   48.9120  131.3479 C   0  0  0  0  0  0  0  0  0  0  0  0
    9.5459   47.8052  130.6139 C   0  0  0  0  0  0  0  0  0  0  0  0
    9.0274   47.6187  129.3403 C   0  0  0  0  0  0  0  0  0  0  0  0
    8.1824   48.5710  128.7819 C   0  0  0  0  0  0  0  0  0  0  0  0
    7.0633   50.6782  129.0630 O   0  0  0  0  0  0  0  0  0  0  0  0
    7.3892   52.0607  129.1294 C   0  0  0  0  0  0  0  0  0  0  0  0
    5.3189   52.1197  127.7235 C   0  0  0  0  0  0  0  0  0  0  0  0
    6.5889   52.8507  128.1163 C   0  0  0  0  0  0  0  0  0  0  0  0
    7.3796   53.0729  127.0309 O   0  0  0  0  0  0  0  0  0  0  0  0
    7.6956   54.3666  126.7304 C   0  0  0  0  0  0  0  0  0  0  0  0
    6.9253   54.8132  125.5155 C   0  0  0  0  0  0  0  0  0  0  0  0
    7.5391   54.1765  124.3567 N   0  0  0  0  0  0  0  0  0  0  0  0
    6.8203   54.4106  123.1622 C   0  0  0  0  0  0  0  0  0  0  0  0
    7.7937   54.9169  122.1585 C   0  0  0  0  0  0  0  0  0  0  0  0
    9.1382   54.6111  122.7817 C   0  0  0  0  0  0  0  0  0  0  0  0
    8.8792   54.6223  124.2737 C   0  0  0  0  0  0  0  0  0  0  0  0
 31 32  1  0  0  0
 32 30  1  0  0  0
 30 29  1  0  0  0
 29 23  1  0  0  0
 23 24  2  0  0  0
 24 25  1  0  0  0
 25 26  2  0  0  0
 26 27  1  0  0  0
 27 28  2  0  0  0
 26  1  1  0  0  0
  1  2  1  0  0  0
  2  3  1  0  0  0
  3  4  2  0  0  0
  4  5  1  0  0  0
  5  6  2  0  0  0
  6  7  1  0  0  0
  6  8  1  0  0  0
  8  9  1  0  0  0
  8 10  2  0  0  0
 10 11  1  0  0  0
 11 12  1  0  0  0
 12 15  1  0  0  0
 15 16  2  0  0  0
 16 17  1  0  0  0
 17 18  2  0  0  0
 18 19  1  0  0  0
 18 20  1  0  0  0
 20 21  2  0  0  0
 32 33  1  0  0  0
 33 34  1  0  0  0
 34 35  1  0  0  0
 35 36  1  0  0  0
 36 37  1  0  0  0
 37 38  1  0  0  0
 38 39  1  0  0  0
 39 40  1  0  0  0
 28 23  1  0  0  0
 12  1  1  0  0  0
 21 15  1  0  0  0
 40 36  1  0  0  0
 10  3  1  0  0  0
  7 13  1  0  0  0
  9 14  1  0  0  0
 19 22  1  0  0  0
M  END
> <minimizedAffinity>
10.84282

> <CNNscore>
0.3132617772

> <CNNaffinity>
7.0899381638

> <CNN_VS>
2.2210066319

> <CNNaffinity_variance>
1.2282376289

$$$$
[H]Oc1c([H])c([H])c([C@@]2([H])Sc3c(c([H])c([H])c(O[H])c3O[H])O[C@]2([H])c2c([H])c([H])c(OC([H])([H])[C@@]([H])(OC([H])([H])C([H])([H])N3C([H])([H])C([H])([H])C([H])([H])C3([H])[H])C([H])([H])[H])c([H])c2[H])c([H])c1[H]


 40 44  0  0  0  0  0  0  0  0999 V2000
   10.9149   46.7832  131.4496 C   0  0  0  0  0  0  0  0  0  0  0  0
   10.8662   47.3796  132.6788 O   0  0  0  0  0  0  0  0  0  0  0  0
   10.5780   46.8387  133.8938 C   0  0  0  0  0  0  0  0  0  0  0  0
   10.0808   47.6432  134.8951 C   0  0  0  0  0  0  0  0  0  0  0  0
    9.7793   47.1139  136.1423 C   0  0  0  0  0  0  0  0  0  0  0  0
    9.9840   45.7580  136.3744 C   0  0  0  0  0  0  0  0  0  0  0  0
    9.6749   45.2400  137.6366 O   0  0  0  0  0  0  0  0  0  0  0  0
   10.4824   44.9652  135.3619 C   0  0  0  0  0  0  0  0  0  0  0  0
   10.6600   43.6056  135.6777 O   0  0  0  0  0  0  0  0  0  0  0  0
   10.7649   45.5050  134.1664 C   0  0  0  0  0  0  0  0  0  0  0  0
   11.4083   44.4715  132.8664 S   0  0  0  0  0  0  0  0  0  0  0  0
   10.9545   45.3175  131.3321 C   0  0  0  0  0  0  0  0  0  0  0  0
    9.3178   45.8305  138.3479 H   0  0  0  0  0  0  0  0  0  0  0  0
   11.0263   43.0310  134.9307 H   0  0  0  0  0  0  0  0  0  0  0  0
   11.9164   44.8881  130.2867 C   0  0  0  0  0  0  0  0  0  0  0  0
   13.2488   44.6754  130.6254 C   0  0  0  0  0  0  0  0  0  0  0  0
   14.1920   44.2730  129.6893 C   0  0  0  0  0  0  0  0  0  0  0  0
   13.7923   44.0767  128.3746 C   0  0  0  0  0  0  0  0  0  0  0  0
   14.7504   43.6776  127.4713 O   0  0  0  0  0  0  0  0  0  0  0  0
   12.4840   44.2794  128.0131 C   0  0  0  0  0  0  0  0  0  0  0  0
   11.5730   44.6793  128.9692 C   0  0  0  0  0  0  0  0  0  0  0  0
   14.5204   43.5194  126.5030 H   0  0  0  0  0  0  0  0  0  0  0  0
    7.4432   48.0263  129.3511 C   0  0  0  0  0  0  0  0  0  0  0  0
    8.6977   48.4511  128.9101 C   0  0  0  0  0  0  0  0  0  0  0  0
    9.8329   48.0556  129.5842 C   0  0  0  0  0  0  0  0  0  0  0  0
    9.7059   47.2520  130.6754 C   0  0  0  0  0  0  0  0  0  0  0  0
    8.4629   46.8250  131.1206 C   0  0  0  0  0  0  0  0  0  0  0  0
    7.3079   47.2148  130.4523 C   0  0  0  0  0  0  0  0  0  0  0  0
    6.3638   48.4615  128.6285 O   0  0  0  0  0  0  0  0  0  0  0  0
    6.2858   49.7530  128.0388 C   0  0  0  0  0  0  0  0  0  0  0  0
    6.8240   50.5386  130.3538 C   0  0  0  0  0  0  0  0  0  0  0  0
    7.0385   50.7696  128.8698 C   0  0  0  0  0  0  0  0  0  0  0  0
    6.6188   52.0116  128.5038 O   0  0  0  0  0  0  0  0  0  0  0  0
    7.2527   52.6117  127.4540 C   0  0  0  0  0  0  0  0  0  0  0  0
    7.3288   54.0984  127.6835 C   0  0  0  0  0  0  0  0  0  0  0  0
    7.5700   54.7235  126.3888 N   0  0  0  0  0  0  0  0  0  0  0  0
    8.5018   54.0074  125.6033 C   0  0  0  0  0  0  0  0  0  0  0  0
    7.8763   53.7915  124.2716 C   0  0  0  0  0  0  0  0  0  0  0  0
    6.6938   54.7356  124.2772 C   0  0  0  0  0  0  0  0  0  0  0  0
    6.3225   54.8742  125.7388 C   0  0  0  0  0  0  0  0  0  0  0  0
 31 32  1  0  0  0
 32 30  1  0  0  0
 30 29  1  0  0  0
 29 23  1  0  0  0
 23 24  2  0  0  0
 24 25  1  0  0  0
 25 26  2  0  0  0
 26 27  1  0  0  0
 27 28  2  0  0  0
 26  1  1  0  0  0
  1  2  1  0  0  0
  2  3  1  0  0  0
  3  4  2  0  0  0
  4  5  1  0  0  0
  5  6  2  0  0  0
  6  7  1  0  0  0
  6  8  1  0  0  0
  8  9  1  0  0  0
  8 10  2  0  0  0
 10 11  1  0  0  0
 11 12  1  0  0  0
 12 15  1  0  0  0
 15 16  2  0  0  0
 16 17  1  0  0  0
 17 18  2  0  0  0
 18 19  1  0  0  0
 18 20  1  0  0  0
 20 21  2  0  0  0
 32 33  1  0  0  0
 33 34  1  0  0  0
 34 35  1  0  0  0
 35 36  1  0  0  0
 36 37  1  0  0  0
 37 38  1  0  0  0
 38 39  1  0  0  0
 39 40  1  0  0  0
 28 23  1  0  0  0
 12  1  1  0  0  0
 21 15  1  0  0  0
 40 36  1  0  0  0
 10  3  1  0  0  0
  7 13  1  0  0  0
  9 14  1  0  0  0
 19 22  1  0  0  0
M  END
> <minimizedAffinity>
7.41357

> <CNNscore>
0.2978715301

> <CNNaffinity>
7.1306138039

> <CNN_VS>
2.1240067482

> <CNNaffinity_variance>
0.7415758371

$$$$
[H]Oc1c([H])c([H])c([C@@]2([H])Sc3c(c([H])c([H])c(O[H])c3O[H])O[C@]2([H])c2c([H])c([H])c(OC([H])([H])[C@@]([H])(OC([H])([H])C([H])([H])N3C([H])([H])C([H])([H])C([H])([H])C3([H])[H])C([H])([H])[H])c([H])c2[H])c([H])c1[H]


 40 44  0  0  0  0  0  0  0  0999 V2000
    8.0349   46.7423  130.8975 C   0  0  0  0  0  0  0  0  0  0  0  0
    7.7505   45.9192  131.9514 O   0  0  0  0  0  0  0  0  0  0  0  0
    8.2480   45.9295  133.2180 C   0  0  0  0  0  0  0  0  0  0  0  0
    8.2500   44.7671  133.9567 C   0  0  0  0  0  0  0  0  0  0  0  0
    8.7524   44.7532  135.2505 C   0  0  0  0  0  0  0  0  0  0  0  0
    9.2567   45.9281  135.7981 C   0  0  0  0  0  0  0  0  0  0  0  0
    9.7596   45.8974  137.1031 O   0  0  0  0  0  0  0  0  0  0  0  0
    9.2480   47.0841  135.0460 C   0  0  0  0  0  0  0  0  0  0  0  0
    9.7756   48.2281  135.6726 O   0  0  0  0  0  0  0  0  0  0  0  0
    8.7555   47.0671  133.7979 C   0  0  0  0  0  0  0  0  0  0  0  0
    8.7492   48.5661  132.8361 S   0  0  0  0  0  0  0  0  0  0  0  0
    8.7440   48.0129  131.1129 C   0  0  0  0  0  0  0  0  0  0  0  0
    9.7547   45.0539  137.6232 H   0  0  0  0  0  0  0  0  0  0  0  0
    9.7652   49.0717  135.1152 H   0  0  0  0  0  0  0  0  0  0  0  0
    8.1524   49.1031  130.2980 C   0  0  0  0  0  0  0  0  0  0  0  0
    8.0540   50.3838  130.8324 C   0  0  0  0  0  0  0  0  0  0  0  0
    7.5102   51.4415  130.1161 C   0  0  0  0  0  0  0  0  0  0  0  0
    7.0508   51.2135  128.8262 C   0  0  0  0  0  0  0  0  0  0  0  0
    6.5180   52.2821  128.1425 O   0  0  0  0  0  0  0  0  0  0  0  0
    7.1357   49.9598  128.2746 C   0  0  0  0  0  0  0  0  0  0  0  0
    7.6818   48.9313  129.0149 C   0  0  0  0  0  0  0  0  0  0  0  0
    6.1681   52.1781  127.2031 H   0  0  0  0  0  0  0  0  0  0  0  0
   10.2877   44.3897  128.1787 C   0  0  0  0  0  0  0  0  0  0  0  0
   10.5129   45.7660  128.2417 C   0  0  0  0  0  0  0  0  0  0  0  0
    9.7864   46.5414  129.1195 C   0  0  0  0  0  0  0  0  0  0  0  0
    8.8564   45.9437  129.9135 C   0  0  0  0  0  0  0  0  0  0  0  0
    8.6260   44.5764  129.8574 C   0  0  0  0  0  0  0  0  0  0  0  0
    9.3500   43.7799  128.9776 C   0  0  0  0  0  0  0  0  0  0  0  0
   11.0492   43.6881  127.2818 O   0  0  0  0  0  0  0  0  0  0  0  0
   12.4479   43.4824  127.4346 C   0  0  0  0  0  0  0  0  0  0  0  0
   14.5089   44.2320  128.6415 C   0  0  0  0  0  0  0  0  0  0  0  0
   12.9984   44.3412  128.5528 C   0  0  0  0  0  0  0  0  0  0  0  0
   12.4117   43.9495  129.7169 O   0  0  0  0  0  0  0  0  0  0  0  0
   12.9835   44.3627  130.8858 C   0  0  0  0  0  0  0  0  0  0  0  0
   12.2052   45.5194  131.4559 C   0  0  0  0  0  0  0  0  0  0  0  0
   11.4780   45.0206  132.6167 N   0  0  0  0  0  0  0  0  0  0  0  0
   10.9744   43.7139  132.4237 C   0  0  0  0  0  0  0  0  0  0  0  0
   11.4136   42.8999  133.5881 C   0  0  0  0  0  0  0  0  0  0  0  0
   11.8877   43.9339  134.5859 C   0  0  0  0  0  0  0  0  0  0  0  0
   12.3365   45.1056  133.7380 C   0  0  0  0  0  0  0  0  0  0  0  0
 31 32  1  0  0  0
 32 30  1  0  0  0
 30 29  1  0  0  0
 29 23  1  0  0  0
 23 24  2  0  0  0
 24 25  1  0  0  0
 25 26  2  0  0  0
 26 27  1  0  0  0
 27 28  2  0  0  0
 26  1  1  0  0  0
  1  2  1  0  0  0
  2  3  1  0  0  0
  3  4  2  0  0  0
  4  5  1  0  0  0
  5  6  2  0  0  0
  6  7  1  0  0  0
  6  8  1  0  0  0
  8  9  1  0  0  0
  8 10  2  0  0  0
 10 11  1  0  0  0
 11 12  1  0  0  0
 12 15  1  0  0  0
 15 16  2  0  0  0
 16 17  1  0  0  0
 17 18  2  0  0  0
 18 19  1  0  0  0
 18 20  1  0  0  0
 20 21  2  0  0  0
 32 33  1  0  0  0
 33 34  1  0  0  0
 34 35  1  0  0  0
 35 36  1  0  0  0
 36 37  1  0  0  0
 37 38  1  0  0  0
 38 39  1  0  0  0
 39 40  1  0  0  0
 28 23  1  0  0  0
 12  1  1  0  0  0
 21 15  1  0  0  0
 40 36  1  0  0  0
 10  3  1  0  0  0
  7 13  1  0  0  0
  9 14  1  0  0  0
 19 22  1  0  0  0
M  END
> <minimizedAffinity>
4.08000

> <CNNscore>
0.2970712483

> <CNNaffinity>
7.5896034241

> <CNN_VS>
2.2546529770

> <CNNaffinity_variance>
0.4854457378

$$$$
[H]Oc1c([H])c([H])c([C@@]2([H])Sc3c(c([H])c([H])c(O[H])c3O[H])O[C@]2([H])c2c([H])c([H])c(OC([H])([H])[C@@]([H])(OC([H])([H])C([H])([H])N3C([H])([H])C([H])([H])C([H])([H])C3([H])[H])C([H])([H])[H])c([H])c2[H])c([H])c1[H]


 40 44  0  0  0  0  0  0  0  0999 V2000
    8.3599   46.6386  131.0934 C   0  0  0  0  0  0  0  0  0  0  0  0
    8.1782   45.7277  130.0901 O   0  0  0  0  0  0  0  0  0  0  0  0
    9.1024   45.0776  129.3319 C   0  0  0  0  0  0  0  0  0  0  0  0
    8.7549   44.6217  128.0796 C   0  0  0  0  0  0  0  0  0  0  0  0
    9.6807   43.9561  127.2881 C   0  0  0  0  0  0  0  0  0  0  0  0
   10.9687   43.7521  127.7716 C   0  0  0  0  0  0  0  0  0  0  0  0
   11.8900   43.0798  126.9615 O   0  0  0  0  0  0  0  0  0  0  0  0
   11.3018   44.2145  129.0275 C   0  0  0  0  0  0  0  0  0  0  0  0
   12.6237   43.9680  129.4418 O   0  0  0  0  0  0  0  0  0  0  0  0
   10.3855   44.8545  129.7701 C   0  0  0  0  0  0  0  0  0  0  0  0
   10.8270   45.4469  131.3907 S   0  0  0  0  0  0  0  0  0  0  0  0
    9.6818   46.8104  131.7152 C   0  0  0  0  0  0  0  0  0  0  0  0
   11.6262   42.7572  126.0624 H   0  0  0  0  0  0  0  0  0  0  0  0
   12.8601   44.3094  130.3637 H   0  0  0  0  0  0  0  0  0  0  0  0
    9.5682   46.9543  133.1879 C   0  0  0  0  0  0  0  0  0  0  0  0
   10.4414   46.2556  134.0154 C   0  0  0  0  0  0  0  0  0  0  0  0
   10.3816   46.3522  135.3991 C   0  0  0  0  0  0  0  0  0  0  0  0
    9.4204   47.1720  135.9744 C   0  0  0  0  0  0  0  0  0  0  0  0
    9.3874   47.2468  137.3478 O   0  0  0  0  0  0  0  0  0  0  0  0
    8.5463   47.8726  135.1815 C   0  0  0  0  0  0  0  0  0  0  0  0
    8.6340   47.7530  133.8096 C   0  0  0  0  0  0  0  0  0  0  0  0
    8.7122   47.8249  137.8226 H   0  0  0  0  0  0  0  0  0  0  0  0
    7.2949   50.4870  129.6593 C   0  0  0  0  0  0  0  0  0  0  0  0
    6.6235   49.3650  129.1703 C   0  0  0  0  0  0  0  0  0  0  0  0
    6.9614   48.1093  129.6269 C   0  0  0  0  0  0  0  0  0  0  0  0
    7.9512   47.9884  130.5533 C   0  0  0  0  0  0  0  0  0  0  0  0
    8.6238   49.0983  131.0447 C   0  0  0  0  0  0  0  0  0  0  0  0
    8.2955   50.3720  130.5947 C   0  0  0  0  0  0  0  0  0  0  0  0
    6.9018   51.6993  129.1569 O   0  0  0  0  0  0  0  0  0  0  0  0
    7.1553   52.1121  127.8200 C   0  0  0  0  0  0  0  0  0  0  0  0
    5.9866   54.2126  127.1213 C   0  0  0  0  0  0  0  0  0  0  0  0
    7.2433   53.6204  127.7308 C   0  0  0  0  0  0  0  0  0  0  0  0
    8.3408   53.9385  126.9912 O   0  0  0  0  0  0  0  0  0  0  0  0
    8.2336   54.9767  126.1111 C   0  0  0  0  0  0  0  0  0  0  0  0
    8.8221   54.5840  124.7813 C   0  0  0  0  0  0  0  0  0  0  0  0
    7.7827   53.8807  124.0397 N   0  0  0  0  0  0  0  0  0  0  0  0
    6.4866   54.3689  124.3226 C   0  0  0  0  0  0  0  0  0  0  0  0
    5.8355   54.6616  123.0181 C   0  0  0  0  0  0  0  0  0  0  0  0
    6.7323   53.9746  122.0114 C   0  0  0  0  0  0  0  0  0  0  0  0
    8.0991   53.9617  122.6632 C   0  0  0  0  0  0  0  0  0  0  0  0
 31 32  1  0  0  0
 32 30  1  0  0  0
 30 29  1  0  0  0
 29 23  1  0  0  0
 23 24  2  0  0  0
 24 25  1  0  0  0
 25 26  2  0  0  0
 26 27  1  0  0  0
 27 28  2  0  0  0
 26  1  1  0  0  0
  1  2  1  0  0  0
  2  3  1  0  0  0
  3  4  2  0  0  0
  4  5  1  0  0  0
  5  6  2  0  0  0
  6  7  1  0  0  0
  6  8  1  0  0  0
  8  9  1  0  0  0
  8 10  2  0  0  0
 10 11  1  0  0  0
 11 12  1  0  0  0
 12 15  1  0  0  0
 15 16  2  0  0  0
 16 17  1  0  0  0
 17 18  2  0  0  0
 18 19  1  0  0  0
 18 20  1  0  0  0
 20 21  2  0  0  0
 32 33  1  0  0  0
 33 34  1  0  0  0
 34 35  1  0  0  0
 35 36  1  0  0  0
 36 37  1  0  0  0
 37 38  1  0  0  0
 38 39  1  0  0  0
 39 40  1  0  0  0
 28 23  1  0  0  0
 12  1  1  0  0  0
 21 15  1  0  0  0
 40 36  1  0  0  0
 10  3  1  0  0  0
  7 13  1  0  0  0
  9 14  1  0  0  0
 19 22  1  0  0  0
M  END
> <minimizedAffinity>
2.85545

> <CNNscore>
0.2866604924

> <CNNaffinity>
6.9728422165

> <CNN_VS>
1.9988384247

> <CNNaffinity_variance>
0.4742314816

$$$$
[H]Oc1c([H])c([H])c([C@@]2([H])Sc3c(c([H])c([H])c(O[H])c3O[H])O[C@]2([H])c2c([H])c([H])c(OC([H])([H])[C@@]([H])(OC([H])([H])C([H])([H])N3C([H])([H])C([H])([H])C([H])([H])C3([H])[H])C([H])([H])[H])c([H])c2[H])c([H])c1[H]


 40 44  0  0  0  0  0  0  0  0999 V2000
    9.4802   44.9273  132.7791 C   0  0  0  0  0  0  0  0  0  0  0  0
    8.6136   44.6373  131.7621 O   0  0  0  0  0  0  0  0  0  0  0  0
    8.8722   44.1776  130.5077 C   0  0  0  0  0  0  0  0  0  0  0  0
    7.9762   44.4314  129.4929 C   0  0  0  0  0  0  0  0  0  0  0  0
    8.2186   43.9728  128.2055 C   0  0  0  0  0  0  0  0  0  0  0  0
    9.3792   43.2516  127.9465 C   0  0  0  0  0  0  0  0  0  0  0  0
    9.6090   42.7966  126.6437 O   0  0  0  0  0  0  0  0  0  0  0  0
   10.2670   43.0055  128.9730 C   0  0  0  0  0  0  0  0  0  0  0  0
   11.4156   42.2697  128.6281 O   0  0  0  0  0  0  0  0  0  0  0  0
   10.0057   43.4613  130.2077 C   0  0  0  0  0  0  0  0  0  0  0  0
   11.1592   43.1373  131.5255 S   0  0  0  0  0  0  0  0  0  0  0  0
   10.8736   44.4585  132.7289 C   0  0  0  0  0  0  0  0  0  0  0  0
    8.9556   42.9865  125.9232 H   0  0  0  0  0  0  0  0  0  0  0  0
   12.0612   42.0929  129.3858 H   0  0  0  0  0  0  0  0  0  0  0  0
   11.3200   43.9579  134.0527 C   0  0  0  0  0  0  0  0  0  0  0  0
   12.6798   43.8171  134.3106 C   0  0  0  0  0  0  0  0  0  0  0  0
   13.1545   43.3541  135.5304 C   0  0  0  0  0  0  0  0  0  0  0  0
   12.2434   43.0217  136.5235 C   0  0  0  0  0  0  0  0  0  0  0  0
   12.7454   42.5665  137.7209 O   0  0  0  0  0  0  0  0  0  0  0  0
   10.8962   43.1510  136.2958 C   0  0  0  0  0  0  0  0  0  0  0  0
   10.4592   43.6142  135.0717 C   0  0  0  0  0  0  0  0  0  0  0  0
   12.1332   42.3098  138.4792 H   0  0  0  0  0  0  0  0  0  0  0  0
    9.7391   49.1492  133.1101 C   0  0  0  0  0  0  0  0  0  0  0  0
    8.5829   48.4987  133.5446 C   0  0  0  0  0  0  0  0  0  0  0  0
    8.4858   47.1278  133.4409 C   0  0  0  0  0  0  0  0  0  0  0  0
    9.5286   46.4308  132.9123 C   0  0  0  0  0  0  0  0  0  0  0  0
   10.6815   47.0693  132.4779 C   0  0  0  0  0  0  0  0  0  0  0  0
   10.7957   48.4514  132.5752 C   0  0  0  0  0  0  0  0  0  0  0  0
    9.7593   50.5122  133.2466 O   0  0  0  0  0  0  0  0  0  0  0  0
    9.3304   51.4073  132.2284 C   0  0  0  0  0  0  0  0  0  0  0  0
    9.6847   49.8751  130.2809 C   0  0  0  0  0  0  0  0  0  0  0  0
    8.6686   50.6542  131.0946 C   0  0  0  0  0  0  0  0  0  0  0  0
    8.0070   51.5540  130.3165 O   0  0  0  0  0  0  0  0  0  0  0  0
    7.1179   51.0685  129.4012 C   0  0  0  0  0  0  0  0  0  0  0  0
    6.1883   50.0846  130.0620 C   0  0  0  0  0  0  0  0  0  0  0  0
    6.3103   48.8237  129.3407 N   0  0  0  0  0  0  0  0  0  0  0  0
    7.0908   47.8718  130.0358 C   0  0  0  0  0  0  0  0  0  0  0  0
    6.2949   46.6173  130.1002 C   0  0  0  0  0  0  0  0  0  0  0  0
    5.1862   46.8480  129.0967 C   0  0  0  0  0  0  0  0  0  0  0  0
    5.0055   48.3512  129.0657 C   0  0  0  0  0  0  0  0  0  0  0  0
 31 32  1  0  0  0
 32 30  1  0  0  0
 30 29  1  0  0  0
 29 23  1  0  0  0
 23 24  2  0  0  0
 24 25  1  0  0  0
 25 26  2  0  0  0
 26 27  1  0  0  0
 27 28  2  0  0  0
 26  1  1  0  0  0
  1  2  1  0  0  0
  2  3  1  0  0  0
  3  4  2  0  0  0
  4  5  1  0  0  0
  5  6  2  0  0  0
  6  7  1  0  0  0
  6  8  1  0  0  0
  8  9  1  0  0  0
  8 10  2  0  0  0
 10 11  1  0  0  0
 11 12  1  0  0  0
 12 15  1  0  0  0
 15 16  2  0  0  0
 16 17  1  0  0  0
 17 18  2  0  0  0
 18 19  1  0  0  0
 18 20  1  0  0  0
 20 21  2  0  0  0
 32 33  1  0  0  0
 33 34  1  0  0  0
 34 35  1  0  0  0
 35 36  1  0  0  0
 36 37  1  0  0  0
 37 38  1  0  0  0
 38 39  1  0  0  0
 39 40  1  0  0  0
 28 23  1  0  0  0
 12  1  1  0  0  0
 21 15  1  0  0  0
 40 36  1  0  0  0
 10  3  1  0  0  0
  7 13  1  0  0  0
  9 14  1  0  0  0
 19 22  1  0  0  0
M  END
> <minimizedAffinity>
13.81432

> <CNNscore>
0.2830637991

> <CNNaffinity>
7.4453597069

> <CNN_VS>
2.1075117588

> <CNNaffinity_variance>
0.4970585406

$$$$
[H]Oc1c([H])c([H])c([C@@]2([H])Sc3c(c([H])c([H])c(O[H])c3O[H])O[C@]2([H])c2c([H])c([H])c(OC([H])([H])[C@@]([H])(OC([H])([H])C([H])([H])N3C([H])([H])C([H])([H])C([H])([H])C3([H])[H])C([H])([H])[H])c([H])c2[H])c([H])c1[H]


 40 44  0  0  0  0  0  0  0  0999 V2000
    9.2495   44.8904  130.6869 C   0  0  0  0  0  0  0  0  0  0  0  0
    7.9114   44.9595  130.4151 O   0  0  0  0  0  0  0  0  0  0  0  0
    7.1840   45.9868  129.8980 C   0  0  0  0  0  0  0  0  0  0  0  0
    5.8364   46.0698  130.1704 C   0  0  0  0  0  0  0  0  0  0  0  0
    5.0741   47.1086  129.6544 C   0  0  0  0  0  0  0  0  0  0  0  0
    5.6845   48.0702  128.8562 C   0  0  0  0  0  0  0  0  0  0  0  0
    4.9024   49.1109  128.3440 O   0  0  0  0  0  0  0  0  0  0  0  0
    7.0348   47.9737  128.5923 C   0  0  0  0  0  0  0  0  0  0  0  0
    7.5749   48.9856  127.7774 O   0  0  0  0  0  0  0  0  0  0  0  0
    7.7461   46.9579  129.1049 C   0  0  0  0  0  0  0  0  0  0  0  0
    9.4891   46.8434  128.7573 S   0  0  0  0  0  0  0  0  0  0  0  0
   10.1761   45.8899  130.1337 C   0  0  0  0  0  0  0  0  0  0  0  0
    3.9338   49.1581  128.5481 H   0  0  0  0  0  0  0  0  0  0  0  0
    8.5650   48.9076  127.5880 H   0  0  0  0  0  0  0  0  0  0  0  0
   11.4278   45.2538  129.6526 C   0  0  0  0  0  0  0  0  0  0  0  0
   12.5029   45.1090  130.5235 C   0  0  0  0  0  0  0  0  0  0  0  0
   13.6973   44.5216  130.1285 C   0  0  0  0  0  0  0  0  0  0  0  0
   13.8220   44.0645  128.8237 C   0  0  0  0  0  0  0  0  0  0  0  0
   15.0176   43.4869  128.4635 O   0  0  0  0  0  0  0  0  0  0  0  0
   12.7769   44.1949  127.9437 C   0  0  0  0  0  0  0  0  0  0  0  0
   11.6041   44.7837  128.3699 C   0  0  0  0  0  0  0  0  0  0  0  0
   15.1674   43.1366  127.5304 H   0  0  0  0  0  0  0  0  0  0  0  0
    9.5625   45.0494  134.9151 C   0  0  0  0  0  0  0  0  0  0  0  0
   10.6934   44.7418  134.1567 C   0  0  0  0  0  0  0  0  0  0  0  0
   10.6043   44.6854  132.7825 C   0  0  0  0  0  0  0  0  0  0  0  0
    9.4050   44.9329  132.1885 C   0  0  0  0  0  0  0  0  0  0  0  0
    8.2759   45.2393  132.9346 C   0  0  0  0  0  0  0  0  0  0  0  0
    8.3483   45.3002  134.3216 C   0  0  0  0  0  0  0  0  0  0  0  0
    9.7317   45.0863  136.2740 O   0  0  0  0  0  0  0  0  0  0  0  0
    9.9558   46.2867  137.0027 C   0  0  0  0  0  0  0  0  0  0  0  0
    8.1185   47.5373  135.8511 C   0  0  0  0  0  0  0  0  0  0  0  0
    9.6020   47.4972  136.1659 C   0  0  0  0  0  0  0  0  0  0  0  0
   10.3421   47.4551  135.0243 O   0  0  0  0  0  0  0  0  0  0  0  0
   10.2085   48.4894  134.1432 C   0  0  0  0  0  0  0  0  0  0  0  0
   10.8828   48.1437  132.8414 C   0  0  0  0  0  0  0  0  0  0  0  0
    9.9144   48.3790  131.7775 N   0  0  0  0  0  0  0  0  0  0  0  0
    8.5861   48.4492  132.2558 C   0  0  0  0  0  0  0  0  0  0  0  0
    7.9944   49.7038  131.7200 C   0  0  0  0  0  0  0  0  0  0  0  0
    8.9713   50.1263  130.6444 C   0  0  0  0  0  0  0  0  0  0  0  0
   10.3005   49.5530  131.0889 C   0  0  0  0  0  0  0  0  0  0  0  0
 31 32  1  0  0  0
 32 30  1  0  0  0
 30 29  1  0  0  0
 29 23  1  0  0  0
 23 24  2  0  0  0
 24 25  1  0  0  0
 25 26  2  0  0  0
 26 27  1  0  0  0
 27 28  2  0  0  0
 26  1  1  0  0  0
  1  2  1  0  0  0
  2  3  1  0  0  0
  3  4  2  0  0  0
  4  5  1  0  0  0
  5  6  2  0  0  0
  6  7  1  0  0  0
  6  8  1  0  0  0
  8  9  1  0  0  0
  8 10  2  0  0  0
 10 11  1  0  0  0
 11 12  1  0  0  0
 12 15  1  0  0  0
 15 16  2  0  0  0
 16 17  1  0  0  0
 17 18  2  0  0  0
 18 19  1  0  0  0
 18 20  1  0  0  0
 20 21  2  0  0  0
 32 33  1  0  0  0
 33 34  1  0  0  0
 34 35  1  0  0  0
 35 36  1  0  0  0
 36 37  1  0  0  0
 37 38  1  0  0  0
 38 39  1  0  0  0
 39 40  1  0  0  0
 28 23  1  0  0  0
 12  1  1  0  0  0
 21 15  1  0  0  0
 40 36  1  0  0  0
 10  3  1  0  0  0
  7 13  1  0  0  0
  9 14  1  0  0  0
 19 22  1  0  0  0
M  END
> <minimizedAffinity>
6.53664

> <CNNscore>
0.2678529620

> <CNNaffinity>
7.3320770264

> <CNN_VS>
1.9639185667

> <CNNaffinity_variance>
0.1384343654

$$$$
[H]Oc1c([H])c([H])c([C@@]2([H])Sc3c(c([H])c([H])c(O[H])c3O[H])O[C@]2([H])c2c([H])c([H])c(OC([H])([H])[C@@]([H])(OC([H])([H])C([H])([H])N3C([H])([H])C([H])([H])C([H])([H])C3([H])[H])C([H])([H])[H])c([H])c2[H])c([H])c1[H]


 40 44  0  0  0  0  0  0  0  0999 V2000
    9.2726   47.3382  130.4243 C   0  0  0  0  0  0  0  0  0  0  0  0
   10.4221   46.8447  129.8726 O   0  0  0  0  0  0  0  0  0  0  0  0
   10.6238   45.6948  129.1736 C   0  0  0  0  0  0  0  0  0  0  0  0
   11.8772   45.1243  129.1508 C   0  0  0  0  0  0  0  0  0  0  0  0
   12.1068   43.9514  128.4450 C   0  0  0  0  0  0  0  0  0  0  0  0
   11.0561   43.3534  127.7575 C   0  0  0  0  0  0  0  0  0  0  0  0
   11.3038   42.1715  127.0511 O   0  0  0  0  0  0  0  0  0  0  0  0
    9.8066   43.9364  127.7898 C   0  0  0  0  0  0  0  0  0  0  0  0
    8.7990   43.2691  127.0691 O   0  0  0  0  0  0  0  0  0  0  0  0
    9.6147   45.0706  128.4805 C   0  0  0  0  0  0  0  0  0  0  0  0
    7.9969   45.8146  128.5149 S   0  0  0  0  0  0  0  0  0  0  0  0
    7.9641   46.7860  130.0416 C   0  0  0  0  0  0  0  0  0  0  0  0
   12.2107   41.7721  127.0433 H   0  0  0  0  0  0  0  0  0  0  0  0
    7.8861   43.7029  127.0970 H   0  0  0  0  0  0  0  0  0  0  0  0
    6.9585   47.8626  129.8618 C   0  0  0  0  0  0  0  0  0  0  0  0
    5.7062   47.5523  129.3414 C   0  0  0  0  0  0  0  0  0  0  0  0
    4.7269   48.5181  129.1519 C   0  0  0  0  0  0  0  0  0  0  0  0
    5.0066   49.8343  129.4929 C   0  0  0  0  0  0  0  0  0  0  0  0
    4.0154   50.7675  129.2937 O   0  0  0  0  0  0  0  0  0  0  0  0
    6.2340   50.1681  130.0083 C   0  0  0  0  0  0  0  0  0  0  0  0
    7.1841   49.1828  130.1833 C   0  0  0  0  0  0  0  0  0  0  0  0
    4.1596   51.7384  129.5221 H   0  0  0  0  0  0  0  0  0  0  0  0
    9.4954   46.8393  134.6317 C   0  0  0  0  0  0  0  0  0  0  0  0
   10.4584   47.6143  133.9830 C   0  0  0  0  0  0  0  0  0  0  0  0
   10.3980   47.7825  132.6164 C   0  0  0  0  0  0  0  0  0  0  0  0
    9.3918   47.1843  131.9219 C   0  0  0  0  0  0  0  0  0  0  0  0
    8.4305   46.4123  132.5587 C   0  0  0  0  0  0  0  0  0  0  0  0
    8.4768   46.2324  133.9364 C   0  0  0  0  0  0  0  0  0  0  0  0
    9.6235   46.7198  135.9904 O   0  0  0  0  0  0  0  0  0  0  0  0
   10.3616   45.6794  136.6187 C   0  0  0  0  0  0  0  0  0  0  0  0
   11.1434   43.3176  136.3412 C   0  0  0  0  0  0  0  0  0  0  0  0
   10.6832   44.5774  135.6322 C   0  0  0  0  0  0  0  0  0  0  0  0
   11.6413   45.0360  134.7811 O   0  0  0  0  0  0  0  0  0  0  0  0
   12.1986   44.1422  133.9124 C   0  0  0  0  0  0  0  0  0  0  0  0
   11.5337   44.2541  132.5655 C   0  0  0  0  0  0  0  0  0  0  0  0
   10.6409   43.1100  132.4281 N   0  0  0  0  0  0  0  0  0  0  0  0
    9.2762   43.4736  132.4882 C   0  0  0  0  0  0  0  0  0  0  0  0
    8.6122   42.8775  131.2987 C   0  0  0  0  0  0  0  0  0  0  0  0
    9.6310   41.8842  130.7836 C   0  0  0  0  0  0  0  0  0  0  0  0
   10.9674   42.4450  131.2228 C   0  0  0  0  0  0  0  0  0  0  0  0
 31 32  1  0  0  0
 32 30  1  0  0  0
 30 29  1  0  0  0
 29 23  1  0  0  0
 23 24  2  0  0  0
 24 25  1  0  0  0
 25 26  2  0  0  0
 26 27  1  0  0  0
 27 28  2  0  0  0
 26  1  1  0  0  0
  1  2  1  0  0  0
  2  3  1  0  0  0
  3  4  2  0  0  0
  4  5  1  0  0  0
  5  6  2  0  0  0
  6  7  1  0  0  0
  6  8  1  0  0  0
  8  9  1  0  0  0
  8 10  2  0  0  0
 10 11  1  0  0  0
 11 12  1  0  0  0
 12 15  1  0  0  0
 15 16  2  0  0  0
 16 17  1  0  0  0
 17 18  2  0  0  0
 18 19  1  0  0  0
 18 20  1  0  0  0
 20 21  2  0  0  0
 32 33  1  0  0  0
 33 34  1  0  0  0
 34 35  1  0  0  0
 35 36  1  0  0  0
 36 37  1  0  0  0
 37 38  1  0  0  0
 38 39  1  0  0  0
 39 40  1  0  0  0
 28 23  1  0  0  0
 12  1  1  0  0  0
 21 15  1  0  0  0
 40 36  1  0  0  0
 10  3  1  0  0  0
  7 13  1  0  0  0
  9 14  1  0  0  0
 19 22  1  0  0  0
M  END
> <minimizedAffinity>
4.31873

> <CNNscore>
0.2391663939

> <CNNaffinity>
7.6421661377

> <CNN_VS>
1.8277493715

> <CNNaffinity_variance>
0.2209191769

$$$$
[H]Oc1c([H])c([H])c([C@@]2([H])Sc3c(c([H])c([H])c(O[H])c3O[H])O[C@]2([H])c2c([H])c([H])c(OC([H])([H])[C@@]([H])(OC([H])([H])C([H])([H])N3C([H])([H])C([H])([H])C([H])([H])C3([H])[H])C([H])([H])[H])c([H])c2[H])c([H])c1[H]


 40 44  0  0  0  0  0  0  0  0999 V2000
    7.5125   46.0820  130.2606 C   0  0  0  0  0  0  0  0  0  0  0  0
    6.4484   46.9399  130.2275 O   0  0  0  0  0  0  0  0  0  0  0  0
    6.4029   48.2505  129.8643 C   0  0  0  0  0  0  0  0  0  0  0  0
    5.4105   49.0614  130.3690 C   0  0  0  0  0  0  0  0  0  0  0  0
    5.3439   50.4013  130.0130 C   0  0  0  0  0  0  0  0  0  0  0  0
    6.2920   50.9217  129.1386 C   0  0  0  0  0  0  0  0  0  0  0  0
    6.2113   52.2741  128.7899 O   0  0  0  0  0  0  0  0  0  0  0  0
    7.2798   50.0974  128.6416 C   0  0  0  0  0  0  0  0  0  0  0  0
    8.1991   50.7009  127.7639 O   0  0  0  0  0  0  0  0  0  0  0  0
    7.3187   48.8058  129.0035 C   0  0  0  0  0  0  0  0  0  0  0  0
    8.5987   47.7506  128.3552 S   0  0  0  0  0  0  0  0  0  0  0  0
    8.7674   46.4223  129.5729 C   0  0  0  0  0  0  0  0  0  0  0  0
    5.4918   52.8459  129.1606 H   0  0  0  0  0  0  0  0  0  0  0  0
    8.9197   50.0901  127.4034 H   0  0  0  0  0  0  0  0  0  0  0  0
    9.3313   45.2435  128.8693 C   0  0  0  0  0  0  0  0  0  0  0  0
   10.6366   45.2894  128.3905 C   0  0  0  0  0  0  0  0  0  0  0  0
   11.2159   44.2170  127.7257 C   0  0  0  0  0  0  0  0  0  0  0  0
   10.4687   43.0630  127.5331 C   0  0  0  0  0  0  0  0  0  0  0  0
   11.0712   42.0181  126.8713 O   0  0  0  0  0  0  0  0  0  0  0  0
    9.1784   42.9909  127.9952 C   0  0  0  0  0  0  0  0  0  0  0  0
    8.6341   44.0757  128.6517 C   0  0  0  0  0  0  0  0  0  0  0  0
   10.5791   41.1551  126.7018 H   0  0  0  0  0  0  0  0  0  0  0  0
    8.4702   45.5612  134.3609 C   0  0  0  0  0  0  0  0  0  0  0  0
    8.5156   44.4610  133.5029 C   0  0  0  0  0  0  0  0  0  0  0  0
    8.2050   44.6167  132.1692 C   0  0  0  0  0  0  0  0  0  0  0  0
    7.8575   45.8510  131.7126 C   0  0  0  0  0  0  0  0  0  0  0  0
    7.8098   46.9500  132.5585 C   0  0  0  0  0  0  0  0  0  0  0  0
    8.1200   46.8103  133.9064 C   0  0  0  0  0  0  0  0  0  0  0  0
    8.7923   45.3257  135.6714 O   0  0  0  0  0  0  0  0  0  0  0  0
   10.1172   45.0650  136.1172 C   0  0  0  0  0  0  0  0  0  0  0  0
   11.9213   43.5389  135.2910 C   0  0  0  0  0  0  0  0  0  0  0  0
   11.0156   44.7081  134.9526 C   0  0  0  0  0  0  0  0  0  0  0  0
   11.7438   45.8104  134.6250 O   0  0  0  0  0  0  0  0  0  0  0  0
   12.2673   45.8736  133.3656 C   0  0  0  0  0  0  0  0  0  0  0  0
   11.2176   46.3542  132.3981 C   0  0  0  0  0  0  0  0  0  0  0  0
   11.3113   47.8080  132.3462 N   0  0  0  0  0  0  0  0  0  0  0  0
   10.7494   48.3483  131.1670 C   0  0  0  0  0  0  0  0  0  0  0  0
    9.7995   49.4138  131.5839 C   0  0  0  0  0  0  0  0  0  0  0  0
   10.1446   49.6482  133.0383 C   0  0  0  0  0  0  0  0  0  0  0  0
   10.7066   48.3255  133.5158 C   0  0  0  0  0  0  0  0  0  0  0  0
 31 32  1  0  0  0
 32 30  1  0  0  0
 30 29  1  0  0  0
 29 23  1  0  0  0
 23 24  2  0  0  0
 24 25  1  0  0  0
 25 26  2  0  0  0
 26 27  1  0  0  0
 27 28  2  0  0  0
 26  1  1  0  0  0
  1  2  1  0  0  0
  2  3  1  0  0  0
  3  4  2  0  0  0
  4  5  1  0  0  0
  5  6  2  0  0  0
  6  7  1  0  0  0
  6  8  1  0  0  0
  8  9  1  0  0  0
  8 10  2  0  0  0
 10 11  1  0  0  0
 11 12  1  0  0  0
 12 15  1  0  0  0
 15 16  2  0  0  0
 16 17  1  0  0  0
 17 18  2  0  0  0
 18 19  1  0  0  0
 18 20  1  0  0  0
 20 21  2  0  0  0
 32 33  1  0  0  0
 33 34  1  0  0  0
 34 35  1  0  0  0
 35 36  1  0  0  0
 36 37  1  0  0  0
 37 38  1  0  0  0
 38 39  1  0  0  0
 39 40  1  0  0  0
 28 23  1  0  0  0
 12  1  1  0  0  0
 21 15  1  0  0  0
 40 36  1  0  0  0
 10  3  1  0  0  0
  7 13  1  0  0  0
  9 14  1  0  0  0
 19 22  1  0  0  0
M  END
> <minimizedAffinity>
8.13500

> <CNNscore>
0.2303362191

> <CNNaffinity>
7.1914815903

> <CNN_VS>
1.6564587355

> <CNNaffinity_variance>
0.1296478212

$$$$
[H]Oc1c([H])c([H])c([C@@]2([H])Sc3c(c([H])c([H])c(O[H])c3O[H])O[C@]2([H])c2c([H])c([H])c(OC([H])([H])[C@@]([H])(OC([H])([H])C([H])([H])N3C([H])([H])C([H])([H])C([H])([H])C3([H])[H])C([H])([H])[H])c([H])c2[H])c([H])c1[H]


 40 44  0  0  0  0  0  0  0  0999 V2000
   10.8229   46.8404  132.3770 C   0  0  0  0  0  0  0  0  0  0  0  0
   10.4440   47.0766  131.0847 O   0  0  0  0  0  0  0  0  0  0  0  0
    9.5996   48.0210  130.5880 C   0  0  0  0  0  0  0  0  0  0  0  0
    8.9527   47.7934  129.3935 C   0  0  0  0  0  0  0  0  0  0  0  0
    8.0866   48.7419  128.8673 C   0  0  0  0  0  0  0  0  0  0  0  0
    7.8757   49.9299  129.5590 C   0  0  0  0  0  0  0  0  0  0  0  0
    6.9997   50.8755  129.0154 O   0  0  0  0  0  0  0  0  0  0  0  0
    8.5306   50.1433  130.7539 C   0  0  0  0  0  0  0  0  0  0  0  0
    8.2626   51.3693  131.3903 O   0  0  0  0  0  0  0  0  0  0  0  0
    9.3623   49.2082  131.2379 C   0  0  0  0  0  0  0  0  0  0  0  0
   10.2027   49.4949  132.7818 S   0  0  0  0  0  0  0  0  0  0  0  0
   10.5729   47.8436  133.4233 C   0  0  0  0  0  0  0  0  0  0  0  0
    6.5410   50.6985  128.1550 H   0  0  0  0  0  0  0  0  0  0  0  0
    8.7468   51.5187  132.2653 H   0  0  0  0  0  0  0  0  0  0  0  0
   11.7376   47.9715  134.3341 C   0  0  0  0  0  0  0  0  0  0  0  0
   12.7189   46.9854  134.3365 C   0  0  0  0  0  0  0  0  0  0  0  0
   13.8298   47.0532  135.1666 C   0  0  0  0  0  0  0  0  0  0  0  0
   13.9651   48.1392  136.0205 C   0  0  0  0  0  0  0  0  0  0  0  0
   15.0771   48.1773  136.8299 O   0  0  0  0  0  0  0  0  0  0  0  0
   13.0118   49.1262  136.0386 C   0  0  0  0  0  0  0  0  0  0  0  0
   11.9203   49.0269  135.2002 C   0  0  0  0  0  0  0  0  0  0  0  0
   15.2299   48.9401  137.4706 H   0  0  0  0  0  0  0  0  0  0  0  0
    9.0233   43.2052  133.6210 C   0  0  0  0  0  0  0  0  0  0  0  0
    8.2129   44.3002  133.3159 C   0  0  0  0  0  0  0  0  0  0  0  0
    8.7854   45.4871  132.9123 C   0  0  0  0  0  0  0  0  0  0  0  0
   10.1409   45.5675  132.8188 C   0  0  0  0  0  0  0  0  0  0  0  0
   10.9540   44.4840  133.1202 C   0  0  0  0  0  0  0  0  0  0  0  0
   10.3927   43.2796  133.5288 C   0  0  0  0  0  0  0  0  0  0  0  0
    8.3797   42.0616  134.0143 O   0  0  0  0  0  0  0  0  0  0  0  0
    7.4120   41.3935  133.2148 C   0  0  0  0  0  0  0  0  0  0  0  0
    6.6167   41.0914  130.8606 C   0  0  0  0  0  0  0  0  0  0  0  0
    7.3458   42.0019  131.8305 C   0  0  0  0  0  0  0  0  0  0  0  0
    8.6183   42.2424  131.4113 O   0  0  0  0  0  0  0  0  0  0  0  0
    8.8657   42.1855  130.0699 C   0  0  0  0  0  0  0  0  0  0  0  0
    9.0175   43.5785  129.5174 C   0  0  0  0  0  0  0  0  0  0  0  0
   10.3578   43.6754  128.9524 N   0  0  0  0  0  0  0  0  0  0  0  0
   10.5436   44.8509  128.1895 C   0  0  0  0  0  0  0  0  0  0  0  0
   11.7807   45.5063  128.6909 C   0  0  0  0  0  0  0  0  0  0  0  0
   12.4354   44.4327  129.5327 C   0  0  0  0  0  0  0  0  0  0  0  0
   11.2868   43.5713  130.0143 C   0  0  0  0  0  0  0  0  0  0  0  0
 31 32  1  0  0  0
 32 30  1  0  0  0
 30 29  1  0  0  0
 29 23  1  0  0  0
 23 24  2  0  0  0
 24 25  1  0  0  0
 25 26  2  0  0  0
 26 27  1  0  0  0
 27 28  2  0  0  0
 26  1  1  0  0  0
  1  2  1  0  0  0
  2  3  1  0  0  0
  3  4  2  0  0  0
  4  5  1  0  0  0
  5  6  2  0  0  0
  6  7  1  0  0  0
  6  8  1  0  0  0
  8  9  1  0  0  0
  8 10  2  0  0  0
 10 11  1  0  0  0
 11 12  1  0  0  0
 12 15  1  0  0  0
 15 16  2  0  0  0
 16 17  1  0  0  0
 17 18  2  0  0  0
 18 19  1  0  0  0
 18 20  1  0  0  0
 20 21  2  0  0  0
 32 33  1  0  0  0
 33 34  1  0  0  0
 34 35  1  0  0  0
 35 36  1  0  0  0
 36 37  1  0  0  0
 37 38  1  0  0  0
 38 39  1  0  0  0
 39 40  1  0  0  0
 28 23  1  0  0  0
 12  1  1  0  0  0
 21 15  1  0  0  0
 40 36  1  0  0  0
 10  3  1  0  0  0
  7 13  1  0  0  0
  9 14  1  0  0  0
 19 22  1  0  0  0
M  END
> <minimizedAffinity>
11.31499

> <CNNscore>
0.2156873941

> <CNNaffinity>
7.4009261131

> <CNN_VS>
1.5962864161

> <CNNaffinity_variance>
0.1899624616

$$$$
[H]c1c([H])c(OC([H])([H])C([H])([H])N2C([H])([H])C([H])([H])C([H])([H])C2([H])[H])c([H])c([H])c1Oc1c([H])c([H])c(-c2nc3c(Cl)c([H])c([H])c([H])c3o2)c([H])c1[H]


 31 35  0  0  0  0  0  0  0  0999 V2000
    9.3681   47.1708  131.9170 C   0  0  0  0  0  0  0  0  0  0  0  0
    8.1777   47.3089  131.2293 C   0  0  0  0  0  0  0  0  0  0  0  0
    7.5750   48.5692  131.1335 C   0  0  0  0  0  0  0  0  0  0  0  0
    8.1549   49.6707  131.7162 C   0  0  0  0  0  0  0  0  0  0  0  0
    9.3381   49.5021  132.3929 C   0  0  0  0  0  0  0  0  0  0  0  0
    9.9357   48.2756  132.4930 C   0  0  0  0  0  0  0  0  0  0  0  0
   12.4298   43.5458  135.1209 Cl  0  0  0  0  0  0  0  0  0  0  0  0
   11.8788   43.1715  133.5022 C   0  0  0  0  0  0  0  0  0  0  0  0
   12.1949   41.9456  132.9687 C   0  0  0  0  0  0  0  0  0  0  0  0
   11.7429   41.6828  131.6865 C   0  0  0  0  0  0  0  0  0  0  0  0
   11.0092   42.6194  130.9876 C   0  0  0  0  0  0  0  0  0  0  0  0
   10.6964   43.8470  131.5300 C   0  0  0  0  0  0  0  0  0  0  0  0
   10.0304   44.9076  131.1093 O   0  0  0  0  0  0  0  0  0  0  0  0
   10.0165   45.8423  132.0265 C   0  0  0  0  0  0  0  0  0  0  0  0
   10.7004   45.3641  133.0781 N   0  0  0  0  0  0  0  0  0  0  0  0
   11.1467   44.1210  132.8201 C   0  0  0  0  0  0  0  0  0  0  0  0
    7.5856   50.9260  131.6393 O   0  0  0  0  0  0  0  0  0  0  0  0
    7.4562   51.4839  130.3585 C   0  0  0  0  0  0  0  0  0  0  0  0
    7.3153   50.6898  129.2444 C   0  0  0  0  0  0  0  0  0  0  0  0
    7.1911   51.2561  128.0026 C   0  0  0  0  0  0  0  0  0  0  0  0
    7.1983   52.6467  127.7817 C   0  0  0  0  0  0  0  0  0  0  0  0
    7.3386   53.4224  128.9066 C   0  0  0  0  0  0  0  0  0  0  0  0
    7.4667   52.8466  130.1797 C   0  0  0  0  0  0  0  0  0  0  0  0
    7.0629   53.0901  126.5015 O   0  0  0  0  0  0  0  0  0  0  0  0
    6.4203   54.2423  126.0954 C   0  0  0  0  0  0  0  0  0  0  0  0
    5.0752   53.9621  125.5187 C   0  0  0  0  0  0  0  0  0  0  0  0
    4.8930   54.5636  124.2055 N   0  0  0  0  0  0  0  0  0  0  0  0
    3.4742   54.4090  123.8941 C   0  0  0  0  0  0  0  0  0  0  0  0
    3.4256   53.1582  123.0427 C   0  0  0  0  0  0  0  0  0  0  0  0
    4.6512   53.3645  122.1638 C   0  0  0  0  0  0  0  0  0  0  0  0
    5.6330   53.9253  123.1655 C   0  0  0  0  0  0  0  0  0  0  0  0
  7  8  1  0  0  0
  8  9  2  0  0  0
  9 10  1  0  0  0
 10 11  2  0  0  0
 11 12  1  0  0  0
 12 13  1  0  0  0
 13 14  1  0  0  0
 14 15  2  0  0  0
 15 16  1  0  0  0
 14  1  1  0  0  0
  1  2  2  0  0  0
  2  3  1  0  0  0
  3  4  2  0  0  0
  4 17  1  0  0  0
 17 18  1  0  0  0
 18 19  2  0  0  0
 19 20  1  0  0  0
 20 21  2  0  0  0
 21 24  1  0  0  0
 24 25  1  0  0  0
 25 26  1  0  0  0
 26 27  1  0  0  0
 27 28  1  0  0  0
 28 29  1  0  0  0
 29 30  1  0  0  0
 30 31  1  0  0  0
 21 22  1  0  0  0
 22 23  2  0  0  0
  4  5  1  0  0  0
  5  6  2  0  0  0
 16  8  1  0  0  0
  6  1  1  0  0  0
 16 12  2  0  0  0
 23 18  1  0  0  0
 31 27  1  0  0  0
M  END
> <minimizedAffinity>
14.67841

> <CNNscore>
0.3956181109

> <CNNaffinity>
6.5502991676

> <CNN_VS>
2.5914170742

> <CNNaffinity_variance>
1.0549434423

$$$$
[H]c1c([H])c(OC([H])([H])C([H])([H])N2C([H])([H])C([H])([H])C([H])([H])C2([H])[H])c([H])c([H])c1Oc1c([H])c([H])c(-c2nc3c(Cl)c([H])c([H])c([H])c3o2)c([H])c1[H]


 31 35  0  0  0  0  0  0  0  0999 V2000
    8.6185   48.5056  130.1181 C   0  0  0  0  0  0  0  0  0  0  0  0
    7.9681   48.6454  128.9071 C   0  0  0  0  0  0  0  0  0  0  0  0
    7.3111   49.8454  128.6079 C   0  0  0  0  0  0  0  0  0  0  0  0
    7.3062   50.8857  129.5060 C   0  0  0  0  0  0  0  0  0  0  0  0
    7.9613   50.7170  130.7013 C   0  0  0  0  0  0  0  0  0  0  0  0
    8.6063   49.5492  131.0042 C   0  0  0  0  0  0  0  0  0  0  0  0
   12.0182   45.6779  133.7548 Cl  0  0  0  0  0  0  0  0  0  0  0  0
   11.3679   44.9672  132.2933 C   0  0  0  0  0  0  0  0  0  0  0  0
   11.6869   43.6637  131.9995 C   0  0  0  0  0  0  0  0  0  0  0  0
   11.1552   43.1334  130.8361 C   0  0  0  0  0  0  0  0  0  0  0  0
   10.3430   43.8917  130.0181 C   0  0  0  0  0  0  0  0  0  0  0  0
   10.0278   45.1988  130.3199 C   0  0  0  0  0  0  0  0  0  0  0  0
    9.2985   46.1371  129.7428 O   0  0  0  0  0  0  0  0  0  0  0  0
    9.3174   47.2406  130.4477 C   0  0  0  0  0  0  0  0  0  0  0  0
   10.0892   47.0027  131.5201 N   0  0  0  0  0  0  0  0  0  0  0  0
   10.5581   45.7416  131.4888 C   0  0  0  0  0  0  0  0  0  0  0  0
    6.6677   52.0806  129.2404 O   0  0  0  0  0  0  0  0  0  0  0  0
    7.0838   52.7788  128.0968 C   0  0  0  0  0  0  0  0  0  0  0  0
    7.2814   52.1335  126.8984 C   0  0  0  0  0  0  0  0  0  0  0  0
    7.6886   52.8352  125.7939 C   0  0  0  0  0  0  0  0  0  0  0  0
    7.9272   54.2228  125.8029 C   0  0  0  0  0  0  0  0  0  0  0  0
    7.7231   54.8491  127.0083 C   0  0  0  0  0  0  0  0  0  0  0  0
    7.3068   54.1343  128.1417 C   0  0  0  0  0  0  0  0  0  0  0  0
    8.3251   54.8094  124.6404 O   0  0  0  0  0  0  0  0  0  0  0  0
    7.7652   54.6221  123.3927 C   0  0  0  0  0  0  0  0  0  0  0  0
    6.5118   53.8185  123.4542 C   0  0  0  0  0  0  0  0  0  0  0  0
    5.3425   54.5718  123.0241 N   0  0  0  0  0  0  0  0  0  0  0  0
    4.5825   54.8489  124.2403 C   0  0  0  0  0  0  0  0  0  0  0  0
    3.5417   53.7500  124.2740 C   0  0  0  0  0  0  0  0  0  0  0  0
    3.1418   53.6919  122.8064 C   0  0  0  0  0  0  0  0  0  0  0  0
    4.4848   53.8572  122.1350 C   0  0  0  0  0  0  0  0  0  0  0  0
  7  8  1  0  0  0
  8  9  2  0  0  0
  9 10  1  0  0  0
 10 11  2  0  0  0
 11 12  1  0  0  0
 12 13  1  0  0  0
 13 14  1  0  0  0
 14 15  2  0  0  0
 15 16  1  0  0  0
 14  1  1  0  0  0
  1  2  2  0  0  0
  2  3  1  0  0  0
  3  4  2  0  0  0
  4 17  1  0  0  0
 17 18  1  0  0  0
 18 19  2  0  0  0
 19 20  1  0  0  0
 20 21  2  0  0  0
 21 24  1  0  0  0
 24 25  1  0  0  0
 25 26  1  0  0  0
 26 27  1  0  0  0
 27 28  1  0  0  0
 28 29  1  0  0  0
 29 30  1  0  0  0
 30 31  1  0  0  0
 21 22  1  0  0  0
 22 23  2  0  0  0
  4  5  1  0  0  0
  5  6  2  0  0  0
 16  8  1  0  0  0
  6  1  1  0  0  0
 16 12  2  0  0  0
 23 18  1  0  0  0
 31 27  1  0  0  0
M  END
> <minimizedAffinity>
0.33780

> <CNNscore>
0.3915995657

> <CNNaffinity>
6.9227132797

> <CNN_VS>
2.7109315395

> <CNNaffinity_variance>
0.5216364861

$$$$
[H]c1c([H])c(OC([H])([H])C([H])([H])N2C([H])([H])C([H])([H])C([H])([H])C2([H])[H])c([H])c([H])c1Oc1c([H])c([H])c(-c2nc3c(Cl)c([H])c([H])c([H])c3o2)c([H])c1[H]


 31 35  0  0  0  0  0  0  0  0999 V2000
    9.1467   47.3245  131.2967 C   0  0  0  0  0  0  0  0  0  0  0  0
    9.9428   48.2224  131.9815 C   0  0  0  0  0  0  0  0  0  0  0  0
    9.5868   49.5762  132.0184 C   0  0  0  0  0  0  0  0  0  0  0  0
    8.4538   50.0216  131.3805 C   0  0  0  0  0  0  0  0  0  0  0  0
    7.6825   49.1055  130.7081 C   0  0  0  0  0  0  0  0  0  0  0  0
    8.0207   47.7806  130.6654 C   0  0  0  0  0  0  0  0  0  0  0  0
    9.5360   42.5456  128.1676 Cl  0  0  0  0  0  0  0  0  0  0  0  0
    9.9841   42.6299  129.8576 C   0  0  0  0  0  0  0  0  0  0  0  0
   10.4542   41.4931  130.4691 C   0  0  0  0  0  0  0  0  0  0  0  0
   10.7996   41.5957  131.8061 C   0  0  0  0  0  0  0  0  0  0  0  0
   10.6720   42.7921  132.4814 C   0  0  0  0  0  0  0  0  0  0  0  0
   10.1995   43.9281  131.8606 C   0  0  0  0  0  0  0  0  0  0  0  0
    9.9775   45.1732  132.2426 O   0  0  0  0  0  0  0  0  0  0  0  0
    9.5122   45.8887  131.2493 C   0  0  0  0  0  0  0  0  0  0  0  0
    9.4318   45.0717  130.1870 N   0  0  0  0  0  0  0  0  0  0  0  0
    9.8493   43.8351  130.5149 C   0  0  0  0  0  0  0  0  0  0  0  0
    8.0762   51.3494  131.3985 O   0  0  0  0  0  0  0  0  0  0  0  0
    7.5913   51.8848  130.1957 C   0  0  0  0  0  0  0  0  0  0  0  0
    6.8937   51.1098  129.2988 C   0  0  0  0  0  0  0  0  0  0  0  0
    6.4296   51.6534  128.1294 C   0  0  0  0  0  0  0  0  0  0  0  0
    6.6256   53.0008  127.7707 C   0  0  0  0  0  0  0  0  0  0  0  0
    7.3231   53.7582  128.6799 C   0  0  0  0  0  0  0  0  0  0  0  0
    7.8005   53.2055  129.8779 C   0  0  0  0  0  0  0  0  0  0  0  0
    6.1131   53.4260  126.5831 O   0  0  0  0  0  0  0  0  0  0  0  0
    6.2579   54.6819  126.0290 C   0  0  0  0  0  0  0  0  0  0  0  0
    6.6782   54.6209  124.6007 C   0  0  0  0  0  0  0  0  0  0  0  0
    7.8877   53.8343  124.4064 N   0  0  0  0  0  0  0  0  0  0  0  0
    8.9482   54.8015  124.1354 C   0  0  0  0  0  0  0  0  0  0  0  0
    9.0337   54.8299  122.6242 C   0  0  0  0  0  0  0  0  0  0  0  0
    8.8910   53.3487  122.3033 C   0  0  0  0  0  0  0  0  0  0  0  0
    7.8280   52.9400  123.2957 C   0  0  0  0  0  0  0  0  0  0  0  0
  7  8  1  0  0  0
  8  9  2  0  0  0
  9 10  1  0  0  0
 10 11  2  0  0  0
 11 12  1  0  0  0
 12 13  1  0  0  0
 13 14  1  0  0  0
 14 15  2  0  0  0
 15 16  1  0  0  0
 14  1  1  0  0  0
  1  2  2  0  0  0
  2  3  1  0  0  0
  3  4  2  0  0  0
  4 17  1  0  0  0
 17 18  1  0  0  0
 18 19  2  0  0  0
 19 20  1  0  0  0
 20 21  2  0  0  0
 21 24  1  0  0  0
 24 25  1  0  0  0
 25 26  1  0  0  0
 26 27  1  0  0  0
 27 28  1  0  0  0
 28 29  1  0  0  0
 29 30  1  0  0  0
 30 31  1  0  0  0
 21 22  1  0  0  0
 22 23  2  0  0  0
  4  5  1  0  0  0
  5  6  2  0  0  0
 16  8  1  0  0  0
  6  1  1  0  0  0
 16 12  2  0  0  0
 23 18  1  0  0  0
 31 27  1  0  0  0
M  END
> <minimizedAffinity>
14.17677

> <CNNscore>
0.3716047108

> <CNNaffinity>
6.6819686890

> <CNN_VS>
2.4830510616

> <CNNaffinity_variance>
0.7408756018

$$$$
[H]c1c([H])c(OC([H])([H])C([H])([H])N2C([H])([H])C([H])([H])C([H])([H])C2([H])[H])c([H])c([H])c1Oc1c([H])c([H])c(-c2nc3c(Cl)c([H])c([H])c([H])c3o2)c([H])c1[H]


 31 35  0  0  0  0  0  0  0  0999 V2000
    8.7822   46.6947  131.0117 C   0  0  0  0  0  0  0  0  0  0  0  0
    7.8781   46.1102  130.1456 C   0  0  0  0  0  0  0  0  0  0  0  0
    6.9142   46.9034  129.5111 C   0  0  0  0  0  0  0  0  0  0  0  0
    6.8577   48.2573  129.7405 C   0  0  0  0  0  0  0  0  0  0  0  0
    7.7696   48.8095  130.6064 C   0  0  0  0  0  0  0  0  0  0  0  0
    8.7155   48.0443  131.2319 C   0  0  0  0  0  0  0  0  0  0  0  0
   11.0921   41.5052  131.7280 Cl  0  0  0  0  0  0  0  0  0  0  0  0
   11.6576   42.9352  132.5642 C   0  0  0  0  0  0  0  0  0  0  0  0
   12.7100   42.8110  133.4384 C   0  0  0  0  0  0  0  0  0  0  0  0
   13.1315   43.9622  134.0822 C   0  0  0  0  0  0  0  0  0  0  0  0
   12.5131   45.1729  133.8467 C   0  0  0  0  0  0  0  0  0  0  0  0
   11.4579   45.2891  132.9681 C   0  0  0  0  0  0  0  0  0  0  0  0
   10.6953   46.2865  132.5565 O   0  0  0  0  0  0  0  0  0  0  0  0
    9.8074   45.8665  131.6904 C   0  0  0  0  0  0  0  0  0  0  0  0
   10.0065   44.5475  131.5391 N   0  0  0  0  0  0  0  0  0  0  0  0
   11.0262   44.1361  132.3150 C   0  0  0  0  0  0  0  0  0  0  0  0
    5.9196   49.0659  129.1304 O   0  0  0  0  0  0  0  0  0  0  0  0
    6.3203   50.3734  128.8172 C   0  0  0  0  0  0  0  0  0  0  0  0
    6.8238   50.6884  127.5766 C   0  0  0  0  0  0  0  0  0  0  0  0
    7.2098   51.9723  127.2924 C   0  0  0  0  0  0  0  0  0  0  0  0
    7.1228   53.0297  128.2181 C   0  0  0  0  0  0  0  0  0  0  0  0
    6.6165   52.6953  129.4504 C   0  0  0  0  0  0  0  0  0  0  0  0
    6.2207   51.3819  129.7456 C   0  0  0  0  0  0  0  0  0  0  0  0
    7.5341   54.2642  127.8171 O   0  0  0  0  0  0  0  0  0  0  0  0
    7.9063   54.6306  126.5394 C   0  0  0  0  0  0  0  0  0  0  0  0
    6.7297   54.8389  125.6492 C   0  0  0  0  0  0  0  0  0  0  0  0
    6.8129   54.0620  124.4208 N   0  0  0  0  0  0  0  0  0  0  0  0
    8.2090   53.6469  124.3103 C   0  0  0  0  0  0  0  0  0  0  0  0
    8.8220   54.6826  123.3918 C   0  0  0  0  0  0  0  0  0  0  0  0
    7.7144   54.8385  122.3594 C   0  0  0  0  0  0  0  0  0  0  0  0
    6.4896   54.7998  123.2427 C   0  0  0  0  0  0  0  0  0  0  0  0
  7  8  1  0  0  0
  8  9  2  0  0  0
  9 10  1  0  0  0
 10 11  2  0  0  0
 11 12  1  0  0  0
 12 13  1  0  0  0
 13 14  1  0  0  0
 14 15  2  0  0  0
 15 16  1  0  0  0
 14  1  1  0  0  0
  1  2  2  0  0  0
  2  3  1  0  0  0
  3  4  2  0  0  0
  4 17  1  0  0  0
 17 18  1  0  0  0
 18 19  2  0  0  0
 19 20  1  0  0  0
 20 21  2  0  0  0
 21 24  1  0  0  0
 24 25  1  0  0  0
 25 26  1  0  0  0
 26 27  1  0  0  0
 27 28  1  0  0  0
 28 29  1  0  0  0
 29 30  1  0  0  0
 30 31  1  0  0  0
 21 22  1  0  0  0
 22 23  2  0  0  0
  4  5  1  0  0  0
  5  6  2  0  0  0
 16  8  1  0  0  0
  6  1  1  0  0  0
 16 12  2  0  0  0
 23 18  1  0  0  0
 31 27  1  0  0  0
M  END
> <minimizedAffinity>
5.18618

> <CNNscore>
0.3514248133

> <CNNaffinity>
6.7859907150

> <CNN_VS>
2.3847656250

> <CNNaffinity_variance>
0.4161210954

$$$$
[H]c1c([H])c(OC([H])([H])C([H])([H])N2C([H])([H])C([H])([H])C([H])([H])C2([H])[H])c([H])c([H])c1Oc1c([H])c([H])c(-c2nc3c(Cl)c([H])c([H])c([H])c3o2)c([H])c1[H]


 31 35  0  0  0  0  0  0  0  0999 V2000
   10.0698   47.2621  131.9859 C   0  0  0  0  0  0  0  0  0  0  0  0
    9.2835   46.9193  130.9027 C   0  0  0  0  0  0  0  0  0  0  0  0
    8.8412   47.9163  130.0244 C   0  0  0  0  0  0  0  0  0  0  0  0
    9.1810   49.2324  130.2282 C   0  0  0  0  0  0  0  0  0  0  0  0
    9.9637   49.5422  131.3134 C   0  0  0  0  0  0  0  0  0  0  0  0
   10.4014   48.5765  132.1780 C   0  0  0  0  0  0  0  0  0  0  0  0
    9.6499   44.8885  137.1792 Cl  0  0  0  0  0  0  0  0  0  0  0  0
   10.7574   44.3221  135.9476 C   0  0  0  0  0  0  0  0  0  0  0  0
   11.5698   43.2529  136.2375 C   0  0  0  0  0  0  0  0  0  0  0  0
   12.4332   42.8311  135.2405 C   0  0  0  0  0  0  0  0  0  0  0  0
   12.4655   43.4656  134.0156 C   0  0  0  0  0  0  0  0  0  0  0  0
   11.6472   44.5377  133.7328 C   0  0  0  0  0  0  0  0  0  0  0  0
   11.4650   45.3173  132.6818 O   0  0  0  0  0  0  0  0  0  0  0  0
   10.5444   46.2167  132.9236 C   0  0  0  0  0  0  0  0  0  0  0  0
   10.1178   46.0073  134.1792 N   0  0  0  0  0  0  0  0  0  0  0  0
   10.7746   44.9697  134.7298 C   0  0  0  0  0  0  0  0  0  0  0  0
    8.7608   50.2379  129.3806 O   0  0  0  0  0  0  0  0  0  0  0  0
    7.3890   50.2877  129.0905 C   0  0  0  0  0  0  0  0  0  0  0  0
    6.7947   51.4453  128.6451 C   0  0  0  0  0  0  0  0  0  0  0  0
    5.4526   51.4715  128.3683 C   0  0  0  0  0  0  0  0  0  0  0  0
    4.6101   50.3529  128.5143 C   0  0  0  0  0  0  0  0  0  0  0  0
    5.2226   49.2065  128.9588 C   0  0  0  0  0  0  0  0  0  0  0  0
    6.5961   49.1756  129.2439 C   0  0  0  0  0  0  0  0  0  0  0  0
    3.2928   50.5014  128.2037 O   0  0  0  0  0  0  0  0  0  0  0  0
    2.6779   51.6569  127.7654 C   0  0  0  0  0  0  0  0  0  0  0  0
    1.6572   51.3864  126.7140 C   0  0  0  0  0  0  0  0  0  0  0  0
    1.1595   52.6043  126.0907 N   0  0  0  0  0  0  0  0  0  0  0  0
    2.1728   52.9887  125.1114 C   0  0  0  0  0  0  0  0  0  0  0  0
    3.0121   54.0140  125.8437 C   0  0  0  0  0  0  0  0  0  0  0  0
    1.9296   54.8063  126.5632 C   0  0  0  0  0  0  0  0  0  0  0  0
    0.9994   53.6970  126.9946 C   0  0  0  0  0  0  0  0  0  0  0  0
  7  8  1  0  0  0
  8  9  2  0  0  0
  9 10  1  0  0  0
 10 11  2  0  0  0
 11 12  1  0  0  0
 12 13  1  0  0  0
 13 14  1  0  0  0
 14 15  2  0  0  0
 15 16  1  0  0  0
 14  1  1  0  0  0
  1  2  2  0  0  0
  2  3  1  0  0  0
  3  4  2  0  0  0
  4 17  1  0  0  0
 17 18  1  0  0  0
 18 19  2  0  0  0
 19 20  1  0  0  0
 20 21  2  0  0  0
 21 24  1  0  0  0
 24 25  1  0  0  0
 25 26  1  0  0  0
 26 27  1  0  0  0
 27 28  1  0  0  0
 28 29  1  0  0  0
 29 30  1  0  0  0
 30 31  1  0  0  0
 21 22  1  0  0  0
 22 23  2  0  0  0
  4  5  1  0  0  0
  5  6  2  0  0  0
 16  8  1  0  0  0
  6  1  1  0  0  0
 16 12  2  0  0  0
 23 18  1  0  0  0
 31 27  1  0  0  0
M  END
> <minimizedAffinity>
13.25748

> <CNNscore>
0.2979482412

> <CNNaffinity>
6.4057550430

> <CNN_VS>
1.9085834026

> <CNNaffinity_variance>
0.2742806375

$$$$
[H]c1c([H])c(OC([H])([H])C([H])([H])N2C([H])([H])C([H])([H])C([H])([H])C2([H])[H])c([H])c([H])c1Oc1c([H])c([H])c(-c2nc3c(Cl)c([H])c([H])c([H])c3o2)c([H])c1[H]


 31 35  0  0  0  0  0  0  0  0999 V2000
    8.9042   47.5934  131.1105 C   0  0  0  0  0  0  0  0  0  0  0  0
    9.0896   48.8742  131.5943 C   0  0  0  0  0  0  0  0  0  0  0  0
    8.1525   49.8707  131.2942 C   0  0  0  0  0  0  0  0  0  0  0  0
    7.0502   49.5882  130.5234 C   0  0  0  0  0  0  0  0  0  0  0  0
    6.8931   48.3060  130.0571 C   0  0  0  0  0  0  0  0  0  0  0  0
    7.8021   47.3247  130.3439 C   0  0  0  0  0  0  0  0  0  0  0  0
   11.1228   44.0685  135.0390 Cl  0  0  0  0  0  0  0  0  0  0  0  0
   11.6659   44.1217  133.3759 C   0  0  0  0  0  0  0  0  0  0  0  0
   12.6765   43.2756  132.9884 C   0  0  0  0  0  0  0  0  0  0  0  0
   13.0810   43.3440  131.6658 C   0  0  0  0  0  0  0  0  0  0  0  0
   12.4870   44.2271  130.7877 C   0  0  0  0  0  0  0  0  0  0  0  0
   11.4738   45.0726  131.1844 C   0  0  0  0  0  0  0  0  0  0  0  0
   10.7414   45.9934  130.5833 O   0  0  0  0  0  0  0  0  0  0  0  0
    9.8887   46.5293  131.4204 C   0  0  0  0  0  0  0  0  0  0  0  0
   10.0802   45.9298  132.6062 N   0  0  0  0  0  0  0  0  0  0  0  0
   11.0594   45.0113  132.5136 C   0  0  0  0  0  0  0  0  0  0  0  0
    6.1089   50.5484  130.2103 O   0  0  0  0  0  0  0  0  0  0  0  0
    6.5024   51.5485  129.3084 C   0  0  0  0  0  0  0  0  0  0  0  0
    6.4304   52.8806  129.6430 C   0  0  0  0  0  0  0  0  0  0  0  0
    6.8196   53.8411  128.7462 C   0  0  0  0  0  0  0  0  0  0  0  0
    7.3060   53.5459  127.4582 C   0  0  0  0  0  0  0  0  0  0  0  0
    7.3716   52.2104  127.1437 C   0  0  0  0  0  0  0  0  0  0  0  0
    6.9736   51.2240  128.0587 C   0  0  0  0  0  0  0  0  0  0  0  0
    7.6657   54.5871  126.6579 O   0  0  0  0  0  0  0  0  0  0  0  0
    8.9110   54.8042  126.1034 C   0  0  0  0  0  0  0  0  0  0  0  0
    8.9114   54.6036  124.6268 C   0  0  0  0  0  0  0  0  0  0  0  0
    7.7547   53.8502  124.1642 N   0  0  0  0  0  0  0  0  0  0  0  0
    7.9314   53.7022  122.7218 C   0  0  0  0  0  0  0  0  0  0  0  0
    7.1060   54.8298  122.1393 C   0  0  0  0  0  0  0  0  0  0  0  0
    5.8746   54.7717  123.0323 C   0  0  0  0  0  0  0  0  0  0  0  0
    6.5072   54.5094  124.3787 C   0  0  0  0  0  0  0  0  0  0  0  0
  7  8  1  0  0  0
  8  9  2  0  0  0
  9 10  1  0  0  0
 10 11  2  0  0  0
 11 12  1  0  0  0
 12 13  1  0  0  0
 13 14  1  0  0  0
 14 15  2  0  0  0
 15 16  1  0  0  0
 14  1  1  0  0  0
  1  2  2  0  0  0
  2  3  1  0  0  0
  3  4  2  0  0  0
  4 17  1  0  0  0
 17 18  1  0  0  0
 18 19  2  0  0  0
 19 20  1  0  0  0
 20 21  2  0  0  0
 21 24  1  0  0  0
 24 25  1  0  0  0
 25 26  1  0  0  0
 26 27  1  0  0  0
 27 28  1  0  0  0
 28 29  1  0  0  0
 29 30  1  0  0  0
 30 31  1  0  0  0
 21 22  1  0  0  0
 22 23  2  0  0  0
  4  5  1  0  0  0
  5  6  2  0  0  0
 16  8  1  0  0  0
  6  1  1  0  0  0
 16 12  2  0  0  0
 23 18  1  0  0  0
 31 27  1  0  0  0
M  END
> <minimizedAffinity>
5.20380

> <CNNscore>
0.2913306952

> <CNNaffinity>
6.6648736000

> <CNN_VS>
1.9416822195

> <CNNaffinity_variance>
0.4752201140

$$$$
[H]c1c([H])c(OC([H])([H])C([H])([H])N2C([H])([H])C([H])([H])C([H])([H])C2([H])[H])c([H])c([H])c1Oc1c([H])c([H])c(-c2nc3c(Cl)c([H])c([H])c([H])c3o2)c([H])c1[H]


 31 35  0  0  0  0  0  0  0  0999 V2000
    9.9896   42.3459  128.8239 C   0  0  0  0  0  0  0  0  0  0  0  0
    9.8970   43.7100  128.6251 C   0  0  0  0  0  0  0  0  0  0  0  0
    9.8821   44.5717  129.7289 C   0  0  0  0  0  0  0  0  0  0  0  0
    9.9588   44.0749  131.0081 C   0  0  0  0  0  0  0  0  0  0  0  0
   10.0501   42.7146  131.1739 C   0  0  0  0  0  0  0  0  0  0  0  0
   10.0653   41.8635  130.1029 C   0  0  0  0  0  0  0  0  0  0  0  0
   12.7589   38.2196  125.9805 Cl  0  0  0  0  0  0  0  0  0  0  0  0
   11.2164   38.8720  125.4715 C   0  0  0  0  0  0  0  0  0  0  0  0
   10.6363   38.3710  124.3315 C   0  0  0  0  0  0  0  0  0  0  0  0
    9.4164   38.9096  123.9582 C   0  0  0  0  0  0  0  0  0  0  0  0
    8.8218   39.9043  124.7071 C   0  0  0  0  0  0  0  0  0  0  0  0
    9.4105   40.4015  125.8496 C   0  0  0  0  0  0  0  0  0  0  0  0
    9.0849   41.3229  126.7387 O   0  0  0  0  0  0  0  0  0  0  0  0
   10.0059   41.4226  127.6643 C   0  0  0  0  0  0  0  0  0  0  0  0
   10.9613   40.5303  127.3585 N   0  0  0  0  0  0  0  0  0  0  0  0
   10.6384   39.8658  126.2337 C   0  0  0  0  0  0  0  0  0  0  0  0
    9.9465   44.8982  132.1163 O   0  0  0  0  0  0  0  0  0  0  0  0
    9.7450   46.2671  131.8843 C   0  0  0  0  0  0  0  0  0  0  0  0
    8.8684   46.9999  132.6499 C   0  0  0  0  0  0  0  0  0  0  0  0
    8.6866   48.3362  132.4054 C   0  0  0  0  0  0  0  0  0  0  0  0
    9.3609   49.0353  131.3860 C   0  0  0  0  0  0  0  0  0  0  0  0
   10.2326   48.2865  130.6336 C   0  0  0  0  0  0  0  0  0  0  0  0
   10.4212   46.9181  130.8803 C   0  0  0  0  0  0  0  0  0  0  0  0
    9.0994   50.3639  131.2429 O   0  0  0  0  0  0  0  0  0  0  0  0
    8.0955   50.9253  130.4798 C   0  0  0  0  0  0  0  0  0  0  0  0
    6.8586   50.0942  130.4789 C   0  0  0  0  0  0  0  0  0  0  0  0
    6.5286   49.5836  129.1561 N   0  0  0  0  0  0  0  0  0  0  0  0
    5.2424   48.9073  129.3038 C   0  0  0  0  0  0  0  0  0  0  0  0
    5.6184   47.4525  129.4884 C   0  0  0  0  0  0  0  0  0  0  0  0
    6.7367   47.3156  128.4647 C   0  0  0  0  0  0  0  0  0  0  0  0
    7.4611   48.6278  128.6521 C   0  0  0  0  0  0  0  0  0  0  0  0
  7  8  1  0  0  0
  8  9  2  0  0  0
  9 10  1  0  0  0
 10 11  2  0  0  0
 11 12  1  0  0  0
 12 13  1  0  0  0
 13 14  1  0  0  0
 14 15  2  0  0  0
 15 16  1  0  0  0
 14  1  1  0  0  0
  1  2  2  0  0  0
  2  3  1  0  0  0
  3  4  2  0  0  0
  4 17  1  0  0  0
 17 18  1  0  0  0
 18 19  2  0  0  0
 19 20  1  0  0  0
 20 21  2  0  0  0
 21 24  1  0  0  0
 24 25  1  0  0  0
 25 26  1  0  0  0
 26 27  1  0  0  0
 27 28  1  0  0  0
 28 29  1  0  0  0
 29 30  1  0  0  0
 30 31  1  0  0  0
 21 22  1  0  0  0
 22 23  2  0  0  0
  4  5  1  0  0  0
  5  6  2  0  0  0
 16  8  1  0  0  0
  6  1  1  0  0  0
 16 12  2  0  0  0
 23 18  1  0  0  0
 31 27  1  0  0  0
M  END
> <minimizedAffinity>
18.54765

> <CNNscore>
0.2760038674

> <CNNaffinity>
6.8951086998

> <CNN_VS>
1.9030766487

> <CNNaffinity_variance>
0.0570330396

$$$$
[H]c1c([H])c(OC([H])([H])C([H])([H])N2C([H])([H])C([H])([H])C([H])([H])C2([H])[H])c([H])c([H])c1Oc1c([H])c([H])c(-c2nc3c(Cl)c([H])c([H])c([H])c3o2)c([H])c1[H]


 31 35  0  0  0  0  0  0  0  0999 V2000
    8.5728   46.9347  131.0463 C   0  0  0  0  0  0  0  0  0  0  0  0
    7.5028   46.3977  130.3566 C   0  0  0  0  0  0  0  0  0  0  0  0
    6.5574   47.2494  129.7720 C   0  0  0  0  0  0  0  0  0  0  0  0
    6.6825   48.6141  129.8769 C   0  0  0  0  0  0  0  0  0  0  0  0
    7.7567   49.1182  130.5685 C   0  0  0  0  0  0  0  0  0  0  0  0
    8.6862   48.2956  131.1437 C   0  0  0  0  0  0  0  0  0  0  0  0
   10.7151   44.7030  135.8640 Cl  0  0  0  0  0  0  0  0  0  0  0  0
   11.3440   44.3402  134.2713 C   0  0  0  0  0  0  0  0  0  0  0  0
   12.4065   43.4756  134.1668 C   0  0  0  0  0  0  0  0  0  0  0  0
   12.8783   43.2108  132.8922 C   0  0  0  0  0  0  0  0  0  0  0  0
   12.2978   43.7961  131.7857 C   0  0  0  0  0  0  0  0  0  0  0  0
   11.2322   44.6625  131.8991 C   0  0  0  0  0  0  0  0  0  0  0  0
   10.4973   45.3506  131.0435 O   0  0  0  0  0  0  0  0  0  0  0  0
    9.5805   46.0444  131.6703 C   0  0  0  0  0  0  0  0  0  0  0  0
    9.7317   45.7929  132.9804 N   0  0  0  0  0  0  0  0  0  0  0  0
   10.7500   44.9354  133.1778 C   0  0  0  0  0  0  0  0  0  0  0  0
    5.7675   49.4798  129.3118 O   0  0  0  0  0  0  0  0  0  0  0  0
    6.2592   50.7155  128.8649 C   0  0  0  0  0  0  0  0  0  0  0  0
    6.8265   50.8503  127.6193 C   0  0  0  0  0  0  0  0  0  0  0  0
    7.3010   52.0669  127.2033 C   0  0  0  0  0  0  0  0  0  0  0  0
    7.2451   53.2309  127.9935 C   0  0  0  0  0  0  0  0  0  0  0  0
    6.6740   53.0760  129.2331 C   0  0  0  0  0  0  0  0  0  0  0  0
    6.1876   51.8321  129.6631 C   0  0  0  0  0  0  0  0  0  0  0  0
    7.7461   54.3831  127.4687 O   0  0  0  0  0  0  0  0  0  0  0  0
    8.5569   54.4944  126.3571 C   0  0  0  0  0  0  0  0  0  0  0  0
    7.9490   53.8621  125.1525 C   0  0  0  0  0  0  0  0  0  0  0  0
    7.4384   54.8414  124.2040 N   0  0  0  0  0  0  0  0  0  0  0  0
    5.9891   54.8489  124.3863 C   0  0  0  0  0  0  0  0  0  0  0  0
    5.4841   53.9193  123.3034 C   0  0  0  0  0  0  0  0  0  0  0  0
    6.3726   54.3309  122.1379 C   0  0  0  0  0  0  0  0  0  0  0  0
    7.6978   54.5186  122.8382 C   0  0  0  0  0  0  0  0  0  0  0  0
  7  8  1  0  0  0
  8  9  2  0  0  0
  9 10  1  0  0  0
 10 11  2  0  0  0
 11 12  1  0  0  0
 12 13  1  0  0  0
 13 14  1  0  0  0
 14 15  2  0  0  0
 15 16  1  0  0  0
 14  1  1  0  0  0
  1  2  2  0  0  0
  2  3  1  0  0  0
  3  4  2  0  0  0
  4 17  1  0  0  0
 17 18  1  0  0  0
 18 19  2  0  0  0
 19 20  1  0  0  0
 20 21  2  0  0  0
 21 24  1  0  0  0
 24 25  1  0  0  0
 25 26  1  0  0  0
 26 27  1  0  0  0
 27 28  1  0  0  0
 28 29  1  0  0  0
 29 30  1  0  0  0
 30 31  1  0  0  0
 21 22  1  0  0  0
 22 23  2  0  0  0
  4  5  1  0  0  0
  5  6  2  0  0  0
 16  8  1  0  0  0
  6  1  1  0  0  0
 16 12  2  0  0  0
 23 18  1  0  0  0
 31 27  1  0  0  0
M  END
> <minimizedAffinity>
5.97052

> <CNNscore>
0.2116701156

> <CNNaffinity>
6.6273918152

> <CNN_VS>
1.4028208256

> <CNNaffinity_variance>
0.3841964304

$$$$
[H]c1c([H])c(OC([H])([H])C([H])([H])N2C([H])([H])C([H])([H])C([H])([H])C2([H])[H])c([H])c([H])c1Oc1c([H])c([H])c(-c2nc3c(Cl)c([H])c([H])c([H])c3o2)c([H])c1[H]


 31 35  0  0  0  0  0  0  0  0999 V2000
    6.1347   48.5365  129.3969 C   0  0  0  0  0  0  0  0  0  0  0  0
    6.1937   49.9139  129.3065 C   0  0  0  0  0  0  0  0  0  0  0  0
    5.0244   50.6427  129.0565 C   0  0  0  0  0  0  0  0  0  0  0  0
    3.8183   50.0024  128.8999 C   0  0  0  0  0  0  0  0  0  0  0  0
    3.7912   48.6325  128.9952 C   0  0  0  0  0  0  0  0  0  0  0  0
    4.9273   47.9105  129.2391 C   0  0  0  0  0  0  0  0  0  0  0  0
   10.6760   47.6777  132.7761 Cl  0  0  0  0  0  0  0  0  0  0  0  0
   10.3505   46.7307  131.3404 C   0  0  0  0  0  0  0  0  0  0  0  0
   11.2272   45.7283  131.0031 C   0  0  0  0  0  0  0  0  0  0  0  0
   10.9390   44.9990  129.8618 C   0  0  0  0  0  0  0  0  0  0  0  0
    9.8182   45.2776  129.1068 C   0  0  0  0  0  0  0  0  0  0  0  0
    8.9437   46.2851  129.4520 C   0  0  0  0  0  0  0  0  0  0  0  0
    7.8255   46.7639  128.9363 O   0  0  0  0  0  0  0  0  0  0  0  0
    7.3650   47.7529  129.6607 C   0  0  0  0  0  0  0  0  0  0  0  0
    8.2206   47.9167  130.6823 N   0  0  0  0  0  0  0  0  0  0  0  0
    9.2250   47.0248  130.5992 C   0  0  0  0  0  0  0  0  0  0  0  0
    2.6485   50.6925  128.6526 O   0  0  0  0  0  0  0  0  0  0  0  0
    2.5809   51.4108  127.4493 C   0  0  0  0  0  0  0  0  0  0  0  0
    2.4224   50.7698  126.2428 C   0  0  0  0  0  0  0  0  0  0  0  0
    2.3595   51.4913  125.0792 C   0  0  0  0  0  0  0  0  0  0  0  0
    2.4494   52.8957  125.0335 C   0  0  0  0  0  0  0  0  0  0  0  0
    2.6061   53.5171  126.2484 C   0  0  0  0  0  0  0  0  0  0  0  0
    2.6716   52.7822  127.4418 C   0  0  0  0  0  0  0  0  0  0  0  0
    2.3694   53.5009  123.8163 O   0  0  0  0  0  0  0  0  0  0  0  0
    3.2706   54.4026  123.2871 C   0  0  0  0  0  0  0  0  0  0  0  0
    4.5724   53.7623  122.9469 C   0  0  0  0  0  0  0  0  0  0  0  0
    5.6961   54.6798  123.0691 N   0  0  0  0  0  0  0  0  0  0  0  0
    6.7089   54.1895  122.1377 C   0  0  0  0  0  0  0  0  0  0  0  0
    7.6270   53.3575  123.0076 C   0  0  0  0  0  0  0  0  0  0  0  0
    7.7148   54.2345  124.2487 C   0  0  0  0  0  0  0  0  0  0  0  0
    6.2854   54.7081  124.3686 C   0  0  0  0  0  0  0  0  0  0  0  0
  7  8  1  0  0  0
  8  9  2  0  0  0
  9 10  1  0  0  0
 10 11  2  0  0  0
 11 12  1  0  0  0
 12 13  1  0  0  0
 13 14  1  0  0  0
 14 15  2  0  0  0
 15 16  1  0  0  0
 14  1  1  0  0  0
  1  2  2  0  0  0
  2  3  1  0  0  0
  3  4  2  0  0  0
  4 17  1  0  0  0
 17 18  1  0  0  0
 18 19  2  0  0  0
 19 20  1  0  0  0
 20 21  2  0  0  0
 21 24  1  0  0  0
 24 25  1  0  0  0
 25 26  1  0  0  0
 26 27  1  0  0  0
 27 28  1  0  0  0
 28 29  1  0  0  0
 29 30  1  0  0  0
 30 31  1  0  0  0
 21 22  1  0  0  0
 22 23  2  0  0  0
  4  5  1  0  0  0
  5  6  2  0  0  0
 16  8  1  0  0  0
  6  1  1  0  0  0
 16 12  2  0  0  0
 23 18  1  0  0  0
 31 27  1  0  0  0
M  END
> <minimizedAffinity>
11.26761

> <CNNscore>
0.1802978665

> <CNNaffinity>
6.3536810875

> <CNN_VS>
1.1455551386

> <CNNaffinity_variance>
0.1464280784

$$$$
[H]OC(=O)C([H])([H])N1c2c([H])c([H])c3c(c2C([H])([H])C1([H])[H])C(C([H])([H])[H])(C([H])([H])[H])[C@]([H])(C(F)(F)F)[C@]([H])(c1c([H])c([H])c(O[H])c([H])c1[H])O3


 32 35  0  0  0  0  0  0  0  0999 V2000
    7.4512   45.6560  131.7584 C   0  0  0  0  0  0  0  0  0  0  0  0
    8.4281   46.0425  130.6130 C   0  0  0  0  0  0  0  0  0  0  0  0
    7.7641   45.4306  129.4448 C   0  0  0  0  0  0  0  0  0  0  0  0
    9.8192   45.4947  130.8472 C   0  0  0  0  0  0  0  0  0  0  0  0
   10.5478   46.0672  131.9925 C   0  0  0  0  0  0  0  0  0  0  0  0
    9.8187   47.1505  132.6116 O   0  0  0  0  0  0  0  0  0  0  0  0
    9.1935   48.0436  131.7634 C   0  0  0  0  0  0  0  0  0  0  0  0
    9.2728   49.4295  131.9855 C   0  0  0  0  0  0  0  0  0  0  0  0
    8.6611   50.3058  131.1455 C   0  0  0  0  0  0  0  0  0  0  0  0
    7.9657   49.7796  130.0750 C   0  0  0  0  0  0  0  0  0  0  0  0
    7.2329   50.4890  129.0710 N   0  0  0  0  0  0  0  0  0  0  0  0
    7.1764   49.6075  127.9332 C   0  0  0  0  0  0  0  0  0  0  0  0
    7.1030   48.2418  128.6407 C   0  0  0  0  0  0  0  0  0  0  0  0
    7.8805   48.4053  129.8453 C   0  0  0  0  0  0  0  0  0  0  0  0
    8.4910   47.5100  130.6868 C   0  0  0  0  0  0  0  0  0  0  0  0
   11.0016   45.2419  133.1095 C   0  0  0  0  0  0  0  0  0  0  0  0
   10.2090   45.0590  134.2560 C   0  0  0  0  0  0  0  0  0  0  0  0
   10.5643   44.2999  135.3257 C   0  0  0  0  0  0  0  0  0  0  0  0
   11.7772   43.6528  135.3168 C   0  0  0  0  0  0  0  0  0  0  0  0
   12.1289   42.8748  136.4272 O   0  0  0  0  0  0  0  0  0  0  0  0
   12.6016   43.7821  134.2384 C   0  0  0  0  0  0  0  0  0  0  0  0
   12.2023   44.5644  133.1693 C   0  0  0  0  0  0  0  0  0  0  0  0
   12.6399   43.3295  137.1959 H   0  0  0  0  0  0  0  0  0  0  0  0
    9.9834   44.0316  130.6077 C   0  0  0  0  0  0  0  0  0  0  0  0
    9.5650   43.6205  129.3389 F   0  0  0  0  0  0  0  0  0  0  0  0
    9.5004   43.2233  131.6017 F   0  0  0  0  0  0  0  0  0  0  0  0
   11.3420   43.7059  130.4913 F   0  0  0  0  0  0  0  0  0  0  0  0
    6.6857   51.8235  129.2273 C   0  0  0  0  0  0  0  0  0  0  0  0
    7.0912   52.7100  128.1167 C   0  0  0  0  0  0  0  0  0  0  0  0
    7.5011   52.1837  126.9122 O   0  0  0  0  0  0  0  0  0  0  0  0
    7.0587   53.9403  128.2815 O   0  0  0  0  0  0  0  0  0  0  0  0
    8.4732   52.1888  126.6318 H   0  0  0  0  0  0  0  0  0  0  0  0
  1  2  1  0  0  0
  2  3  1  0  0  0
  2  4  1  0  0  0
  4  5  1  0  0  0
  5  6  1  0  0  0
  6  7  1  0  0  0
  7  8  2  0  0  0
  8  9  1  0  0  0
  9 10  2  0  0  0
 10 11  1  0  0  0
 11 28  1  0  0  0
 28 29  1  0  0  0
 29 30  1  0  0  0
 29 31  2  0  0  0
 11 12  1  0  0  0
 12 13  1  0  0  0
 13 14  1  0  0  0
 14 15  2  0  0  0
  5 16  1  0  0  0
 16 17  2  0  0  0
 17 18  1  0  0  0
 18 19  2  0  0  0
 19 20  1  0  0  0
 19 21  1  0  0  0
 21 22  2  0  0  0
  4 24  1  0  0  0
 24 25  1  0  0  0
 24 26  1  0  0  0
 24 27  1  0  0  0
 15  2  1  0  0  0
 22 16  1  0  0  0
 15  7  1  0  0  0
 14 10  1  0  0  0
 30 32  1  0  0  0
 20 23  1  0  0  0
M  END
> <minimizedAffinity>
-2.43419

> <CNNscore>
0.4910804033

> <CNNaffinity>
7.5691108704

> <CNN_VS>
3.7170419693

> <CNNaffinity_variance>
0.7311823964

$$$$
[H]OC(=O)C([H])([H])N1c2c([H])c([H])c3c(c2C([H])([H])C1([H])[H])C(C([H])([H])[H])(C([H])([H])[H])[C@]([H])(C(F)(F)F)[C@]([H])(c1c([H])c([H])c(O[H])c([H])c1[H])O3


 32 35  0  0  0  0  0  0  0  0999 V2000
   10.7704   47.2870  130.2761 C   0  0  0  0  0  0  0  0  0  0  0  0
    9.6349   47.6008  131.2899 C   0  0  0  0  0  0  0  0  0  0  0  0
   10.2790   48.6199  132.1425 C   0  0  0  0  0  0  0  0  0  0  0  0
    9.2139   46.3718  132.0658 C   0  0  0  0  0  0  0  0  0  0  0  0
    8.5541   45.3143  131.2805 C   0  0  0  0  0  0  0  0  0  0  0  0
    8.3265   45.7182  129.9118 O   0  0  0  0  0  0  0  0  0  0  0  0
    7.8825   47.0105  129.7106 C   0  0  0  0  0  0  0  0  0  0  0  0
    6.8385   47.2852  128.8101 C   0  0  0  0  0  0  0  0  0  0  0  0
    6.4001   48.5577  128.6189 C   0  0  0  0  0  0  0  0  0  0  0  0
    7.0193   49.5582  129.3414 C   0  0  0  0  0  0  0  0  0  0  0  0
    6.7496   50.9632  129.3031 N   0  0  0  0  0  0  0  0  0  0  0  0
    7.2182   51.4849  130.5613 C   0  0  0  0  0  0  0  0  0  0  0  0
    8.4293   50.5674  130.8111 C   0  0  0  0  0  0  0  0  0  0  0  0
    8.0568   49.2965  130.2379 C   0  0  0  0  0  0  0  0  0  0  0  0
    8.5105   48.0172  130.4383 C   0  0  0  0  0  0  0  0  0  0  0  0
    9.1092   43.9666  131.1804 C   0  0  0  0  0  0  0  0  0  0  0  0
    8.3848   42.8410  131.6099 C   0  0  0  0  0  0  0  0  0  0  0  0
    8.8355   41.5610  131.5385 C   0  0  0  0  0  0  0  0  0  0  0  0
   10.0828   41.3163  131.0148 C   0  0  0  0  0  0  0  0  0  0  0  0
   10.5329   39.9916  130.9488 O   0  0  0  0  0  0  0  0  0  0  0  0
   10.8453   42.3582  130.5765 C   0  0  0  0  0  0  0  0  0  0  0  0
   10.3495   43.6468  130.6667 C   0  0  0  0  0  0  0  0  0  0  0  0
   11.0524   39.6150  131.7533 H   0  0  0  0  0  0  0  0  0  0  0  0
   10.1586   45.9289  133.1320 C   0  0  0  0  0  0  0  0  0  0  0  0
   11.4916   45.8780  132.7144 F   0  0  0  0  0  0  0  0  0  0  0  0
    9.7820   44.7995  133.8081 F   0  0  0  0  0  0  0  0  0  0  0  0
   10.2884   46.9229  134.1121 F   0  0  0  0  0  0  0  0  0  0  0  0
    6.1266   51.6608  128.1940 C   0  0  0  0  0  0  0  0  0  0  0  0
    6.9630   52.7832  127.7202 C   0  0  0  0  0  0  0  0  0  0  0  0
    7.2041   53.8699  128.5305 O   0  0  0  0  0  0  0  0  0  0  0  0
    7.4484   52.7362  126.5782 O   0  0  0  0  0  0  0  0  0  0  0  0
    6.7606   54.7646  128.3679 H   0  0  0  0  0  0  0  0  0  0  0  0
  1  2  1  0  0  0
  2  3  1  0  0  0
  2  4  1  0  0  0
  4  5  1  0  0  0
  5  6  1  0  0  0
  6  7  1  0  0  0
  7  8  2  0  0  0
  8  9  1  0  0  0
  9 10  2  0  0  0
 10 11  1  0  0  0
 11 28  1  0  0  0
 28 29  1  0  0  0
 29 30  1  0  0  0
 29 31  2  0  0  0
 11 12  1  0  0  0
 12 13  1  0  0  0
 13 14  1  0  0  0
 14 15  2  0  0  0
  5 16  1  0  0  0
 16 17  2  0  0  0
 17 18  1  0  0  0
 18 19  2  0  0  0
 19 20  1  0  0  0
 19 21  1  0  0  0
 21 22  2  0  0  0
  4 24  1  0  0  0
 24 25  1  0  0  0
 24 26  1  0  0  0
 24 27  1  0  0  0
 15  2  1  0  0  0
 22 16  1  0  0  0
 15  7  1  0  0  0
 14 10  1  0  0  0
 30 32  1  0  0  0
 20 23  1  0  0  0
M  END
> <minimizedAffinity>
6.04798

> <CNNscore>
0.4070587456

> <CNNaffinity>
7.4949812889

> <CNN_VS>
3.0508975983

> <CNNaffinity_variance>
1.5074502230

$$$$
[H]OC(=O)C([H])([H])N1c2c([H])c([H])c3c(c2C([H])([H])C1([H])[H])C(C([H])([H])[H])(C([H])([H])[H])[C@]([H])(C(F)(F)F)[C@]([H])(c1c([H])c([H])c(O[H])c([H])c1[H])O3


 32 35  0  0  0  0  0  0  0  0999 V2000
   10.8743   47.4839  131.5487 C   0  0  0  0  0  0  0  0  0  0  0  0
    9.4572   47.6387  132.1678 C   0  0  0  0  0  0  0  0  0  0  0  0
    9.6880   48.7068  133.1608 C   0  0  0  0  0  0  0  0  0  0  0  0
    8.9713   46.3513  132.7974 C   0  0  0  0  0  0  0  0  0  0  0  0
    8.7098   45.2416  131.8643 C   0  0  0  0  0  0  0  0  0  0  0  0
    8.8591   45.6470  130.4853 O   0  0  0  0  0  0  0  0  0  0  0  0
    8.3457   46.8823  130.1414 C   0  0  0  0  0  0  0  0  0  0  0  0
    7.5969   47.0526  128.9639 C   0  0  0  0  0  0  0  0  0  0  0  0
    7.0882   48.2686  128.6316 C   0  0  0  0  0  0  0  0  0  0  0  0
    7.3370   49.3184  129.4933 C   0  0  0  0  0  0  0  0  0  0  0  0
    6.9261   50.6823  129.3557 N   0  0  0  0  0  0  0  0  0  0  0  0
    6.9280   51.2268  130.6893 C   0  0  0  0  0  0  0  0  0  0  0  0
    8.1077   50.4528  131.3060 C   0  0  0  0  0  0  0  0  0  0  0  0
    8.0794   49.1603  130.6648 C   0  0  0  0  0  0  0  0  0  0  0  0
    8.6005   47.9391  131.0107 C   0  0  0  0  0  0  0  0  0  0  0  0
    9.4257   43.9712  131.9553 C   0  0  0  0  0  0  0  0  0  0  0  0
   10.5042   43.6744  131.1039 C   0  0  0  0  0  0  0  0  0  0  0  0
   11.2186   42.5189  131.1390 C   0  0  0  0  0  0  0  0  0  0  0  0
   10.8885   41.5529  132.0598 C   0  0  0  0  0  0  0  0  0  0  0  0
   11.6342   40.3674  132.0828 O   0  0  0  0  0  0  0  0  0  0  0  0
    9.8534   41.7688  132.9207 C   0  0  0  0  0  0  0  0  0  0  0  0
    9.1512   42.9591  132.8523 C   0  0  0  0  0  0  0  0  0  0  0  0
   11.3186   39.5844  131.4944 H   0  0  0  0  0  0  0  0  0  0  0  0
    9.5964   45.9985  134.1051 C   0  0  0  0  0  0  0  0  0  0  0  0
    9.0641   46.7025  135.1892 F   0  0  0  0  0  0  0  0  0  0  0  0
   10.9654   45.9924  134.1108 F   0  0  0  0  0  0  0  0  0  0  0  0
    9.2174   44.7060  134.4939 F   0  0  0  0  0  0  0  0  0  0  0  0
    6.5879   51.3269  128.1007 C   0  0  0  0  0  0  0  0  0  0  0  0
    7.1601   52.6868  128.0176 C   0  0  0  0  0  0  0  0  0  0  0  0
    8.2141   52.9546  127.1731 O   0  0  0  0  0  0  0  0  0  0  0  0
    6.6785   53.5900  128.7206 O   0  0  0  0  0  0  0  0  0  0  0  0
    9.1519   53.1036  127.5222 H   0  0  0  0  0  0  0  0  0  0  0  0
  1  2  1  0  0  0
  2  3  1  0  0  0
  2  4  1  0  0  0
  4  5  1  0  0  0
  5  6  1  0  0  0
  6  7  1  0  0  0
  7  8  2  0  0  0
  8  9  1  0  0  0
  9 10  2  0  0  0
 10 11  1  0  0  0
 11 28  1  0  0  0
 28 29  1  0  0  0
 29 30  1  0  0  0
 29 31  2  0  0  0
 11 12  1  0  0  0
 12 13  1  0  0  0
 13 14  1  0  0  0
 14 15  2  0  0  0
  5 16  1  0  0  0
 16 17  2  0  0  0
 17 18  1  0  0  0
 18 19  2  0  0  0
 19 20  1  0  0  0
 19 21  1  0  0  0
 21 22  2  0  0  0
  4 24  1  0  0  0
 24 25  1  0  0  0
 24 26  1  0  0  0
 24 27  1  0  0  0
 15  2  1  0  0  0
 22 16  1  0  0  0
 15  7  1  0  0  0
 14 10  1  0  0  0
 30 32  1  0  0  0
 20 23  1  0  0  0
M  END
> <minimizedAffinity>
0.51123

> <CNNscore>
0.4026606977

> <CNNaffinity>
7.6082863808

> <CNN_VS>
3.0635578632

> <CNNaffinity_variance>
0.7832928300

$$$$
[H]OC(=O)C([H])([H])N1c2c([H])c([H])c3c(c2C([H])([H])C1([H])[H])C(C([H])([H])[H])(C([H])([H])[H])[C@]([H])(C(F)(F)F)[C@]([H])(c1c([H])c([H])c(O[H])c([H])c1[H])O3


 32 35  0  0  0  0  0  0  0  0999 V2000
    8.0096   47.6914  133.6022 C   0  0  0  0  0  0  0  0  0  0  0  0
    9.3535   47.1551  133.0349 C   0  0  0  0  0  0  0  0  0  0  0  0
   10.2583   47.3639  134.1829 C   0  0  0  0  0  0  0  0  0  0  0  0
    9.7902   47.9152  131.8015 C   0  0  0  0  0  0  0  0  0  0  0  0
    8.9387   47.7467  130.6112 C   0  0  0  0  0  0  0  0  0  0  0  0
    7.8942   46.7714  130.8261 O   0  0  0  0  0  0  0  0  0  0  0  0
    8.2474   45.6218  131.5055 C   0  0  0  0  0  0  0  0  0  0  0  0
    7.8220   44.3581  131.0599 C   0  0  0  0  0  0  0  0  0  0  0  0
    8.1763   43.2284  131.7277 C   0  0  0  0  0  0  0  0  0  0  0  0
    8.9650   43.3756  132.8515 C   0  0  0  0  0  0  0  0  0  0  0  0
    9.4503   42.3494  133.7229 N   0  0  0  0  0  0  0  0  0  0  0  0
   10.6162   42.9012  134.3642 C   0  0  0  0  0  0  0  0  0  0  0  0
   10.2028   44.3806  134.4714 C   0  0  0  0  0  0  0  0  0  0  0  0
    9.3927   44.6255  133.3026 C   0  0  0  0  0  0  0  0  0  0  0  0
    9.0402   45.7737  132.6394 C   0  0  0  0  0  0  0  0  0  0  0  0
    8.2635   48.8773  129.9784 C   0  0  0  0  0  0  0  0  0  0  0  0
    7.9667   50.0494  130.6956 C   0  0  0  0  0  0  0  0  0  0  0  0
    7.3498   51.1398  130.1693 C   0  0  0  0  0  0  0  0  0  0  0  0
    6.9773   51.1273  128.8460 C   0  0  0  0  0  0  0  0  0  0  0  0
    6.3419   52.2588  128.3188 O   0  0  0  0  0  0  0  0  0  0  0  0
    7.2321   50.0250  128.0851 C   0  0  0  0  0  0  0  0  0  0  0  0
    7.8626   48.9353  128.6593 C   0  0  0  0  0  0  0  0  0  0  0  0
    5.3150   52.3049  128.3665 H   0  0  0  0  0  0  0  0  0  0  0  0
   10.3413   49.2794  132.0477 C   0  0  0  0  0  0  0  0  0  0  0  0
    9.4046   50.1770  132.5683 F   0  0  0  0  0  0  0  0  0  0  0  0
   11.0518   49.8146  131.0070 F   0  0  0  0  0  0  0  0  0  0  0  0
   11.2297   49.2580  133.1320 F   0  0  0  0  0  0  0  0  0  0  0  0
    8.8476   41.0393  133.8824 C   0  0  0  0  0  0  0  0  0  0  0  0
    7.3769   41.1288  133.9957 C   0  0  0  0  0  0  0  0  0  0  0  0
    6.5970   41.3207  132.8773 O   0  0  0  0  0  0  0  0  0  0  0  0
    6.8489   41.0289  135.1151 O   0  0  0  0  0  0  0  0  0  0  0  0
    6.1532   42.2090  132.6833 H   0  0  0  0  0  0  0  0  0  0  0  0
  1  2  1  0  0  0
  2  3  1  0  0  0
  2  4  1  0  0  0
  4  5  1  0  0  0
  5  6  1  0  0  0
  6  7  1  0  0  0
  7  8  2  0  0  0
  8  9  1  0  0  0
  9 10  2  0  0  0
 10 11  1  0  0  0
 11 28  1  0  0  0
 28 29  1  0  0  0
 29 30  1  0  0  0
 29 31  2  0  0  0
 11 12  1  0  0  0
 12 13  1  0  0  0
 13 14  1  0  0  0
 14 15  2  0  0  0
  5 16  1  0  0  0
 16 17  2  0  0  0
 17 18  1  0  0  0
 18 19  2  0  0  0
 19 20  1  0  0  0
 19 21  1  0  0  0
 21 22  2  0  0  0
  4 24  1  0  0  0
 24 25  1  0  0  0
 24 26  1  0  0  0
 24 27  1  0  0  0
 15  2  1  0  0  0
 22 16  1  0  0  0
 15  7  1  0  0  0
 14 10  1  0  0  0
 30 32  1  0  0  0
 20 23  1  0  0  0
M  END
> <minimizedAffinity>
6.42971

> <CNNscore>
0.3082666099

> <CNNaffinity>
7.0034422874

> <CNN_VS>
2.1589274406

> <CNNaffinity_variance>
1.1679198742

$$$$
[H]OC(=O)C([H])([H])N1c2c([H])c([H])c3c(c2C([H])([H])C1([H])[H])C(C([H])([H])[H])(C([H])([H])[H])[C@]([H])(C(F)(F)F)[C@]([H])(c1c([H])c([H])c(O[H])c([H])c1[H])O3


 32 35  0  0  0  0  0  0  0  0999 V2000
    8.5355   46.3015  132.1304 C   0  0  0  0  0  0  0  0  0  0  0  0
    9.7852   47.1852  131.8604 C   0  0  0  0  0  0  0  0  0  0  0  0
   10.3498   47.3141  133.2186 C   0  0  0  0  0  0  0  0  0  0  0  0
    9.4131   48.5206  131.2535 C   0  0  0  0  0  0  0  0  0  0  0  0
    8.8513   48.4706  129.8926 C   0  0  0  0  0  0  0  0  0  0  0  0
    8.8763   47.1334  129.3451 O   0  0  0  0  0  0  0  0  0  0  0  0
   10.0170   46.3890  129.5743 C   0  0  0  0  0  0  0  0  0  0  0  0
   10.6113   45.6396  128.5442 C   0  0  0  0  0  0  0  0  0  0  0  0
   11.7373   44.9127  128.7719 C   0  0  0  0  0  0  0  0  0  0  0  0
   12.2661   44.9432  130.0470 C   0  0  0  0  0  0  0  0  0  0  0  0
   13.4236   44.2563  130.5332 N   0  0  0  0  0  0  0  0  0  0  0  0
   13.8682   45.0048  131.6808 C   0  0  0  0  0  0  0  0  0  0  0  0
   12.5176   45.4900  132.2389 C   0  0  0  0  0  0  0  0  0  0  0  0
   11.6838   45.6838  131.0771 C   0  0  0  0  0  0  0  0  0  0  0  0
   10.5460   46.4197  130.8614 C   0  0  0  0  0  0  0  0  0  0  0  0
    7.5107   48.9676  129.5919 C   0  0  0  0  0  0  0  0  0  0  0  0
    6.4463   48.0900  129.3222 C   0  0  0  0  0  0  0  0  0  0  0  0
    5.1753   48.4822  129.0440 C   0  0  0  0  0  0  0  0  0  0  0  0
    4.8773   49.8241  129.0167 C   0  0  0  0  0  0  0  0  0  0  0  0
    3.5628   50.2120  128.7278 O   0  0  0  0  0  0  0  0  0  0  0  0
    5.8582   50.7369  129.2688 C   0  0  0  0  0  0  0  0  0  0  0  0
    7.1397   50.2961  129.5481 C   0  0  0  0  0  0  0  0  0  0  0  0
    3.3098   50.3734  127.7435 H   0  0  0  0  0  0  0  0  0  0  0  0
    8.8122   49.5099  132.1944 C   0  0  0  0  0  0  0  0  0  0  0  0
    9.5677   49.7129  133.3528 F   0  0  0  0  0  0  0  0  0  0  0  0
    7.4841   49.3189  132.4667 F   0  0  0  0  0  0  0  0  0  0  0  0
    8.9000   50.8042  131.6627 F   0  0  0  0  0  0  0  0  0  0  0  0
   13.9870   43.0558  129.9448 C   0  0  0  0  0  0  0  0  0  0  0  0
   15.1101   43.3715  129.0378 C   0  0  0  0  0  0  0  0  0  0  0  0
   15.9998   42.3928  128.6551 O   0  0  0  0  0  0  0  0  0  0  0  0
   15.2442   44.5339  128.6224 O   0  0  0  0  0  0  0  0  0  0  0  0
   16.9410   42.3546  129.0243 H   0  0  0  0  0  0  0  0  0  0  0  0
  1  2  1  0  0  0
  2  3  1  0  0  0
  2  4  1  0  0  0
  4  5  1  0  0  0
  5  6  1  0  0  0
  6  7  1  0  0  0
  7  8  2  0  0  0
  8  9  1  0  0  0
  9 10  2  0  0  0
 10 11  1  0  0  0
 11 28  1  0  0  0
 28 29  1  0  0  0
 29 30  1  0  0  0
 29 31  2  0  0  0
 11 12  1  0  0  0
 12 13  1  0  0  0
 13 14  1  0  0  0
 14 15  2  0  0  0
  5 16  1  0  0  0
 16 17  2  0  0  0
 17 18  1  0  0  0
 18 19  2  0  0  0
 19 20  1  0  0  0
 19 21  1  0  0  0
 21 22  2  0  0  0
  4 24  1  0  0  0
 24 25  1  0  0  0
 24 26  1  0  0  0
 24 27  1  0  0  0
 15  2  1  0  0  0
 22 16  1  0  0  0
 15  7  1  0  0  0
 14 10  1  0  0  0
 30 32  1  0  0  0
 20 23  1  0  0  0
M  END
> <minimizedAffinity>
6.10121

> <CNNscore>
0.2894904315

> <CNNaffinity>
6.8454818726

> <CNN_VS>
1.9817014933

> <CNNaffinity_variance>
0.9001302719

$$$$
[H]OC(=O)C([H])([H])N1c2c([H])c([H])c3c(c2C([H])([H])C1([H])[H])C(C([H])([H])[H])(C([H])([H])[H])[C@]([H])(C(F)(F)F)[C@]([H])(c1c([H])c([H])c(O[H])c([H])c1[H])O3


 32 35  0  0  0  0  0  0  0  0999 V2000
    7.6049   45.9372  132.4600 C   0  0  0  0  0  0  0  0  0  0  0  0
    9.1558   45.8725  132.3813 C   0  0  0  0  0  0  0  0  0  0  0  0
    9.5039   45.5233  133.7731 C   0  0  0  0  0  0  0  0  0  0  0  0
    9.7554   47.1908  131.9426 C   0  0  0  0  0  0  0  0  0  0  0  0
    9.4580   47.6000  130.5590 C   0  0  0  0  0  0  0  0  0  0  0  0
    8.7323   46.5803  129.8366 O   0  0  0  0  0  0  0  0  0  0  0  0
    9.1423   45.2747  130.0241 C   0  0  0  0  0  0  0  0  0  0  0  0
    9.2817   44.3964  128.9353 C   0  0  0  0  0  0  0  0  0  0  0  0
    9.6911   43.1138  129.1229 C   0  0  0  0  0  0  0  0  0  0  0  0
    9.9616   42.7161  130.4172 C   0  0  0  0  0  0  0  0  0  0  0  0
   10.3873   41.4261  130.8675 N   0  0  0  0  0  0  0  0  0  0  0  0
   11.0456   41.6508  132.1288 C   0  0  0  0  0  0  0  0  0  0  0  0
   10.2133   42.8263  132.6735 C   0  0  0  0  0  0  0  0  0  0  0  0
    9.8264   43.5800  131.5053 C   0  0  0  0  0  0  0  0  0  0  0  0
    9.4117   44.8761  131.3302 C   0  0  0  0  0  0  0  0  0  0  0  0
    8.7499   48.8416  130.2563 C   0  0  0  0  0  0  0  0  0  0  0  0
    7.8808   48.9409  129.1559 C   0  0  0  0  0  0  0  0  0  0  0  0
    7.1851   50.0593  128.8214 C   0  0  0  0  0  0  0  0  0  0  0  0
    7.3188   51.1893  129.5930 C   0  0  0  0  0  0  0  0  0  0  0  0
    6.5954   52.3339  129.2347 O   0  0  0  0  0  0  0  0  0  0  0  0
    8.1442   51.1699  130.6782 C   0  0  0  0  0  0  0  0  0  0  0  0
    8.8348   50.0107  130.9846 C   0  0  0  0  0  0  0  0  0  0  0  0
    7.0360   53.0041  128.5900 H   0  0  0  0  0  0  0  0  0  0  0  0
    9.7685   48.2671  132.9753 C   0  0  0  0  0  0  0  0  0  0  0  0
    8.5113   48.5304  133.5270 F   0  0  0  0  0  0  0  0  0  0  0  0
   10.4270   49.4113  132.6124 F   0  0  0  0  0  0  0  0  0  0  0  0
   10.4130   47.8202  134.1374 F   0  0  0  0  0  0  0  0  0  0  0  0
   10.1714   40.1823  130.1526 C   0  0  0  0  0  0  0  0  0  0  0  0
    8.7315   39.9004  129.9765 C   0  0  0  0  0  0  0  0  0  0  0  0
    7.7846   40.8349  130.3315 O   0  0  0  0  0  0  0  0  0  0  0  0
    8.3823   38.8069  129.5030 O   0  0  0  0  0  0  0  0  0  0  0  0
    7.2117   40.7254  131.1582 H   0  0  0  0  0  0  0  0  0  0  0  0
  1  2  1  0  0  0
  2  3  1  0  0  0
  2  4  1  0  0  0
  4  5  1  0  0  0
  5  6  1  0  0  0
  6  7  1  0  0  0
  7  8  2  0  0  0
  8  9  1  0  0  0
  9 10  2  0  0  0
 10 11  1  0  0  0
 11 28  1  0  0  0
 28 29  1  0  0  0
 29 30  1  0  0  0
 29 31  2  0  0  0
 11 12  1  0  0  0
 12 13  1  0  0  0
 13 14  1  0  0  0
 14 15  2  0  0  0
  5 16  1  0  0  0
 16 17  2  0  0  0
 17 18  1  0  0  0
 18 19  2  0  0  0
 19 20  1  0  0  0
 19 21  1  0  0  0
 21 22  2  0  0  0
  4 24  1  0  0  0
 24 25  1  0  0  0
 24 26  1  0  0  0
 24 27  1  0  0  0
 15  2  1  0  0  0
 22 16  1  0  0  0
 15  7  1  0  0  0
 14 10  1  0  0  0
 30 32  1  0  0  0
 20 23  1  0  0  0
M  END
> <minimizedAffinity>
4.27192

> <CNNscore>
0.2738354504

> <CNNaffinity>
7.4055452347

> <CNN_VS>
2.0279006958

> <CNNaffinity_variance>
0.7562413812

$$$$
[H]OC(=O)C([H])([H])N1c2c([H])c([H])c3c(c2C([H])([H])C1([H])[H])C(C([H])([H])[H])(C([H])([H])[H])[C@]([H])(C(F)(F)F)[C@]([H])(c1c([H])c([H])c(O[H])c([H])c1[H])O3


 32 35  0  0  0  0  0  0  0  0999 V2000
    9.8894   48.4961  129.8632 C   0  0  0  0  0  0  0  0  0  0  0  0
    8.8835   48.7464  131.0212 C   0  0  0  0  0  0  0  0  0  0  0  0
    9.1326   50.1706  131.3208 C   0  0  0  0  0  0  0  0  0  0  0  0
    9.1504   47.8450  132.2070 C   0  0  0  0  0  0  0  0  0  0  0  0
    8.9134   46.4081  131.9846 C   0  0  0  0  0  0  0  0  0  0  0  0
    8.3452   46.1483  130.6815 O   0  0  0  0  0  0  0  0  0  0  0  0
    7.3608   47.0150  130.2485 C   0  0  0  0  0  0  0  0  0  0  0  0
    6.1872   46.5329  129.6430 C   0  0  0  0  0  0  0  0  0  0  0  0
    5.2178   47.3885  129.2233 C   0  0  0  0  0  0  0  0  0  0  0  0
    5.4347   48.7384  129.4165 C   0  0  0  0  0  0  0  0  0  0  0  0
    4.5791   49.8254  129.0499 N   0  0  0  0  0  0  0  0  0  0  0  0
    4.9445   50.9182  129.9144 C   0  0  0  0  0  0  0  0  0  0  0  0
    6.4556   50.6630  130.0647 C   0  0  0  0  0  0  0  0  0  0  0  0
    6.5964   49.2276  130.0163 C   0  0  0  0  0  0  0  0  0  0  0  0
    7.5836   48.3752  130.4422 C   0  0  0  0  0  0  0  0  0  0  0  0
    9.9789   45.4187  132.1268 C   0  0  0  0  0  0  0  0  0  0  0  0
   10.1262   44.6632  133.3031 C   0  0  0  0  0  0  0  0  0  0  0  0
   11.0868   43.7224  133.4998 C   0  0  0  0  0  0  0  0  0  0  0  0
   11.9931   43.4681  132.4978 C   0  0  0  0  0  0  0  0  0  0  0  0
   12.9774   42.4958  132.7164 O   0  0  0  0  0  0  0  0  0  0  0  0
   11.9138   44.1613  131.3263 C   0  0  0  0  0  0  0  0  0  0  0  0
   10.9204   45.1111  131.1660 C   0  0  0  0  0  0  0  0  0  0  0  0
   13.8708   42.7945  133.1305 H   0  0  0  0  0  0  0  0  0  0  0  0
   10.3317   48.2116  133.0410 C   0  0  0  0  0  0  0  0  0  0  0  0
   10.3116   49.5349  133.4910 F   0  0  0  0  0  0  0  0  0  0  0  0
   11.5454   47.8600  132.5139 F   0  0  0  0  0  0  0  0  0  0  0  0
   10.2675   47.5704  134.2860 F   0  0  0  0  0  0  0  0  0  0  0  0
    3.5675   49.7744  128.0112 C   0  0  0  0  0  0  0  0  0  0  0  0
    3.0701   51.1237  127.6712 C   0  0  0  0  0  0  0  0  0  0  0  0
    3.9198   52.2072  127.6771 O   0  0  0  0  0  0  0  0  0  0  0  0
    1.8724   51.2714  127.3789 O   0  0  0  0  0  0  0  0  0  0  0  0
    3.8872   52.9058  128.4083 H   0  0  0  0  0  0  0  0  0  0  0  0
  1  2  1  0  0  0
  2  3  1  0  0  0
  2  4  1  0  0  0
  4  5  1  0  0  0
  5  6  1  0  0  0
  6  7  1  0  0  0
  7  8  2  0  0  0
  8  9  1  0  0  0
  9 10  2  0  0  0
 10 11  1  0  0  0
 11 28  1  0  0  0
 28 29  1  0  0  0
 29 30  1  0  0  0
 29 31  2  0  0  0
 11 12  1  0  0  0
 12 13  1  0  0  0
 13 14  1  0  0  0
 14 15  2  0  0  0
  5 16  1  0  0  0
 16 17  2  0  0  0
 17 18  1  0  0  0
 18 19  2  0  0  0
 19 20  1  0  0  0
 19 21  1  0  0  0
 21 22  2  0  0  0
  4 24  1  0  0  0
 24 25  1  0  0  0
 24 26  1  0  0  0
 24 27  1  0  0  0
 15  2  1  0  0  0
 22 16  1  0  0  0
 15  7  1  0  0  0
 14 10  1  0  0  0
 30 32  1  0  0  0
 20 23  1  0  0  0
M  END
> <minimizedAffinity>
5.00861

> <CNNscore>
0.2308802009

> <CNNaffinity>
7.2015967369

> <CNN_VS>
1.6627061367

> <CNNaffinity_variance>
0.2439606637

$$$$
[H]OC(=O)C([H])([H])N1c2c([H])c([H])c3c(c2C([H])([H])C1([H])[H])C(C([H])([H])[H])(C([H])([H])[H])[C@]([H])(C(F)(F)F)[C@]([H])(c1c([H])c([H])c(O[H])c([H])c1[H])O3


 32 35  0  0  0  0  0  0  0  0999 V2000
   10.8459   47.2664  130.6082 C   0  0  0  0  0  0  0  0  0  0  0  0
    9.7751   47.6311  131.6739 C   0  0  0  0  0  0  0  0  0  0  0  0
   10.3735   48.8327  132.2890 C   0  0  0  0  0  0  0  0  0  0  0  0
    9.5624   46.5105  132.6684 C   0  0  0  0  0  0  0  0  0  0  0  0
    8.9584   45.2807  132.1270 C   0  0  0  0  0  0  0  0  0  0  0  0
    8.5693   45.4321  130.7436 O   0  0  0  0  0  0  0  0  0  0  0  0
    7.9685   46.6256  130.3937 C   0  0  0  0  0  0  0  0  0  0  0  0
    6.8262   46.6482  129.5748 C   0  0  0  0  0  0  0  0  0  0  0  0
    6.2341   47.8244  129.2372 C   0  0  0  0  0  0  0  0  0  0  0  0
    6.7987   48.9842  129.7298 C   0  0  0  0  0  0  0  0  0  0  0  0
    6.3722   50.3316  129.5047 N   0  0  0  0  0  0  0  0  0  0  0  0
    6.8875   51.0942  130.6128 C   0  0  0  0  0  0  0  0  0  0  0  0
    8.2102   50.3502  130.8736 C   0  0  0  0  0  0  0  0  0  0  0  0
    7.9329   48.9730  130.5436 C   0  0  0  0  0  0  0  0  0  0  0  0
    8.5416   47.7931  130.8896 C   0  0  0  0  0  0  0  0  0  0  0  0
    9.6491   43.9943  132.1777 C   0  0  0  0  0  0  0  0  0  0  0  0
   10.5217   43.5893  131.1527 C   0  0  0  0  0  0  0  0  0  0  0  0
   11.2020   42.4130  131.1394 C   0  0  0  0  0  0  0  0  0  0  0  0
   11.0476   41.5360  132.1868 C   0  0  0  0  0  0  0  0  0  0  0  0
   11.7553   40.3275  132.1578 O   0  0  0  0  0  0  0  0  0  0  0  0
   10.2175   41.8593  133.2190 C   0  0  0  0  0  0  0  0  0  0  0  0
    9.5431   43.0672  133.1944 C   0  0  0  0  0  0  0  0  0  0  0  0
   11.3077   39.5138  131.7148 H   0  0  0  0  0  0  0  0  0  0  0  0
   10.6395   46.3403  133.6863 C   0  0  0  0  0  0  0  0  0  0  0  0
   10.9589   47.5186  134.3673 F   0  0  0  0  0  0  0  0  0  0  0  0
   11.7529   45.6756  133.2470 F   0  0  0  0  0  0  0  0  0  0  0  0
   10.1675   45.5950  134.7758 F   0  0  0  0  0  0  0  0  0  0  0  0
    5.5814   50.7759  128.3724 C   0  0  0  0  0  0  0  0  0  0  0  0
    4.1450   50.4888  128.5675 C   0  0  0  0  0  0  0  0  0  0  0  0
    3.1987   51.0447  127.7360 O   0  0  0  0  0  0  0  0  0  0  0  0
    3.7982   49.7379  129.4936 O   0  0  0  0  0  0  0  0  0  0  0  0
    2.5957   51.7969  128.0429 H   0  0  0  0  0  0  0  0  0  0  0  0
  1  2  1  0  0  0
  2  3  1  0  0  0
  2  4  1  0  0  0
  4  5  1  0  0  0
  5  6  1  0  0  0
  6  7  1  0  0  0
  7  8  2  0  0  0
  8  9  1  0  0  0
  9 10  2  0  0  0
 10 11  1  0  0  0
 11 28  1  0  0  0
 28 29  1  0  0  0
 29 30  1  0  0  0
 29 31  2  0  0  0
 11 12  1  0  0  0
 12 13  1  0  0  0
 13 14  1  0  0  0
 14 15  2  0  0  0
  5 16  1  0  0  0
 16 17  2  0  0  0
 17 18  1  0  0  0
 18 19  2  0  0  0
 19 20  1  0  0  0
 19 21  1  0  0  0
 21 22  2  0  0  0
  4 24  1  0  0  0
 24 25  1  0  0  0
 24 26  1  0  0  0
 24 27  1  0  0  0
 15  2  1  0  0  0
 22 16  1  0  0  0
 15  7  1  0  0  0
 14 10  1  0  0  0
 30 32  1  0  0  0
 20 23  1  0  0  0
M  END
> <minimizedAffinity>
2.70098

> <CNNscore>
0.2249793708

> <CNNaffinity>
7.4782190323

> <CNN_VS>
1.6824450493

> <CNNaffinity_variance>
0.7337059379

$$$$
[H]OC(=O)C([H])([H])N1c2c([H])c([H])c3c(c2C([H])([H])C1([H])[H])C(C([H])([H])[H])(C([H])([H])[H])[C@]([H])(C(F)(F)F)[C@]([H])(c1c([H])c([H])c(O[H])c([H])c1[H])O3


 32 35  0  0  0  0  0  0  0  0999 V2000
    8.1915   47.6748  133.2711 C   0  0  0  0  0  0  0  0  0  0  0  0
    9.5475   48.0956  132.6388 C   0  0  0  0  0  0  0  0  0  0  0  0
    9.9979   49.1381  133.5824 C   0  0  0  0  0  0  0  0  0  0  0  0
    9.3762   48.6187  131.2292 C   0  0  0  0  0  0  0  0  0  0  0  0
    8.9372   47.6301  130.2290 C   0  0  0  0  0  0  0  0  0  0  0  0
    8.8687   46.2959  130.7798 O   0  0  0  0  0  0  0  0  0  0  0  0
    9.8982   45.9161  131.6187 C   0  0  0  0  0  0  0  0  0  0  0  0
   10.4998   44.6512  131.4996 C   0  0  0  0  0  0  0  0  0  0  0  0
   11.5166   44.2830  132.3232 C   0  0  0  0  0  0  0  0  0  0  0  0
   11.9286   45.1976  133.2721 C   0  0  0  0  0  0  0  0  0  0  0  0
   12.9577   45.0395  134.2539 N   0  0  0  0  0  0  0  0  0  0  0  0
   13.3743   46.3741  134.6007 C   0  0  0  0  0  0  0  0  0  0  0  0
   12.0383   47.1280  134.4670 C   0  0  0  0  0  0  0  0  0  0  0  0
   11.3381   46.4561  133.3990 C   0  0  0  0  0  0  0  0  0  0  0  0
   10.3093   46.8392  132.5760 C   0  0  0  0  0  0  0  0  0  0  0  0
    7.6898   47.7866  129.4845 C   0  0  0  0  0  0  0  0  0  0  0  0
    6.4400   47.7162  130.1241 C   0  0  0  0  0  0  0  0  0  0  0  0
    5.2435   47.8608  129.4962 C   0  0  0  0  0  0  0  0  0  0  0  0
    5.2197   48.0931  128.1414 C   0  0  0  0  0  0  0  0  0  0  0  0
    3.9785   48.2393  127.5091 O   0  0  0  0  0  0  0  0  0  0  0  0
    6.3929   48.1749  127.4515 C   0  0  0  0  0  0  0  0  0  0  0  0
    7.5900   48.0220  128.1284 C   0  0  0  0  0  0  0  0  0  0  0  0
    3.5212   47.3958  127.1372 H   0  0  0  0  0  0  0  0  0  0  0  0
    8.8017   49.9908  131.1173 C   0  0  0  0  0  0  0  0  0  0  0  0
    8.4409   50.3431  129.8136 F   0  0  0  0  0  0  0  0  0  0  0  0
    9.5221   50.9739  131.7411 F   0  0  0  0  0  0  0  0  0  0  0  0
    7.5283   50.0355  131.7019 F   0  0  0  0  0  0  0  0  0  0  0  0
   13.4406   43.7668  134.7557 C   0  0  0  0  0  0  0  0  0  0  0  0
   13.7784   42.8419  133.6537 C   0  0  0  0  0  0  0  0  0  0  0  0
   13.2293   43.0106  132.4024 O   0  0  0  0  0  0  0  0  0  0  0  0
   14.5660   41.9063  133.8688 O   0  0  0  0  0  0  0  0  0  0  0  0
   12.5055   42.3970  132.0511 H   0  0  0  0  0  0  0  0  0  0  0  0
  1  2  1  0  0  0
  2  3  1  0  0  0
  2  4  1  0  0  0
  4  5  1  0  0  0
  5  6  1  0  0  0
  6  7  1  0  0  0
  7  8  2  0  0  0
  8  9  1  0  0  0
  9 10  2  0  0  0
 10 11  1  0  0  0
 11 28  1  0  0  0
 28 29  1  0  0  0
 29 30  1  0  0  0
 29 31  2  0  0  0
 11 12  1  0  0  0
 12 13  1  0  0  0
 13 14  1  0  0  0
 14 15  2  0  0  0
  5 16  1  0  0  0
 16 17  2  0  0  0
 17 18  1  0  0  0
 18 19  2  0  0  0
 19 20  1  0  0  0
 19 21  1  0  0  0
 21 22  2  0  0  0
  4 24  1  0  0  0
 24 25  1  0  0  0
 24 26  1  0  0  0
 24 27  1  0  0  0
 15  2  1  0  0  0
 22 16  1  0  0  0
 15  7  1  0  0  0
 14 10  1  0  0  0
 30 32  1  0  0  0
 20 23  1  0  0  0
M  END
> <minimizedAffinity>
19.42418

> <CNNscore>
0.1799286455

> <CNNaffinity>
6.8117995262

> <CNN_VS>
1.2256379128

> <CNNaffinity_variance>
1.4920712709

$$$$
[H]Oc1c([H])c([H])c2c(c1[H])C(=O)N(C1([H])Sc3c([H])c(Cl)c(O[H])c([H])c3C(C([H])([H])[H])(C([H])([H])[H])OC1([H])[H])C2=S


 29 32  0  0  0  0  0  0  0  0999 V2000
    8.3916   45.2533  128.8116 C   0  0  0  0  0  0  0  0  0  0  0  0
    9.4253   46.3131  128.9369 C   0  0  0  0  0  0  0  0  0  0  0  0
   10.0369   46.5702  127.5620 C   0  0  0  0  0  0  0  0  0  0  0  0
   10.4545   46.0208  129.8039 O   0  0  0  0  0  0  0  0  0  0  0  0
   10.1531   45.1463  130.8148 C   0  0  0  0  0  0  0  0  0  0  0  0
    9.5520   45.8017  132.0339 C   0  0  0  0  0  0  0  0  0  0  0  0
    9.7923   47.6230  132.0162 S   0  0  0  0  0  0  0  0  0  0  0  0
    8.9031   48.2209  130.5896 C   0  0  0  0  0  0  0  0  0  0  0  0
    8.2811   49.4198  130.8411 C   0  0  0  0  0  0  0  0  0  0  0  0
    7.5307   50.0532  129.8435 C   0  0  0  0  0  0  0  0  0  0  0  0
    6.7241   51.5697  130.1078 Cl  0  0  0  0  0  0  0  0  0  0  0  0
    7.4442   49.4208  128.6001 C   0  0  0  0  0  0  0  0  0  0  0  0
    6.6985   50.0477  127.6047 O   0  0  0  0  0  0  0  0  0  0  0  0
    8.0696   48.2191  128.3535 C   0  0  0  0  0  0  0  0  0  0  0  0
    8.8013   47.6198  129.3555 C   0  0  0  0  0  0  0  0  0  0  0  0
    6.2380   50.9126  127.7541 H   0  0  0  0  0  0  0  0  0  0  0  0
   10.0246   45.2397  133.2639 N   0  0  0  0  0  0  0  0  0  0  0  0
    9.6213   45.6797  134.5534 C   0  0  0  0  0  0  0  0  0  0  0  0
    8.5636   46.8848  134.9110 S   0  0  0  0  0  0  0  0  0  0  0  0
   10.2985   44.8873  135.5636 C   0  0  0  0  0  0  0  0  0  0  0  0
   10.2505   44.9191  136.9388 C   0  0  0  0  0  0  0  0  0  0  0  0
   11.0158   44.0308  137.6482 C   0  0  0  0  0  0  0  0  0  0  0  0
   11.8142   43.1281  136.9811 C   0  0  0  0  0  0  0  0  0  0  0  0
   12.5694   42.2507  137.7345 O   0  0  0  0  0  0  0  0  0  0  0  0
   11.8662   43.0916  135.6088 C   0  0  0  0  0  0  0  0  0  0  0  0
   11.0916   43.9909  134.8697 C   0  0  0  0  0  0  0  0  0  0  0  0
   10.9609   44.1648  133.4291 C   0  0  0  0  0  0  0  0  0  0  0  0
   11.5423   43.5145  132.5211 O   0  0  0  0  0  0  0  0  0  0  0  0
   12.2130   41.3409  138.0182 H   0  0  0  0  0  0  0  0  0  0  0  0
  1  2  1  0  0  0
  2  3  1  0  0  0
  2  4  1  0  0  0
  4  5  1  0  0  0
  5  6  1  0  0  0
  6  7  1  0  0  0
  7  8  1  0  0  0
  8  9  2  0  0  0
  9 10  1  0  0  0
 10 11  1  0  0  0
 10 12  2  0  0  0
 12 13  1  0  0  0
 12 14  1  0  0  0
 14 15  2  0  0  0
  6 17  1  0  0  0
 17 18  1  0  0  0
 18 19  2  0  0  0
 18 20  1  0  0  0
 20 21  2  0  0  0
 21 22  1  0  0  0
 22 23  2  0  0  0
 23 24  1  0  0  0
 23 25  1  0  0  0
 25 26  2  0  0  0
 26 27  1  0  0  0
 27 28  2  0  0  0
 15  2  1  0  0  0
 27 17  1  0  0  0
 15  8  1  0  0  0
 26 20  1  0  0  0
 13 16  1  0  0  0
 24 29  1  0  0  0
M  END
> <minimizedAffinity>
12.07098

> <CNNscore>
0.4918536544

> <CNNaffinity>
7.3781380653

> <CNN_VS>
3.6289641857

> <CNNaffinity_variance>
1.4484232664

$$$$
[H]Oc1c([H])c([H])c2c(c1[H])C(=O)N(C1([H])Sc3c([H])c(Cl)c(O[H])c([H])c3C(C([H])([H])[H])(C([H])([H])[H])OC1([H])[H])C2=S


 29 32  0  0  0  0  0  0  0  0999 V2000
   10.9355   49.5245  130.9075 C   0  0  0  0  0  0  0  0  0  0  0  0
    9.7778   49.2967  131.8105 C   0  0  0  0  0  0  0  0  0  0  0  0
    9.6883   50.4563  132.7993 C   0  0  0  0  0  0  0  0  0  0  0  0
    9.8306   48.1295  132.5393 O   0  0  0  0  0  0  0  0  0  0  0  0
   10.5563   47.1098  131.9813 C   0  0  0  0  0  0  0  0  0  0  0  0
    9.7730   46.2583  131.0126 C   0  0  0  0  0  0  0  0  0  0  0  0
    7.9637   46.5336  131.1727 S   0  0  0  0  0  0  0  0  0  0  0  0
    7.6870   48.2410  130.7345 C   0  0  0  0  0  0  0  0  0  0  0  0
    6.5264   48.4025  130.0173 C   0  0  0  0  0  0  0  0  0  0  0  0
    6.1334   49.6728  129.5797 C   0  0  0  0  0  0  0  0  0  0  0  0
    4.6758   49.9334  128.6699 Cl  0  0  0  0  0  0  0  0  0  0  0  0
    6.9620   50.7518  129.9001 C   0  0  0  0  0  0  0  0  0  0  0  0
    6.5745   52.0175  129.4666 O   0  0  0  0  0  0  0  0  0  0  0  0
    8.1242   50.5842  130.6192 C   0  0  0  0  0  0  0  0  0  0  0  0
    8.4847   49.3214  131.0363 C   0  0  0  0  0  0  0  0  0  0  0  0
    5.7435   52.1675  128.9477 H   0  0  0  0  0  0  0  0  0  0  0  0
   10.0845   44.8635  131.1124 N   0  0  0  0  0  0  0  0  0  0  0  0
    9.6520   43.8774  130.1854 C   0  0  0  0  0  0  0  0  0  0  0  0
    8.7331   44.1048  128.8426 S   0  0  0  0  0  0  0  0  0  0  0  0
   10.1517   42.5789  130.5990 C   0  0  0  0  0  0  0  0  0  0  0  0
   10.0131   41.3248  130.0490 C   0  0  0  0  0  0  0  0  0  0  0  0
   10.6088   40.2595  130.6721 C   0  0  0  0  0  0  0  0  0  0  0  0
   11.3305   40.4575  131.8285 C   0  0  0  0  0  0  0  0  0  0  0  0
   11.9145   39.3566  132.4242 O   0  0  0  0  0  0  0  0  0  0  0  0
   11.4723   41.7067  132.3822 C   0  0  0  0  0  0  0  0  0  0  0  0
   10.8710   42.8046  131.7591 C   0  0  0  0  0  0  0  0  0  0  0  0
   10.8634   44.2140  132.1277 C   0  0  0  0  0  0  0  0  0  0  0  0
   11.4191   44.7510  133.1218 O   0  0  0  0  0  0  0  0  0  0  0  0
   12.8569   39.0542  132.1883 H   0  0  0  0  0  0  0  0  0  0  0  0
  1  2  1  0  0  0
  2  3  1  0  0  0
  2  4  1  0  0  0
  4  5  1  0  0  0
  5  6  1  0  0  0
  6  7  1  0  0  0
  7  8  1  0  0  0
  8  9  2  0  0  0
  9 10  1  0  0  0
 10 11  1  0  0  0
 10 12  2  0  0  0
 12 13  1  0  0  0
 12 14  1  0  0  0
 14 15  2  0  0  0
  6 17  1  0  0  0
 17 18  1  0  0  0
 18 19  2  0  0  0
 18 20  1  0  0  0
 20 21  2  0  0  0
 21 22  1  0  0  0
 22 23  2  0  0  0
 23 24  1  0  0  0
 23 25  1  0  0  0
 25 26  2  0  0  0
 26 27  1  0  0  0
 27 28  2  0  0  0
 15  2  1  0  0  0
 27 17  1  0  0  0
 15  8  1  0  0  0
 26 20  1  0  0  0
 13 16  1  0  0  0
 24 29  1  0  0  0
M  END
> <minimizedAffinity>
7.34090

> <CNNscore>
0.4600228965

> <CNNaffinity>
7.4210205078

> <CNN_VS>
3.4138393402

> <CNNaffinity_variance>
1.6217960119

$$$$
[H]Oc1c([H])c([H])c2c(c1[H])C(=O)N(C1([H])Sc3c([H])c(Cl)c(O[H])c([H])c3C(C([H])([H])[H])(C([H])([H])[H])OC1([H])[H])C2=S


 29 32  0  0  0  0  0  0  0  0999 V2000
    8.1565   44.0507  131.2262 C   0  0  0  0  0  0  0  0  0  0  0  0
    8.8485   44.8862  130.2110 C   0  0  0  0  0  0  0  0  0  0  0  0
    8.8160   44.1591  128.8691 C   0  0  0  0  0  0  0  0  0  0  0  0
   10.1638   45.1769  130.4968 O   0  0  0  0  0  0  0  0  0  0  0  0
   10.4983   45.1840  131.8256 C   0  0  0  0  0  0  0  0  0  0  0  0
   10.2448   46.5021  132.5149 C   0  0  0  0  0  0  0  0  0  0  0  0
    9.9782   47.8615  131.3082 S   0  0  0  0  0  0  0  0  0  0  0  0
    8.5002   47.4327  130.4053 C   0  0  0  0  0  0  0  0  0  0  0  0
    7.7271   48.5364  130.1374 C   0  0  0  0  0  0  0  0  0  0  0  0
    6.5230   48.4063  129.4357 C   0  0  0  0  0  0  0  0  0  0  0  0
    5.5075   49.7684  129.0701 Cl  0  0  0  0  0  0  0  0  0  0  0  0
    6.1487   47.1232  129.0266 C   0  0  0  0  0  0  0  0  0  0  0  0
    4.9512   46.9894  128.3280 O   0  0  0  0  0  0  0  0  0  0  0  0
    6.9273   46.0204  129.2978 C   0  0  0  0  0  0  0  0  0  0  0  0
    8.1076   46.1803  129.9906 C   0  0  0  0  0  0  0  0  0  0  0  0
    4.3711   47.7653  128.1189 H   0  0  0  0  0  0  0  0  0  0  0  0
   11.2691   46.8509  133.4537 N   0  0  0  0  0  0  0  0  0  0  0  0
   11.2867   48.0530  134.2110 C   0  0  0  0  0  0  0  0  0  0  0  0
   10.1798   49.2667  134.1823 S   0  0  0  0  0  0  0  0  0  0  0  0
   12.4676   48.0706  135.0547 C   0  0  0  0  0  0  0  0  0  0  0  0
   12.9355   48.9970  135.9588 C   0  0  0  0  0  0  0  0  0  0  0  0
   14.1053   48.7396  136.6245 C   0  0  0  0  0  0  0  0  0  0  0  0
   14.7893   47.5690  136.3814 C   0  0  0  0  0  0  0  0  0  0  0  0
   15.9640   47.3492  137.0738 O   0  0  0  0  0  0  0  0  0  0  0  0
   14.3273   46.6406  135.4803 C   0  0  0  0  0  0  0  0  0  0  0  0
   13.1352   46.8875  134.7925 C   0  0  0  0  0  0  0  0  0  0  0  0
   12.4325   46.0854  133.7999 C   0  0  0  0  0  0  0  0  0  0  0  0
   12.7697   44.9622  133.3416 O   0  0  0  0  0  0  0  0  0  0  0  0
   15.9773   46.8735  137.9730 H   0  0  0  0  0  0  0  0  0  0  0  0
  1  2  1  0  0  0
  2  3  1  0  0  0
  2  4  1  0  0  0
  4  5  1  0  0  0
  5  6  1  0  0  0
  6  7  1  0  0  0
  7  8  1  0  0  0
  8  9  2  0  0  0
  9 10  1  0  0  0
 10 11  1  0  0  0
 10 12  2  0  0  0
 12 13  1  0  0  0
 12 14  1  0  0  0
 14 15  2  0  0  0
  6 17  1  0  0  0
 17 18  1  0  0  0
 18 19  2  0  0  0
 18 20  1  0  0  0
 20 21  2  0  0  0
 21 22  1  0  0  0
 22 23  2  0  0  0
 23 24  1  0  0  0
 23 25  1  0  0  0
 25 26  2  0  0  0
 26 27  1  0  0  0
 27 28  2  0  0  0
 15  2  1  0  0  0
 27 17  1  0  0  0
 15  8  1  0  0  0
 26 20  1  0  0  0
 13 16  1  0  0  0
 24 29  1  0  0  0
M  END
> <minimizedAffinity>
13.21205

> <CNNscore>
0.4138664007

> <CNNaffinity>
7.1506347656

> <CNN_VS>
2.9594075680

> <CNNaffinity_variance>
1.8104355335

$$$$
[H]Oc1c([H])c([H])c2c(c1[H])C(=O)N(C1([H])Sc3c([H])c(Cl)c(O[H])c([H])c3C(C([H])([H])[H])(C([H])([H])[H])OC1([H])[H])C2=S


 29 32  0  0  0  0  0  0  0  0999 V2000
   11.1638   49.3416  130.1648 C   0  0  0  0  0  0  0  0  0  0  0  0
   10.1044   49.4255  131.2031 C   0  0  0  0  0  0  0  0  0  0  0  0
   10.2177   50.7709  131.9155 C   0  0  0  0  0  0  0  0  0  0  0  0
   10.1526   48.4393  132.1629 O   0  0  0  0  0  0  0  0  0  0  0  0
   10.7296   47.2580  131.7765 C   0  0  0  0  0  0  0  0  0  0  0  0
    9.7775   46.3028  131.0998 C   0  0  0  0  0  0  0  0  0  0  0  0
    8.0248   46.7834  131.3687 S   0  0  0  0  0  0  0  0  0  0  0  0
    7.8294   48.3784  130.5933 C   0  0  0  0  0  0  0  0  0  0  0  0
    6.6092   48.4988  129.9734 C   0  0  0  0  0  0  0  0  0  0  0  0
    6.2655   49.6804  129.3062 C   0  0  0  0  0  0  0  0  0  0  0  0
    4.7365   49.8859  128.5061 Cl  0  0  0  0  0  0  0  0  0  0  0  0
    7.2048   50.7154  129.2992 C   0  0  0  0  0  0  0  0  0  0  0  0
    6.8667   51.8929  128.6364 O   0  0  0  0  0  0  0  0  0  0  0  0
    8.4264   50.5894  129.9221 C   0  0  0  0  0  0  0  0  0  0  0  0
    8.7361   49.4138  130.5709 C   0  0  0  0  0  0  0  0  0  0  0  0
    5.9951   52.0114  128.1798 H   0  0  0  0  0  0  0  0  0  0  0  0
    9.9920   44.9368  131.4744 N   0  0  0  0  0  0  0  0  0  0  0  0
   10.3552   43.9047  130.5679 C   0  0  0  0  0  0  0  0  0  0  0  0
   10.6016   44.0393  128.9492 S   0  0  0  0  0  0  0  0  0  0  0  0
   10.4867   42.6543  131.2933 C   0  0  0  0  0  0  0  0  0  0  0  0
   10.8152   41.3835  130.8789 C   0  0  0  0  0  0  0  0  0  0  0  0
   10.8630   40.3765  131.8072 C   0  0  0  0  0  0  0  0  0  0  0  0
   10.5842   40.6482  133.1284 C   0  0  0  0  0  0  0  0  0  0  0  0
   10.6438   39.6044  134.0310 O   0  0  0  0  0  0  0  0  0  0  0  0
   10.2558   41.9144  133.5480 C   0  0  0  0  0  0  0  0  0  0  0  0
   10.2025   42.9535  132.6138 C   0  0  0  0  0  0  0  0  0  0  0  0
    9.8863   44.3651  132.7864 C   0  0  0  0  0  0  0  0  0  0  0  0
    9.5846   44.9596  133.8545 O   0  0  0  0  0  0  0  0  0  0  0  0
   11.5020   39.3678  134.5237 H   0  0  0  0  0  0  0  0  0  0  0  0
  1  2  1  0  0  0
  2  3  1  0  0  0
  2  4  1  0  0  0
  4  5  1  0  0  0
  5  6  1  0  0  0
  6  7  1  0  0  0
  7  8  1  0  0  0
  8  9  2  0  0  0
  9 10  1  0  0  0
 10 11  1  0  0  0
 10 12  2  0  0  0
 12 13  1  0  0  0
 12 14  1  0  0  0
 14 15  2  0  0  0
  6 17  1  0  0  0
 17 18  1  0  0  0
 18 19  2  0  0  0
 18 20  1  0  0  0
 20 21  2  0  0  0
 21 22  1  0  0  0
 22 23  2  0  0  0
 23 24  1  0  0  0
 23 25  1  0  0  0
 25 26  2  0  0  0
 26 27  1  0  0  0
 27 28  2  0  0  0
 15  2  1  0  0  0
 27 17  1  0  0  0
 15  8  1  0  0  0
 26 20  1  0  0  0
 13 16  1  0  0  0
 24 29  1  0  0  0
M  END
> <minimizedAffinity>
15.51364

> <CNNscore>
0.3813847601

> <CNNaffinity>
7.3284783363

> <CNN_VS>
2.7949700356

> <CNNaffinity_variance>
1.7337543964

$$$$
[H]Oc1c([H])c([H])c2c(c1[H])C(=O)N(C1([H])Sc3c([H])c(Cl)c(O[H])c([H])c3C(C([H])([H])[H])(C([H])([H])[H])OC1([H])[H])C2=S


 29 32  0  0  0  0  0  0  0  0999 V2000
   12.2773   44.6352  131.2750 C   0  0  0  0  0  0  0  0  0  0  0  0
   10.9921   44.0234  131.7008 C   0  0  0  0  0  0  0  0  0  0  0  0
   11.0947   42.5075  131.5527 C   0  0  0  0  0  0  0  0  0  0  0  0
    9.8878   44.4387  130.9907 O   0  0  0  0  0  0  0  0  0  0  0  0
    9.9732   45.6861  130.4301 C   0  0  0  0  0  0  0  0  0  0  0  0
    9.5727   46.8051  131.3599 C   0  0  0  0  0  0  0  0  0  0  0  0
    8.6645   46.1781  132.8286 S   0  0  0  0  0  0  0  0  0  0  0  0
    9.8139   45.1335  133.7067 C   0  0  0  0  0  0  0  0  0  0  0  0
    9.6883   45.2676  135.0682 C   0  0  0  0  0  0  0  0  0  0  0  0
   10.5049   44.5290  135.9325 C   0  0  0  0  0  0  0  0  0  0  0  0
   10.3879   44.6599  137.6615 Cl  0  0  0  0  0  0  0  0  0  0  0  0
   11.4388   43.6629  135.3569 C   0  0  0  0  0  0  0  0  0  0  0  0
   12.2533   42.9260  136.2134 O   0  0  0  0  0  0  0  0  0  0  0  0
   11.5604   43.5324  133.9915 C   0  0  0  0  0  0  0  0  0  0  0  0
   10.7424   44.2730  133.1663 C   0  0  0  0  0  0  0  0  0  0  0  0
   12.1876   42.9998  137.1996 H   0  0  0  0  0  0  0  0  0  0  0  0
    8.8273   47.8388  130.7057 N   0  0  0  0  0  0  0  0  0  0  0  0
    7.5074   47.6803  130.2040 C   0  0  0  0  0  0  0  0  0  0  0  0
    6.5747   46.3289  130.2586 S   0  0  0  0  0  0  0  0  0  0  0  0
    7.0683   48.9286  129.6075 C   0  0  0  0  0  0  0  0  0  0  0  0
    5.8895   49.2876  128.9942 C   0  0  0  0  0  0  0  0  0  0  0  0
    5.7548   50.5648  128.5160 C   0  0  0  0  0  0  0  0  0  0  0  0
    6.7909   51.4617  128.6548 C   0  0  0  0  0  0  0  0  0  0  0  0
    6.6133   52.7385  128.1587 O   0  0  0  0  0  0  0  0  0  0  0  0
    7.9696   51.1092  129.2659 C   0  0  0  0  0  0  0  0  0  0  0  0
    8.1237   49.8101  129.7595 C   0  0  0  0  0  0  0  0  0  0  0  0
    9.2501   49.1840  130.4391 C   0  0  0  0  0  0  0  0  0  0  0  0
   10.3576   49.7066  130.7314 O   0  0  0  0  0  0  0  0  0  0  0  0
    6.2244   53.4872  128.7274 H   0  0  0  0  0  0  0  0  0  0  0  0
  1  2  1  0  0  0
  2  3  1  0  0  0
  2  4  1  0  0  0
  4  5  1  0  0  0
  5  6  1  0  0  0
  6  7  1  0  0  0
  7  8  1  0  0  0
  8  9  2  0  0  0
  9 10  1  0  0  0
 10 11  1  0  0  0
 10 12  2  0  0  0
 12 13  1  0  0  0
 12 14  1  0  0  0
 14 15  2  0  0  0
  6 17  1  0  0  0
 17 18  1  0  0  0
 18 19  2  0  0  0
 18 20  1  0  0  0
 20 21  2  0  0  0
 21 22  1  0  0  0
 22 23  2  0  0  0
 23 24  1  0  0  0
 23 25  1  0  0  0
 25 26  2  0  0  0
 26 27  1  0  0  0
 27 28  2  0  0  0
 15  2  1  0  0  0
 27 17  1  0  0  0
 15  8  1  0  0  0
 26 20  1  0  0  0
 13 16  1  0  0  0
 24 29  1  0  0  0
M  END
> <minimizedAffinity>
2.53979

> <CNNscore>
0.3662413955

> <CNNaffinity>
7.3124275208

> <CNN_VS>
2.6781136990

> <CNNaffinity_variance>
1.1632096767

$$$$
[H]Oc1c([H])c([H])c2c(c1[H])C(=O)N(C1([H])Sc3c([H])c(Cl)c(O[H])c([H])c3C(C([H])([H])[H])(C([H])([H])[H])OC1([H])[H])C2=S


 29 32  0  0  0  0  0  0  0  0999 V2000
   11.9432   44.9946  128.5540 C   0  0  0  0  0  0  0  0  0  0  0  0
   10.4875   44.8212  128.3120 C   0  0  0  0  0  0  0  0  0  0  0  0
   10.2016   45.0638  126.8321 C   0  0  0  0  0  0  0  0  0  0  0  0
    9.6739   45.6620  129.0380 O   0  0  0  0  0  0  0  0  0  0  0  0
   10.1865   46.1081  130.2279 C   0  0  0  0  0  0  0  0  0  0  0  0
    9.9501   45.1716  131.3872 C   0  0  0  0  0  0  0  0  0  0  0  0
    8.6698   43.9134  130.9961 S   0  0  0  0  0  0  0  0  0  0  0  0
    9.3281   42.9468  129.6485 C   0  0  0  0  0  0  0  0  0  0  0  0
    9.0131   41.6153  129.7735 C   0  0  0  0  0  0  0  0  0  0  0  0
    9.4406   40.6915  128.8126 C   0  0  0  0  0  0  0  0  0  0  0  0
    9.0703   38.9971  128.9218 Cl  0  0  0  0  0  0  0  0  0  0  0  0
   10.1905   41.1772  127.7377 C   0  0  0  0  0  0  0  0  0  0  0  0
   10.6179   40.2613  126.7794 O   0  0  0  0  0  0  0  0  0  0  0  0
   10.5034   42.5128  127.6174 C   0  0  0  0  0  0  0  0  0  0  0  0
   10.0684   43.3982  128.5794 C   0  0  0  0  0  0  0  0  0  0  0  0
   10.4074   39.2947  126.8404 H   0  0  0  0  0  0  0  0  0  0  0  0
    9.6336   45.8554  132.6056 N   0  0  0  0  0  0  0  0  0  0  0  0
   10.1696   45.5168  133.8772 C   0  0  0  0  0  0  0  0  0  0  0  0
   11.2315   44.3121  134.2239 S   0  0  0  0  0  0  0  0  0  0  0  0
    9.6306   46.4175  134.8797 C   0  0  0  0  0  0  0  0  0  0  0  0
    9.8332   46.5051  136.2383 C   0  0  0  0  0  0  0  0  0  0  0  0
    9.1749   47.4779  136.9441 C   0  0  0  0  0  0  0  0  0  0  0  0
    8.3283   48.3454  136.2900 C   0  0  0  0  0  0  0  0  0  0  0  0
    7.6847   49.3110  137.0392 O   0  0  0  0  0  0  0  0  0  0  0  0
    8.1220   48.2630  134.9343 C   0  0  0  0  0  0  0  0  0  0  0  0
    8.7859   47.2762  134.1990 C   0  0  0  0  0  0  0  0  0  0  0  0
    8.7483   46.9721  132.7747 C   0  0  0  0  0  0  0  0  0  0  0  0
    8.0837   47.5596  131.8812 O   0  0  0  0  0  0  0  0  0  0  0  0
    8.0929   50.2294  137.1977 H   0  0  0  0  0  0  0  0  0  0  0  0
  1  2  1  0  0  0
  2  3  1  0  0  0
  2  4  1  0  0  0
  4  5  1  0  0  0
  5  6  1  0  0  0
  6  7  1  0  0  0
  7  8  1  0  0  0
  8  9  2  0  0  0
  9 10  1  0  0  0
 10 11  1  0  0  0
 10 12  2  0  0  0
 12 13  1  0  0  0
 12 14  1  0  0  0
 14 15  2  0  0  0
  6 17  1  0  0  0
 17 18  1  0  0  0
 18 19  2  0  0  0
 18 20  1  0  0  0
 20 21  2  0  0  0
 21 22  1  0  0  0
 22 23  2  0  0  0
 23 24  1  0  0  0
 23 25  1  0  0  0
 25 26  2  0  0  0
 26 27  1  0  0  0
 27 28  2  0  0  0
 15  2  1  0  0  0
 27 17  1  0  0  0
 15  8  1  0  0  0
 26 20  1  0  0  0
 13 16  1  0  0  0
 24 29  1  0  0  0
M  END
> <minimizedAffinity>
24.77049

> <CNNscore>
0.3608633876

> <CNNaffinity>
6.7591133118

> <CNN_VS>
2.4391164780

> <CNNaffinity_variance>
1.3965827227

$$$$
[H]Oc1c([H])c([H])c2c(c1[H])C(=O)N(C1([H])Sc3c([H])c(Cl)c(O[H])c([H])c3C(C([H])([H])[H])(C([H])([H])[H])OC1([H])[H])C2=S


 29 32  0  0  0  0  0  0  0  0999 V2000
   10.4678   45.1583  134.1654 C   0  0  0  0  0  0  0  0  0  0  0  0
   11.2620   45.1479  132.9098 C   0  0  0  0  0  0  0  0  0  0  0  0
   12.7410   45.0129  133.2631 C   0  0  0  0  0  0  0  0  0  0  0  0
   11.1209   46.2699  132.1241 O   0  0  0  0  0  0  0  0  0  0  0  0
    9.9350   46.9441  132.2537 C   0  0  0  0  0  0  0  0  0  0  0  0
    8.8278   46.4114  131.3777 C   0  0  0  0  0  0  0  0  0  0  0  0
    9.4735   45.3036  130.0620 S   0  0  0  0  0  0  0  0  0  0  0  0
   10.2072   43.9142  130.9075 C   0  0  0  0  0  0  0  0  0  0  0  0
    9.9750   42.7330  130.2454 C   0  0  0  0  0  0  0  0  0  0  0  0
   10.4710   41.5260  130.7519 C   0  0  0  0  0  0  0  0  0  0  0  0
   10.2069   40.0043  129.9552 Cl  0  0  0  0  0  0  0  0  0  0  0  0
   11.2013   41.5762  131.9426 C   0  0  0  0  0  0  0  0  0  0  0  0
   11.6966   40.3773  132.4500 O   0  0  0  0  0  0  0  0  0  0  0  0
   11.4310   42.7629  132.6021 C   0  0  0  0  0  0  0  0  0  0  0  0
   10.9298   43.9349  132.0788 C   0  0  0  0  0  0  0  0  0  0  0  0
   11.5467   39.5089  131.9966 H   0  0  0  0  0  0  0  0  0  0  0  0
    8.0109   47.4449  130.8149 N   0  0  0  0  0  0  0  0  0  0  0  0
    8.3899   48.8119  130.7348 C   0  0  0  0  0  0  0  0  0  0  0  0
    9.7952   49.4896  131.2495 S   0  0  0  0  0  0  0  0  0  0  0  0
    7.3217   49.5695  130.1088 C   0  0  0  0  0  0  0  0  0  0  0  0
    7.2006   50.9069  129.8066 C   0  0  0  0  0  0  0  0  0  0  0  0
    6.0522   51.3473  129.2024 C   0  0  0  0  0  0  0  0  0  0  0  0
    5.0456   50.4539  128.9093 C   0  0  0  0  0  0  0  0  0  0  0  0
    3.9051   50.9399  128.3004 O   0  0  0  0  0  0  0  0  0  0  0  0
    5.1607   49.1181  129.2084 C   0  0  0  0  0  0  0  0  0  0  0  0
    6.3259   48.6519  129.8249 C   0  0  0  0  0  0  0  0  0  0  0  0
    6.7014   47.3081  130.2440 C   0  0  0  0  0  0  0  0  0  0  0  0
    6.0257   46.2516  130.1317 O   0  0  0  0  0  0  0  0  0  0  0  0
    3.8139   50.9859  127.2881 H   0  0  0  0  0  0  0  0  0  0  0  0
  1  2  1  0  0  0
  2  3  1  0  0  0
  2  4  1  0  0  0
  4  5  1  0  0  0
  5  6  1  0  0  0
  6  7  1  0  0  0
  7  8  1  0  0  0
  8  9  2  0  0  0
  9 10  1  0  0  0
 10 11  1  0  0  0
 10 12  2  0  0  0
 12 13  1  0  0  0
 12 14  1  0  0  0
 14 15  2  0  0  0
  6 17  1  0  0  0
 17 18  1  0  0  0
 18 19  2  0  0  0
 18 20  1  0  0  0
 20 21  2  0  0  0
 21 22  1  0  0  0
 22 23  2  0  0  0
 23 24  1  0  0  0
 23 25  1  0  0  0
 25 26  2  0  0  0
 26 27  1  0  0  0
 27 28  2  0  0  0
 15  2  1  0  0  0
 27 17  1  0  0  0
 15  8  1  0  0  0
 26 20  1  0  0  0
 13 16  1  0  0  0
 24 29  1  0  0  0
M  END
> <minimizedAffinity>
5.03714

> <CNNscore>
0.3476018906

> <CNNaffinity>
7.2059006691

> <CNN_VS>
2.5047845840

> <CNNaffinity_variance>
0.5133128166

$$$$
[H]Oc1c([H])c([H])c2c(c1[H])C(=O)N(C1([H])Sc3c([H])c(Cl)c(O[H])c([H])c3C(C([H])([H])[H])(C([H])([H])[H])OC1([H])[H])C2=S


 29 32  0  0  0  0  0  0  0  0999 V2000
    9.6650   49.9098  132.2429 C   0  0  0  0  0  0  0  0  0  0  0  0
    8.7409   48.7603  132.4223 C   0  0  0  0  0  0  0  0  0  0  0  0
    7.9098   48.9879  133.6824 C   0  0  0  0  0  0  0  0  0  0  0  0
    9.3559   47.5342  132.5433 O   0  0  0  0  0  0  0  0  0  0  0  0
   10.5839   47.4208  131.9460 C   0  0  0  0  0  0  0  0  0  0  0  0
   10.5233   47.0450  130.4858 C   0  0  0  0  0  0  0  0  0  0  0  0
    8.8647   46.4115  130.0139 S   0  0  0  0  0  0  0  0  0  0  0  0
    7.7317   47.7661  130.2689 C   0  0  0  0  0  0  0  0  0  0  0  0
    6.7670   47.8158  129.2920 C   0  0  0  0  0  0  0  0  0  0  0  0
    5.7826   48.8106  129.3164 C   0  0  0  0  0  0  0  0  0  0  0  0
    4.5398   48.9195  128.1066 Cl  0  0  0  0  0  0  0  0  0  0  0  0
    5.8250   49.7363  130.3629 C   0  0  0  0  0  0  0  0  0  0  0  0
    4.8473   50.7279  130.3909 O   0  0  0  0  0  0  0  0  0  0  0  0
    6.7943   49.6819  131.3394 C   0  0  0  0  0  0  0  0  0  0  0  0
    7.7501   48.6907  131.2884 C   0  0  0  0  0  0  0  0  0  0  0  0
    4.1380   50.7911  129.7016 H   0  0  0  0  0  0  0  0  0  0  0  0
   11.5477   46.1204  130.1011 N   0  0  0  0  0  0  0  0  0  0  0  0
   12.3474   45.3839  131.0160 C   0  0  0  0  0  0  0  0  0  0  0  0
   12.2806   45.4246  132.6570 S   0  0  0  0  0  0  0  0  0  0  0  0
   13.2769   44.5499  130.2763 C   0  0  0  0  0  0  0  0  0  0  0  0
   14.2464   43.6655  130.6916 C   0  0  0  0  0  0  0  0  0  0  0  0
   14.9876   43.0047  129.7471 C   0  0  0  0  0  0  0  0  0  0  0  0
   14.7538   43.2331  128.4090 C   0  0  0  0  0  0  0  0  0  0  0  0
   15.5233   42.5463  127.4904 O   0  0  0  0  0  0  0  0  0  0  0  0
   13.7876   44.1146  127.9885 C   0  0  0  0  0  0  0  0  0  0  0  0
   13.0224   44.7971  128.9391 C   0  0  0  0  0  0  0  0  0  0  0  0
   11.9516   45.7703  128.7693 C   0  0  0  0  0  0  0  0  0  0  0  0
   11.4793   46.2120  127.6890 O   0  0  0  0  0  0  0  0  0  0  0  0
   15.2427   41.6392  127.1249 H   0  0  0  0  0  0  0  0  0  0  0  0
  1  2  1  0  0  0
  2  3  1  0  0  0
  2  4  1  0  0  0
  4  5  1  0  0  0
  5  6  1  0  0  0
  6  7  1  0  0  0
  7  8  1  0  0  0
  8  9  2  0  0  0
  9 10  1  0  0  0
 10 11  1  0  0  0
 10 12  2  0  0  0
 12 13  1  0  0  0
 12 14  1  0  0  0
 14 15  2  0  0  0
  6 17  1  0  0  0
 17 18  1  0  0  0
 18 19  2  0  0  0
 18 20  1  0  0  0
 20 21  2  0  0  0
 21 22  1  0  0  0
 22 23  2  0  0  0
 23 24  1  0  0  0
 23 25  1  0  0  0
 25 26  2  0  0  0
 26 27  1  0  0  0
 27 28  2  0  0  0
 15  2  1  0  0  0
 27 17  1  0  0  0
 15  8  1  0  0  0
 26 20  1  0  0  0
 13 16  1  0  0  0
 24 29  1  0  0  0
M  END
> <minimizedAffinity>
22.35915

> <CNNscore>
0.3418541253

> <CNNaffinity>
6.6605415344

> <CNN_VS>
2.2769336700

> <CNNaffinity_variance>
1.1103662252

$$$$
[H]Oc1c([H])c([H])c2c(c1[H])C(=O)N(C1([H])Sc3c([H])c(Cl)c(O[H])c([H])c3C(C([H])([H])[H])(C([H])([H])[H])OC1([H])[H])C2=S


 29 32  0  0  0  0  0  0  0  0999 V2000
   10.4950   49.8422  129.7314 C   0  0  0  0  0  0  0  0  0  0  0  0
    9.4696   49.7754  130.8046 C   0  0  0  0  0  0  0  0  0  0  0  0
    9.4543   51.1046  131.5552 C   0  0  0  0  0  0  0  0  0  0  0  0
    9.6626   48.7749  131.7307 O   0  0  0  0  0  0  0  0  0  0  0  0
   10.3561   47.6786  131.2892 C   0  0  0  0  0  0  0  0  0  0  0  0
    9.4955   46.6399  130.6129 C   0  0  0  0  0  0  0  0  0  0  0  0
    7.7100   46.9093  130.9517 S   0  0  0  0  0  0  0  0  0  0  0  0
    7.3082   48.4924  130.2336 C   0  0  0  0  0  0  0  0  0  0  0  0
    6.0614   48.4896  129.6564 C   0  0  0  0  0  0  0  0  0  0  0  0
    5.5629   49.6423  129.0380 C   0  0  0  0  0  0  0  0  0  0  0  0
    3.9936   49.6937  128.2932 Cl  0  0  0  0  0  0  0  0  0  0  0  0
    6.3780   50.7777  129.0343 C   0  0  0  0  0  0  0  0  0  0  0  0
    5.8857   51.9268  128.4200 O   0  0  0  0  0  0  0  0  0  0  0  0
    7.6269   50.7749  129.6143 C   0  0  0  0  0  0  0  0  0  0  0  0
    8.0903   49.6250  130.2155 C   0  0  0  0  0  0  0  0  0  0  0  0
    4.9910   51.9574  127.9949 H   0  0  0  0  0  0  0  0  0  0  0  0
    9.8764   45.2976  130.9372 N   0  0  0  0  0  0  0  0  0  0  0  0
   10.5551   44.9225  132.1279 C   0  0  0  0  0  0  0  0  0  0  0  0
   11.0373   45.9047  133.3533 S   0  0  0  0  0  0  0  0  0  0  0  0
   10.7782   43.4882  132.1207 C   0  0  0  0  0  0  0  0  0  0  0  0
   11.3833   42.6493  133.0288 C   0  0  0  0  0  0  0  0  0  0  0  0
   11.4498   41.3094  132.7495 C   0  0  0  0  0  0  0  0  0  0  0  0
   10.9155   40.8264  131.5754 C   0  0  0  0  0  0  0  0  0  0  0  0
   11.0041   39.4694  131.3333 O   0  0  0  0  0  0  0  0  0  0  0  0
   10.3104   41.6587  130.6653 C   0  0  0  0  0  0  0  0  0  0  0  0
   10.2339   43.0286  130.9347 C   0  0  0  0  0  0  0  0  0  0  0  0
    9.6562   44.1150  130.1547 C   0  0  0  0  0  0  0  0  0  0  0  0
    9.0859   44.0377  129.0348 O   0  0  0  0  0  0  0  0  0  0  0  0
   10.2798   38.8211  131.6337 H   0  0  0  0  0  0  0  0  0  0  0  0
  1  2  1  0  0  0
  2  3  1  0  0  0
  2  4  1  0  0  0
  4  5  1  0  0  0
  5  6  1  0  0  0
  6  7  1  0  0  0
  7  8  1  0  0  0
  8  9  2  0  0  0
  9 10  1  0  0  0
 10 11  1  0  0  0
 10 12  2  0  0  0
 12 13  1  0  0  0
 12 14  1  0  0  0
 14 15  2  0  0  0
  6 17  1  0  0  0
 17 18  1  0  0  0
 18 19  2  0  0  0
 18 20  1  0  0  0
 20 21  2  0  0  0
 21 22  1  0  0  0
 22 23  2  0  0  0
 23 24  1  0  0  0
 23 25  1  0  0  0
 25 26  2  0  0  0
 26 27  1  0  0  0
 27 28  2  0  0  0
 15  2  1  0  0  0
 27 17  1  0  0  0
 15  8  1  0  0  0
 26 20  1  0  0  0
 13 16  1  0  0  0
 24 29  1  0  0  0
M  END
> <minimizedAffinity>
10.61248

> <CNNscore>
0.3307863772

> <CNNaffinity>
7.1931180954

> <CNN_VS>
2.3793854713

> <CNNaffinity_variance>
1.2559207678

$$$$
[H]Oc1c([H])c([H])c(-n2c(C([H])([H])[H])nc3c([H])c([H])c(O[H])c([H])c3c2=O)c([H])c1C([H])([H])[H]


 23 25  0  0  0  0  0  0  0  0999 V2000
   10.0178   49.1188  133.3519 C   0  0  0  0  0  0  0  0  0  0  0  0
   10.2002   47.7130  132.9048 C   0  0  0  0  0  0  0  0  0  0  0  0
   10.9931   46.8682  133.5930 N   0  0  0  0  0  0  0  0  0  0  0  0
   11.1972   45.5855  133.2378 C   0  0  0  0  0  0  0  0  0  0  0  0
   12.0134   44.7366  133.9567 C   0  0  0  0  0  0  0  0  0  0  0  0
   12.2249   43.4249  133.5972 C   0  0  0  0  0  0  0  0  0  0  0  0
   11.5736   42.9844  132.4652 C   0  0  0  0  0  0  0  0  0  0  0  0
   11.7593   41.6619  132.0644 O   0  0  0  0  0  0  0  0  0  0  0  0
   10.7553   43.7812  131.7173 C   0  0  0  0  0  0  0  0  0  0  0  0
   10.5643   45.1005  132.1091 C   0  0  0  0  0  0  0  0  0  0  0  0
    9.7543   45.9365  131.3927 C   0  0  0  0  0  0  0  0  0  0  0  0
    9.1761   45.4852  130.3573 O   0  0  0  0  0  0  0  0  0  0  0  0
    9.6000   47.2066  131.8111 N   0  0  0  0  0  0  0  0  0  0  0  0
   11.3267   41.2615  131.2585 H   0  0  0  0  0  0  0  0  0  0  0  0
    8.7685   48.0655  131.0759 C   0  0  0  0  0  0  0  0  0  0  0  0
    9.0241   49.4189  131.0166 C   0  0  0  0  0  0  0  0  0  0  0  0
    8.1993   50.2509  130.2909 C   0  0  0  0  0  0  0  0  0  0  0  0
    7.0905   49.7635  129.5984 C   0  0  0  0  0  0  0  0  0  0  0  0
    6.2935   50.6164  128.8885 O   0  0  0  0  0  0  0  0  0  0  0  0
    6.8289   48.4036  129.6548 C   0  0  0  0  0  0  0  0  0  0  0  0
    5.6470   47.8975  128.9143 C   0  0  0  0  0  0  0  0  0  0  0  0
    7.6706   47.5932  130.3885 C   0  0  0  0  0  0  0  0  0  0  0  0
    6.5133   51.6018  128.8690 H   0  0  0  0  0  0  0  0  0  0  0  0
  1  2  1  0  0  0
  2  3  2  0  0  0
  3  4  1  0  0  0
  4  5  2  0  0  0
  5  6  1  0  0  0
  6  7  2  0  0  0
  7  8  1  0  0  0
  7  9  1  0  0  0
  9 10  2  0  0  0
 10 11  1  0  0  0
 11 12  2  0  0  0
 11 13  1  0  0  0
 13 15  1  0  0  0
 15 16  2  0  0  0
 16 17  1  0  0  0
 17 18  2  0  0  0
 18 19  1  0  0  0
 18 20  1  0  0  0
 20 21  1  0  0  0
 20 22  2  0  0  0
 13  2  1  0  0  0
 22 15  1  0  0  0
 10  4  1  0  0  0
  8 14  1  0  0  0
 19 23  1  0  0  0
M  END
> <minimizedAffinity>
-9.24552

> <CNNscore>
0.8282482624

> <CNNaffinity>
7.5386300087

> <CNN_VS>
6.2438573837

> <CNNaffinity_variance>
0.7259283066

$$$$
[H]Oc1c([H])c([H])c(-n2c(C([H])([H])[H])nc3c([H])c([H])c(O[H])c([H])c3c2=O)c([H])c1C([H])([H])[H]


 23 25  0  0  0  0  0  0  0  0999 V2000
   10.3575   46.1340  128.4093 C   0  0  0  0  0  0  0  0  0  0  0  0
   10.4340   45.7979  129.8552 C   0  0  0  0  0  0  0  0  0  0  0  0
   11.2667   44.8344  130.2956 N   0  0  0  0  0  0  0  0  0  0  0  0
   11.3799   44.4856  131.5912 C   0  0  0  0  0  0  0  0  0  0  0  0
   12.2392   43.4957  132.0217 C   0  0  0  0  0  0  0  0  0  0  0  0
   12.3581   43.1360  133.3450 C   0  0  0  0  0  0  0  0  0  0  0  0
   11.5664   43.8201  134.2421 C   0  0  0  0  0  0  0  0  0  0  0  0
   11.6547   43.4882  135.5935 O   0  0  0  0  0  0  0  0  0  0  0  0
   10.6997   44.8075  133.8708 C   0  0  0  0  0  0  0  0  0  0  0  0
   10.6050   45.1451  132.5264 C   0  0  0  0  0  0  0  0  0  0  0  0
    9.7518   46.1269  132.1063 C   0  0  0  0  0  0  0  0  0  0  0  0
    9.0430   46.7286  132.9698 O   0  0  0  0  0  0  0  0  0  0  0  0
    9.6946   46.4189  130.7935 N   0  0  0  0  0  0  0  0  0  0  0  0
   11.1185   43.9324  136.3090 H   0  0  0  0  0  0  0  0  0  0  0  0
    8.8187   47.4269  130.3616 C   0  0  0  0  0  0  0  0  0  0  0  0
    9.1676   48.7571  130.4582 C   0  0  0  0  0  0  0  0  0  0  0  0
    8.2978   49.7366  130.0302 C   0  0  0  0  0  0  0  0  0  0  0  0
    7.0494   49.4251  129.4907 C   0  0  0  0  0  0  0  0  0  0  0  0
    6.2114   50.4213  129.0760 O   0  0  0  0  0  0  0  0  0  0  0  0
    6.6937   48.0893  129.3913 C   0  0  0  0  0  0  0  0  0  0  0  0
    5.3637   47.7708  128.8159 C   0  0  0  0  0  0  0  0  0  0  0  0
    7.5832   47.1288  129.8271 C   0  0  0  0  0  0  0  0  0  0  0  0
    6.5025   51.3842  129.1632 H   0  0  0  0  0  0  0  0  0  0  0  0
  1  2  1  0  0  0
  2  3  2  0  0  0
  3  4  1  0  0  0
  4  5  2  0  0  0
  5  6  1  0  0  0
  6  7  2  0  0  0
  7  8  1  0  0  0
  7  9  1  0  0  0
  9 10  2  0  0  0
 10 11  1  0  0  0
 11 12  2  0  0  0
 11 13  1  0  0  0
 13 15  1  0  0  0
 15 16  2  0  0  0
 16 17  1  0  0  0
 17 18  2  0  0  0
 18 19  1  0  0  0
 18 20  1  0  0  0
 20 21  1  0  0  0
 20 22  2  0  0  0
 13  2  1  0  0  0
 22 15  1  0  0  0
 10  4  1  0  0  0
  8 14  1  0  0  0
 19 23  1  0  0  0
M  END
> <minimizedAffinity>
-8.77737

> <CNNscore>
0.7047569156

> <CNNaffinity>
7.3953537941

> <CNN_VS>
5.2119269371

> <CNNaffinity_variance>
0.8453992605

$$$$
[H]Oc1c([H])c([H])c(-n2c(C([H])([H])[H])nc3c([H])c([H])c(O[H])c([H])c3c2=O)c([H])c1C([H])([H])[H]


 23 25  0  0  0  0  0  0  0  0999 V2000
    8.1982   43.7959  130.1347 C   0  0  0  0  0  0  0  0  0  0  0  0
    8.2001   45.2794  130.2292 C   0  0  0  0  0  0  0  0  0  0  0  0
    7.2229   46.0078  129.6544 N   0  0  0  0  0  0  0  0  0  0  0  0
    7.1707   47.3523  129.7057 C   0  0  0  0  0  0  0  0  0  0  0  0
    6.1609   48.0797  129.1101 C   0  0  0  0  0  0  0  0  0  0  0  0
    6.1036   49.4541  129.1600 C   0  0  0  0  0  0  0  0  0  0  0  0
    7.1184   50.0878  129.8443 C   0  0  0  0  0  0  0  0  0  0  0  0
    7.1000   51.4799  129.9201 O   0  0  0  0  0  0  0  0  0  0  0  0
    8.1411   49.4175  130.4516 C   0  0  0  0  0  0  0  0  0  0  0  0
    8.1677   48.0301  130.3814 C   0  0  0  0  0  0  0  0  0  0  0  0
    9.1710   47.3152  130.9736 C   0  0  0  0  0  0  0  0  0  0  0  0
   10.0834   47.9433  131.5924 O   0  0  0  0  0  0  0  0  0  0  0  0
    9.1543   45.9725  130.8786 N   0  0  0  0  0  0  0  0  0  0  0  0
    7.7943   52.0180  130.3948 H   0  0  0  0  0  0  0  0  0  0  0  0
   10.1842   45.2379  131.4864 C   0  0  0  0  0  0  0  0  0  0  0  0
   11.2611   44.7880  130.7526 C   0  0  0  0  0  0  0  0  0  0  0  0
   12.2653   44.0676  131.3622 C   0  0  0  0  0  0  0  0  0  0  0  0
   12.2321   43.7702  132.7249 C   0  0  0  0  0  0  0  0  0  0  0  0
   13.2447   43.0537  133.2975 O   0  0  0  0  0  0  0  0  0  0  0  0
   11.1516   44.2202  133.4674 C   0  0  0  0  0  0  0  0  0  0  0  0
   11.1278   43.8976  134.9154 C   0  0  0  0  0  0  0  0  0  0  0  0
   10.1601   44.9391  132.8322 C   0  0  0  0  0  0  0  0  0  0  0  0
   14.0170   42.7413  132.7268 H   0  0  0  0  0  0  0  0  0  0  0  0
  1  2  1  0  0  0
  2  3  2  0  0  0
  3  4  1  0  0  0
  4  5  2  0  0  0
  5  6  1  0  0  0
  6  7  2  0  0  0
  7  8  1  0  0  0
  7  9  1  0  0  0
  9 10  2  0  0  0
 10 11  1  0  0  0
 11 12  2  0  0  0
 11 13  1  0  0  0
 13 15  1  0  0  0
 15 16  2  0  0  0
 16 17  1  0  0  0
 17 18  2  0  0  0
 18 19  1  0  0  0
 18 20  1  0  0  0
 20 21  1  0  0  0
 20 22  2  0  0  0
 13  2  1  0  0  0
 22 15  1  0  0  0
 10  4  1  0  0  0
  8 14  1  0  0  0
 19 23  1  0  0  0
M  END
> <minimizedAffinity>
-8.88388

> <CNNscore>
0.6625170112

> <CNNaffinity>
7.3792243004

> <CNN_VS>
4.8888616562

> <CNNaffinity_variance>
0.8615867496

$$$$
[H]Oc1c([H])c([H])c(-n2c(C([H])([H])[H])nc3c([H])c([H])c(O[H])c([H])c3c2=O)c([H])c1C([H])([H])[H]


 23 25  0  0  0  0  0  0  0  0999 V2000
    9.7823   45.8049  128.7304 C   0  0  0  0  0  0  0  0  0  0  0  0
    9.9192   45.5979  130.1960 C   0  0  0  0  0  0  0  0  0  0  0  0
   10.8278   44.7329  130.6879 N   0  0  0  0  0  0  0  0  0  0  0  0
   10.9983   44.5031  132.0037 C   0  0  0  0  0  0  0  0  0  0  0  0
   11.9350   43.6128  132.4869 C   0  0  0  0  0  0  0  0  0  0  0  0
   12.1126   43.3749  133.8310 C   0  0  0  0  0  0  0  0  0  0  0  0
   11.2988   44.0777  134.6931 C   0  0  0  0  0  0  0  0  0  0  0  0
   11.4447   43.8677  136.0638 O   0  0  0  0  0  0  0  0  0  0  0  0
   10.3564   44.9700  134.2692 C   0  0  0  0  0  0  0  0  0  0  0  0
   10.2039   45.1858  132.9052 C   0  0  0  0  0  0  0  0  0  0  0  0
    9.2741   46.0693  132.4326 C   0  0  0  0  0  0  0  0  0  0  0  0
    8.5478   46.6929  133.2655 O   0  0  0  0  0  0  0  0  0  0  0  0
    9.1630   46.2450  131.1027 N   0  0  0  0  0  0  0  0  0  0  0  0
   10.8976   44.3338  136.7569 H   0  0  0  0  0  0  0  0  0  0  0  0
    8.2084   47.1519  130.6169 C   0  0  0  0  0  0  0  0  0  0  0  0
    7.0899   46.7094  129.9433 C   0  0  0  0  0  0  0  0  0  0  0  0
    6.1606   47.6110  129.4716 C   0  0  0  0  0  0  0  0  0  0  0  0
    6.3128   48.9857  129.6546 C   0  0  0  0  0  0  0  0  0  0  0  0
    5.3720   49.8520  129.1739 O   0  0  0  0  0  0  0  0  0  0  0  0
    7.4356   49.4360  130.3312 C   0  0  0  0  0  0  0  0  0  0  0  0
    7.5861   50.9000  130.5194 C   0  0  0  0  0  0  0  0  0  0  0  0
    8.3503   48.5121  130.7929 C   0  0  0  0  0  0  0  0  0  0  0  0
    4.5661   49.4895  128.6854 H   0  0  0  0  0  0  0  0  0  0  0  0
  1  2  1  0  0  0
  2  3  2  0  0  0
  3  4  1  0  0  0
  4  5  2  0  0  0
  5  6  1  0  0  0
  6  7  2  0  0  0
  7  8  1  0  0  0
  7  9  1  0  0  0
  9 10  2  0  0  0
 10 11  1  0  0  0
 11 12  2  0  0  0
 11 13  1  0  0  0
 13 15  1  0  0  0
 15 16  2  0  0  0
 16 17  1  0  0  0
 17 18  2  0  0  0
 18 19  1  0  0  0
 18 20  1  0  0  0
 20 21  1  0  0  0
 20 22  2  0  0  0
 13  2  1  0  0  0
 22 15  1  0  0  0
 10  4  1  0  0  0
  8 14  1  0  0  0
 19 23  1  0  0  0
M  END
> <minimizedAffinity>
-7.10902

> <CNNscore>
0.5496653318

> <CNNaffinity>
7.2638931274

> <CNN_VS>
3.9927101135

> <CNNaffinity_variance>
1.1106622219

$$$$
[H]Oc1c([H])c([H])c(-n2c(C([H])([H])[H])nc3c([H])c([H])c(O[H])c([H])c3c2=O)c([H])c1C([H])([H])[H]


 23 25  0  0  0  0  0  0  0  0999 V2000
   11.3537   47.2755  132.5211 C   0  0  0  0  0  0  0  0  0  0  0  0
   10.0905   47.4860  131.7664 C   0  0  0  0  0  0  0  0  0  0  0  0
    9.6053   48.7273  131.5673 N   0  0  0  0  0  0  0  0  0  0  0  0
    8.4679   48.9809  130.8928 C   0  0  0  0  0  0  0  0  0  0  0  0
    7.9881   50.2601  130.7000 C   0  0  0  0  0  0  0  0  0  0  0  0
    6.8259   50.5238  130.0111 C   0  0  0  0  0  0  0  0  0  0  0  0
    6.1463   49.4341  129.5109 C   0  0  0  0  0  0  0  0  0  0  0  0
    4.9637   49.6552  128.8061 O   0  0  0  0  0  0  0  0  0  0  0  0
    6.5757   48.1483  129.6724 C   0  0  0  0  0  0  0  0  0  0  0  0
    7.7532   47.9183  130.3732 C   0  0  0  0  0  0  0  0  0  0  0  0
    8.2233   46.6486  130.5608 C   0  0  0  0  0  0  0  0  0  0  0  0
    7.5625   45.6772  130.0814 O   0  0  0  0  0  0  0  0  0  0  0  0
    9.3686   46.4754  131.2466 N   0  0  0  0  0  0  0  0  0  0  0  0
    4.4098   48.9246  128.4107 H   0  0  0  0  0  0  0  0  0  0  0  0
    9.8518   45.1719  131.4395 C   0  0  0  0  0  0  0  0  0  0  0  0
   10.7923   44.6323  130.5881 C   0  0  0  0  0  0  0  0  0  0  0  0
   11.2581   43.3511  130.7892 C   0  0  0  0  0  0  0  0  0  0  0  0
   10.8032   42.5620  131.8461 C   0  0  0  0  0  0  0  0  0  0  0  0
   11.2863   41.2955  132.0165 O   0  0  0  0  0  0  0  0  0  0  0  0
    9.8576   43.0996  132.7050 C   0  0  0  0  0  0  0  0  0  0  0  0
    9.3817   42.2508  133.8251 C   0  0  0  0  0  0  0  0  0  0  0  0
    9.4082   44.3847  132.4809 C   0  0  0  0  0  0  0  0  0  0  0  0
   11.9748   40.9352  131.3717 H   0  0  0  0  0  0  0  0  0  0  0  0
  1  2  1  0  0  0
  2  3  2  0  0  0
  3  4  1  0  0  0
  4  5  2  0  0  0
  5  6  1  0  0  0
  6  7  2  0  0  0
  7  8  1  0  0  0
  7  9  1  0  0  0
  9 10  2  0  0  0
 10 11  1  0  0  0
 11 12  2  0  0  0
 11 13  1  0  0  0
 13 15  1  0  0  0
 15 16  2  0  0  0
 16 17  1  0  0  0
 17 18  2  0  0  0
 18 19  1  0  0  0
 18 20  1  0  0  0
 20 21  1  0  0  0
 20 22  2  0  0  0
 13  2  1  0  0  0
 22 15  1  0  0  0
 10  4  1  0  0  0
  8 14  1  0  0  0
 19 23  1  0  0  0
M  END
> <minimizedAffinity>
-7.25664

> <CNNscore>
0.5339925885

> <CNNaffinity>
7.1732225418

> <CNN_VS>
3.8304476738

> <CNNaffinity_variance>
0.7218917608

$$$$
[H]Oc1c([H])c([H])c(-n2c(C([H])([H])[H])nc3c([H])c([H])c(O[H])c([H])c3c2=O)c([H])c1C([H])([H])[H]


 23 25  0  0  0  0  0  0  0  0999 V2000
   10.3511   46.3177  132.7874 C   0  0  0  0  0  0  0  0  0  0  0  0
    9.5477   47.1266  131.8336 C   0  0  0  0  0  0  0  0  0  0  0  0
    9.4388   48.4613  131.9833 N   0  0  0  0  0  0  0  0  0  0  0  0
    8.7262   49.2462  131.1530 C   0  0  0  0  0  0  0  0  0  0  0  0
    8.6275   50.6117  131.3239 C   0  0  0  0  0  0  0  0  0  0  0  0
    7.9002   51.4177  130.4777 C   0  0  0  0  0  0  0  0  0  0  0  0
    7.2609   50.7914  129.4296 C   0  0  0  0  0  0  0  0  0  0  0  0
    6.5128   51.5698  128.5473 O   0  0  0  0  0  0  0  0  0  0  0  0
    7.3251   49.4448  129.2139 C   0  0  0  0  0  0  0  0  0  0  0  0
    8.0682   48.6610  130.0879 C   0  0  0  0  0  0  0  0  0  0  0  0
    8.1622   47.3086  129.9131 C   0  0  0  0  0  0  0  0  0  0  0  0
    7.5557   46.7773  128.9333 O   0  0  0  0  0  0  0  0  0  0  0  0
    8.8937   46.5908  130.7857 N   0  0  0  0  0  0  0  0  0  0  0  0
    6.0188   51.1984  127.7632 H   0  0  0  0  0  0  0  0  0  0  0  0
    8.9906   45.2022  130.6068 C   0  0  0  0  0  0  0  0  0  0  0  0
    8.5588   44.3306  131.5838 C   0  0  0  0  0  0  0  0  0  0  0  0
    8.6599   42.9693  131.3949 C   0  0  0  0  0  0  0  0  0  0  0  0
    9.1948   42.4282  130.2255 C   0  0  0  0  0  0  0  0  0  0  0  0
    9.2803   41.0734  130.0709 O   0  0  0  0  0  0  0  0  0  0  0  0
    9.6305   43.2999  129.2400 C   0  0  0  0  0  0  0  0  0  0  0  0
   10.1973   42.7124  128.0011 C   0  0  0  0  0  0  0  0  0  0  0  0
    9.5177   44.6582  129.4547 C   0  0  0  0  0  0  0  0  0  0  0  0
    8.9534   40.4673  130.8093 H   0  0  0  0  0  0  0  0  0  0  0  0
  1  2  1  0  0  0
  2  3  2  0  0  0
  3  4  1  0  0  0
  4  5  2  0  0  0
  5  6  1  0  0  0
  6  7  2  0  0  0
  7  8  1  0  0  0
  7  9  1  0  0  0
  9 10  2  0  0  0
 10 11  1  0  0  0
 11 12  2  0  0  0
 11 13  1  0  0  0
 13 15  1  0  0  0
 15 16  2  0  0  0
 16 17  1  0  0  0
 17 18  2  0  0  0
 18 19  1  0  0  0
 18 20  1  0  0  0
 20 21  1  0  0  0
 20 22  2  0  0  0
 13  2  1  0  0  0
 22 15  1  0  0  0
 10  4  1  0  0  0
  8 14  1  0  0  0
 19 23  1  0  0  0
M  END
> <minimizedAffinity>
-4.40123

> <CNNscore>
0.4346687794

> <CNNaffinity>
7.0341081619

> <CNN_VS>
3.0575072765

> <CNNaffinity_variance>
1.4487235546

$$$$
[H]Oc1c([H])c([H])c(-n2c(C([H])([H])[H])nc3c([H])c([H])c(O[H])c([H])c3c2=O)c([H])c1C([H])([H])[H]


 23 25  0  0  0  0  0  0  0  0999 V2000
    8.1814   45.1471  133.8257 C   0  0  0  0  0  0  0  0  0  0  0  0
    9.3690   44.9981  132.9442 C   0  0  0  0  0  0  0  0  0  0  0  0
    9.7421   43.7856  132.4897 N   0  0  0  0  0  0  0  0  0  0  0  0
   10.8069   43.5877  131.6896 C   0  0  0  0  0  0  0  0  0  0  0  0
   11.1722   42.3373  131.2350 C   0  0  0  0  0  0  0  0  0  0  0  0
   12.2598   42.1304  130.4171 C   0  0  0  0  0  0  0  0  0  0  0  0
   12.9848   43.2478  130.0630 C   0  0  0  0  0  0  0  0  0  0  0  0
   14.0949   43.0844  129.2352 O   0  0  0  0  0  0  0  0  0  0  0  0
   12.6679   44.5073  130.4839 C   0  0  0  0  0  0  0  0  0  0  0  0
   11.5634   44.6798  131.3089 C   0  0  0  0  0  0  0  0  0  0  0  0
   11.2066   45.9213  131.7560 C   0  0  0  0  0  0  0  0  0  0  0  0
   11.9052   46.9199  131.4029 O   0  0  0  0  0  0  0  0  0  0  0  0
   10.1286   46.0388  132.5535 N   0  0  0  0  0  0  0  0  0  0  0  0
   14.6745   43.8382  128.9309 H   0  0  0  0  0  0  0  0  0  0  0  0
    9.7618   47.3132  133.0128 C   0  0  0  0  0  0  0  0  0  0  0  0
    8.4358   47.6500  133.1826 C   0  0  0  0  0  0  0  0  0  0  0  0
    8.0898   48.9051  133.6343 C   0  0  0  0  0  0  0  0  0  0  0  0
    9.0530   49.8692  133.9330 C   0  0  0  0  0  0  0  0  0  0  0  0
    8.6751   51.1040  134.3789 O   0  0  0  0  0  0  0  0  0  0  0  0
   10.3877   49.5359  133.7640 C   0  0  0  0  0  0  0  0  0  0  0  0
   11.4025   50.5695  134.0849 C   0  0  0  0  0  0  0  0  0  0  0  0
   10.7065   48.2724  133.3105 C   0  0  0  0  0  0  0  0  0  0  0  0
    7.6936   51.3133  134.4906 H   0  0  0  0  0  0  0  0  0  0  0  0
  1  2  1  0  0  0
  2  3  2  0  0  0
  3  4  1  0  0  0
  4  5  2  0  0  0
  5  6  1  0  0  0
  6  7  2  0  0  0
  7  8  1  0  0  0
  7  9  1  0  0  0
  9 10  2  0  0  0
 10 11  1  0  0  0
 11 12  2  0  0  0
 11 13  1  0  0  0
 13 15  1  0  0  0
 15 16  2  0  0  0
 16 17  1  0  0  0
 17 18  2  0  0  0
 18 19  1  0  0  0
 18 20  1  0  0  0
 20 21  1  0  0  0
 20 22  2  0  0  0
 13  2  1  0  0  0
 22 15  1  0  0  0
 10  4  1  0  0  0
  8 14  1  0  0  0
 19 23  1  0  0  0
M  END
> <minimizedAffinity>
23.76416

> <CNNscore>
0.4030088484

> <CNNaffinity>
6.1456398964

> <CNN_VS>
2.4767472744

> <CNNaffinity_variance>
1.9183822870

$$$$
[H]Oc1c([H])c([H])c(-n2c(C([H])([H])[H])nc3c([H])c([H])c(O[H])c([H])c3c2=O)c([H])c1C([H])([H])[H]


 23 25  0  0  0  0  0  0  0  0999 V2000
   10.7683   48.3258  133.2400 C   0  0  0  0  0  0  0  0  0  0  0  0
    9.7707   48.0400  132.1757 C   0  0  0  0  0  0  0  0  0  0  0  0
    8.9107   48.9920  131.7636 N   0  0  0  0  0  0  0  0  0  0  0  0
    7.9860   48.7932  130.8052 C   0  0  0  0  0  0  0  0  0  0  0  0
    7.1144   49.7820  130.3975 C   0  0  0  0  0  0  0  0  0  0  0  0
    6.1677   49.5831  129.4182 C   0  0  0  0  0  0  0  0  0  0  0  0
    6.1253   48.3286  128.8491 C   0  0  0  0  0  0  0  0  0  0  0  0
    5.1814   48.0829  127.8526 O   0  0  0  0  0  0  0  0  0  0  0  0
    6.9634   47.3146  129.2144 C   0  0  0  0  0  0  0  0  0  0  0  0
    7.9072   47.5501  130.2065 C   0  0  0  0  0  0  0  0  0  0  0  0
    8.7680   46.5664  130.6059 C   0  0  0  0  0  0  0  0  0  0  0  0
    8.6904   45.4273  130.0524 O   0  0  0  0  0  0  0  0  0  0  0  0
    9.6652   46.8417  131.5709 N   0  0  0  0  0  0  0  0  0  0  0  0
    5.0820   47.2046  127.3883 H   0  0  0  0  0  0  0  0  0  0  0  0
   10.5493   45.8321  131.9815 C   0  0  0  0  0  0  0  0  0  0  0  0
   11.5240   45.3556  131.1308 C   0  0  0  0  0  0  0  0  0  0  0  0
   12.3856   44.3638  131.5470 C   0  0  0  0  0  0  0  0  0  0  0  0
   12.3063   43.8116  132.8258 C   0  0  0  0  0  0  0  0  0  0  0  0
   13.1766   42.8295  133.2061 O   0  0  0  0  0  0  0  0  0  0  0  0
   11.3282   44.2870  133.6850 C   0  0  0  0  0  0  0  0  0  0  0  0
   11.2541   43.6919  135.0422 C   0  0  0  0  0  0  0  0  0  0  0  0
   10.4788   45.2803  133.2431 C   0  0  0  0  0  0  0  0  0  0  0  0
   13.8772   42.5066  132.5545 H   0  0  0  0  0  0  0  0  0  0  0  0
  1  2  1  0  0  0
  2  3  2  0  0  0
  3  4  1  0  0  0
  4  5  2  0  0  0
  5  6  1  0  0  0
  6  7  2  0  0  0
  7  8  1  0  0  0
  7  9  1  0  0  0
  9 10  2  0  0  0
 10 11  1  0  0  0
 11 12  2  0  0  0
 11 13  1  0  0  0
 13 15  1  0  0  0
 15 16  2  0  0  0
 16 17  1  0  0  0
 17 18  2  0  0  0
 18 19  1  0  0  0
 18 20  1  0  0  0
 20 21  1  0  0  0
 20 22  2  0  0  0
 13  2  1  0  0  0
 22 15  1  0  0  0
 10  4  1  0  0  0
  8 14  1  0  0  0
 19 23  1  0  0  0
M  END
> <minimizedAffinity>
-7.97327

> <CNNscore>
0.3344442248

> <CNNaffinity>
6.9397926331

> <CNN_VS>
2.3209736347

> <CNNaffinity_variance>
0.3392724097

$$$$
[H]Oc1c([H])c([H])c(-n2c(C([H])([H])[H])nc3c([H])c([H])c(O[H])c([H])c3c2=O)c([H])c1C([H])([H])[H]


 23 25  0  0  0  0  0  0  0  0999 V2000
    8.5128   43.0708  130.2536 C   0  0  0  0  0  0  0  0  0  0  0  0
    8.1813   44.5004  130.0168 C   0  0  0  0  0  0  0  0  0  0  0  0
    7.1411   44.8460  129.2330 N   0  0  0  0  0  0  0  0  0  0  0  0
    6.7923   46.1220  128.9815 C   0  0  0  0  0  0  0  0  0  0  0  0
    5.7230   46.4546  128.1756 C   0  0  0  0  0  0  0  0  0  0  0  0
    5.3630   47.7576  127.9158 C   0  0  0  0  0  0  0  0  0  0  0  0
    6.1310   48.7377  128.5067 C   0  0  0  0  0  0  0  0  0  0  0  0
    5.8018   50.0719  128.2707 O   0  0  0  0  0  0  0  0  0  0  0  0
    7.1989   48.4646  129.3123 C   0  0  0  0  0  0  0  0  0  0  0  0
    7.5344   47.1380  129.5531 C   0  0  0  0  0  0  0  0  0  0  0  0
    8.5950   46.8150  130.3526 C   0  0  0  0  0  0  0  0  0  0  0  0
    9.2724   47.7524  130.8745 O   0  0  0  0  0  0  0  0  0  0  0  0
    8.8817   45.5157  130.5567 N   0  0  0  0  0  0  0  0  0  0  0  0
    6.3037   50.8431  128.6582 H   0  0  0  0  0  0  0  0  0  0  0  0
    9.9705   45.1833  131.3775 C   0  0  0  0  0  0  0  0  0  0  0  0
   10.3971   43.8775  131.4934 C   0  0  0  0  0  0  0  0  0  0  0  0
   11.4676   43.5652  132.3029 C   0  0  0  0  0  0  0  0  0  0  0  0
   12.1512   44.5433  133.0259 C   0  0  0  0  0  0  0  0  0  0  0  0
   13.2087   44.1989  133.8193 O   0  0  0  0  0  0  0  0  0  0  0  0
   11.7264   45.8578  132.9131 C   0  0  0  0  0  0  0  0  0  0  0  0
   12.4614   46.8887  133.6866 C   0  0  0  0  0  0  0  0  0  0  0  0
   10.6521   46.1429  132.0956 C   0  0  0  0  0  0  0  0  0  0  0  0
   13.4915   43.2314  133.8783 H   0  0  0  0  0  0  0  0  0  0  0  0
  1  2  1  0  0  0
  2  3  2  0  0  0
  3  4  1  0  0  0
  4  5  2  0  0  0
  5  6  1  0  0  0
  6  7  2  0  0  0
  7  8  1  0  0  0
  7  9  1  0  0  0
  9 10  2  0  0  0
 10 11  1  0  0  0
 11 12  2  0  0  0
 11 13  1  0  0  0
 13 15  1  0  0  0
 15 16  2  0  0  0
 16 17  1  0  0  0
 17 18  2  0  0  0
 18 19  1  0  0  0
 18 20  1  0  0  0
 20 21  1  0  0  0
 20 22  2  0  0  0
 13  2  1  0  0  0
 22 15  1  0  0  0
 10  4  1  0  0  0
  8 14  1  0  0  0
 19 23  1  0  0  0
M  END
> <minimizedAffinity>
4.83314

> <CNNscore>
0.3205944896

> <CNNaffinity>
6.6827263832

> <CNN_VS>
2.1424453259

> <CNNaffinity_variance>
0.9914351702

$$$$
[H]Oc1c([H])c([H])c(C2=C(C([H])([H])C([H])([H])C([H])([H])C([H])([H])[H])C([H])(C([H])([H])[H])C([H])([H])C2=O)c([H])c1C#N


 21 22  0  0  0  0  0  0  0  0999 V2000
    9.4268   45.4055  132.8724 C   0  0  0  0  0  0  0  0  0  0  0  0
    9.1852   46.5935  132.3683 C   0  0  0  0  0  0  0  0  0  0  0  0
    9.9812   47.5781  133.1332 C   0  0  0  0  0  0  0  0  0  0  0  0
   10.3415   48.6889  132.7095 O   0  0  0  0  0  0  0  0  0  0  0  0
   10.2396   46.9503  134.4799 C   0  0  0  0  0  0  0  0  0  0  0  0
   10.3917   45.4932  134.0090 C   0  0  0  0  0  0  0  0  0  0  0  0
   11.8285   45.3534  133.5681 C   0  0  0  0  0  0  0  0  0  0  0  0
    8.2915   46.9962  131.2775 C   0  0  0  0  0  0  0  0  0  0  0  0
    7.5923   46.0033  130.5852 C   0  0  0  0  0  0  0  0  0  0  0  0
    6.7560   46.3629  129.5527 C   0  0  0  0  0  0  0  0  0  0  0  0
    6.5847   47.6794  129.1765 C   0  0  0  0  0  0  0  0  0  0  0  0
    5.7327   48.0359  128.1273 O   0  0  0  0  0  0  0  0  0  0  0  0
    7.2754   48.6507  129.8605 C   0  0  0  0  0  0  0  0  0  0  0  0
    8.1125   48.3004  130.8923 C   0  0  0  0  0  0  0  0  0  0  0  0
    5.6293   48.9981  127.8828 H   0  0  0  0  0  0  0  0  0  0  0  0
    7.1097   50.0490  129.4790 C   0  0  0  0  0  0  0  0  0  0  0  0
    6.9611   51.1577  129.1785 N   0  0  0  0  0  0  0  0  0  0  0  0
    8.8443   44.1313  132.4100 C   0  0  0  0  0  0  0  0  0  0  0  0
    9.9578   43.1505  132.0868 C   0  0  0  0  0  0  0  0  0  0  0  0
    9.4252   42.9895  129.6467 C   0  0  0  0  0  0  0  0  0  0  0  0
   10.4172   43.4740  130.6670 C   0  0  0  0  0  0  0  0  0  0  0  0
 20 21  1  0  0  0
 21 19  1  0  0  0
 19 18  1  0  0  0
 18  1  1  0  0  0
  1  2  2  0  0  0
  2  3  1  0  0  0
  3  4  2  0  0  0
  3  5  1  0  0  0
  5  6  1  0  0  0
  6  7  1  0  0  0
  2  8  1  0  0  0
  8  9  2  0  0  0
  9 10  1  0  0  0
 10 11  2  0  0  0
 11 12  1  0  0  0
 11 13  1  0  0  0
 13 16  1  0  0  0
 16 17  3  0  0  0
 13 14  2  0  0  0
  6  1  1  0  0  0
 14  8  1  0  0  0
 12 15  1  0  0  0
M  END
> <minimizedAffinity>
-7.77934

> <CNNscore>
0.9332973361

> <CNNaffinity>
7.6240129471

> <CNN_VS>
7.1154708862

> <CNNaffinity_variance>
0.3485352099

$$$$
[H]Oc1c([H])c([H])c(C2=C(C([H])([H])C([H])([H])C([H])([H])C([H])([H])[H])C([H])(C([H])([H])[H])C([H])([H])C2=O)c([H])c1C#N


 21 22  0  0  0  0  0  0  0  0999 V2000
   10.9350   44.9362  131.9277 C   0  0  0  0  0  0  0  0  0  0  0  0
    9.8277   45.6023  132.1603 C   0  0  0  0  0  0  0  0  0  0  0  0
    9.1082   44.9128  133.2536 C   0  0  0  0  0  0  0  0  0  0  0  0
    8.2827   45.4466  134.0132 O   0  0  0  0  0  0  0  0  0  0  0  0
    9.5862   43.4826  133.2313 C   0  0  0  0  0  0  0  0  0  0  0  0
   11.0477   43.7537  132.8330 C   0  0  0  0  0  0  0  0  0  0  0  0
   11.7708   44.0695  134.1198 C   0  0  0  0  0  0  0  0  0  0  0  0
    9.2845   46.7963  131.5045 C   0  0  0  0  0  0  0  0  0  0  0  0
    9.8517   48.0388  131.8022 C   0  0  0  0  0  0  0  0  0  0  0  0
    9.3482   49.1708  131.2025 C   0  0  0  0  0  0  0  0  0  0  0  0
    8.2955   49.1187  130.3120 C   0  0  0  0  0  0  0  0  0  0  0  0
    7.7908   50.2732  129.7068 O   0  0  0  0  0  0  0  0  0  0  0  0
    7.7417   47.8944  130.0241 C   0  0  0  0  0  0  0  0  0  0  0  0
    8.2381   46.7594  130.6185 C   0  0  0  0  0  0  0  0  0  0  0  0
    7.0301   50.1998  129.0647 H   0  0  0  0  0  0  0  0  0  0  0  0
    6.6273   47.8163  129.0859 C   0  0  0  0  0  0  0  0  0  0  0  0
    5.7362   47.7407  128.3498 N   0  0  0  0  0  0  0  0  0  0  0  0
   11.9557   45.2744  130.9175 C   0  0  0  0  0  0  0  0  0  0  0  0
   11.9736   44.2087  129.8358 C   0  0  0  0  0  0  0  0  0  0  0  0
   10.0059   43.7139  128.3707 C   0  0  0  0  0  0  0  0  0  0  0  0
   11.0703   44.7181  128.7152 C   0  0  0  0  0  0  0  0  0  0  0  0
 20 21  1  0  0  0
 21 19  1  0  0  0
 19 18  1  0  0  0
 18  1  1  0  0  0
  1  2  2  0  0  0
  2  3  1  0  0  0
  3  4  2  0  0  0
  3  5  1  0  0  0
  5  6  1  0  0  0
  6  7  1  0  0  0
  2  8  1  0  0  0
  8  9  2  0  0  0
  9 10  1  0  0  0
 10 11  2  0  0  0
 11 12  1  0  0  0
 11 13  1  0  0  0
 13 16  1  0  0  0
 16 17  3  0  0  0
 13 14  2  0  0  0
  6  1  1  0  0  0
 14  8  1  0  0  0
 12 15  1  0  0  0
M  END
> <minimizedAffinity>
-8.28857

> <CNNscore>
0.8911885023

> <CNNaffinity>
7.6062822342

> <CNN_VS>
6.7786312103

> <CNNaffinity_variance>
0.3855733275

$$$$
[H]Oc1c([H])c([H])c(C2=C(C([H])([H])C([H])([H])C([H])([H])C([H])([H])[H])C([H])(C([H])([H])[H])C([H])([H])C2=O)c([H])c1C#N


 21 22  0  0  0  0  0  0  0  0999 V2000
   10.9926   45.0293  132.0809 C   0  0  0  0  0  0  0  0  0  0  0  0
   10.7421   45.6471  130.9498 C   0  0  0  0  0  0  0  0  0  0  0  0
   11.5070   44.9637  129.8839 C   0  0  0  0  0  0  0  0  0  0  0  0
   11.2158   44.9755  128.6763 O   0  0  0  0  0  0  0  0  0  0  0  0
   12.6647   44.2840  130.5710 C   0  0  0  0  0  0  0  0  0  0  0  0
   11.9403   43.8942  131.8715 C   0  0  0  0  0  0  0  0  0  0  0  0
   11.2365   42.5925  131.5736 C   0  0  0  0  0  0  0  0  0  0  0  0
    9.9073   46.8214  130.6761 C   0  0  0  0  0  0  0  0  0  0  0  0
   10.3554   48.0744  131.1044 C   0  0  0  0  0  0  0  0  0  0  0  0
    9.5800   49.1860  130.8636 C   0  0  0  0  0  0  0  0  0  0  0  0
    8.3678   49.1032  130.2098 C   0  0  0  0  0  0  0  0  0  0  0  0
    7.5871   50.2373  129.9688 O   0  0  0  0  0  0  0  0  0  0  0  0
    7.9325   47.8685  129.7921 C   0  0  0  0  0  0  0  0  0  0  0  0
    8.7001   46.7537  130.0285 C   0  0  0  0  0  0  0  0  0  0  0  0
    6.7163   50.1425  129.4902 H   0  0  0  0  0  0  0  0  0  0  0  0
    6.6534   47.7578  129.0995 C   0  0  0  0  0  0  0  0  0  0  0  0
    5.6365   47.6533  128.5547 N   0  0  0  0  0  0  0  0  0  0  0  0
   10.4359   45.3774  133.4022 C   0  0  0  0  0  0  0  0  0  0  0  0
    9.0732   44.7278  133.5673 C   0  0  0  0  0  0  0  0  0  0  0  0
    8.8463   47.0973  134.3403 C   0  0  0  0  0  0  0  0  0  0  0  0
    8.1081   45.8455  133.9555 C   0  0  0  0  0  0  0  0  0  0  0  0
 20 21  1  0  0  0
 21 19  1  0  0  0
 19 18  1  0  0  0
 18  1  1  0  0  0
  1  2  2  0  0  0
  2  3  1  0  0  0
  3  4  2  0  0  0
  3  5  1  0  0  0
  5  6  1  0  0  0
  6  7  1  0  0  0
  2  8  1  0  0  0
  8  9  2  0  0  0
  9 10  1  0  0  0
 10 11  2  0  0  0
 11 12  1  0  0  0
 11 13  1  0  0  0
 13 16  1  0  0  0
 16 17  3  0  0  0
 13 14  2  0  0  0
  6  1  1  0  0  0
 14  8  1  0  0  0
 12 15  1  0  0  0
M  END
> <minimizedAffinity>
-7.88074

> <CNNscore>
0.7255076170

> <CNNaffinity>
7.2427191734

> <CNN_VS>
5.2546477318

> <CNNaffinity_variance>
0.1614007801

$$$$
[H]Oc1c([H])c([H])c(C2=C(C([H])([H])C([H])([H])C([H])([H])C([H])([H])[H])C([H])(C([H])([H])[H])C([H])([H])C2=O)c([H])c1C#N


 21 22  0  0  0  0  0  0  0  0999 V2000
    9.5911   44.1338  132.3548 C   0  0  0  0  0  0  0  0  0  0  0  0
   10.2134   45.2776  132.5229 C   0  0  0  0  0  0  0  0  0  0  0  0
   11.4590   45.0070  133.2736 C   0  0  0  0  0  0  0  0  0  0  0  0
   12.4749   45.7218  133.2529 O   0  0  0  0  0  0  0  0  0  0  0  0
   11.2195   43.7256  134.0321 C   0  0  0  0  0  0  0  0  0  0  0  0
   10.3570   43.0122  132.9760 C   0  0  0  0  0  0  0  0  0  0  0  0
   11.3309   42.3687  132.0190 C   0  0  0  0  0  0  0  0  0  0  0  0
    9.8292   46.6338  132.1183 C   0  0  0  0  0  0  0  0  0  0  0  0
   10.1678   47.7019  132.9542 C   0  0  0  0  0  0  0  0  0  0  0  0
    9.8071   48.9805  132.5940 C   0  0  0  0  0  0  0  0  0  0  0  0
    9.1178   49.2437  131.4280 C   0  0  0  0  0  0  0  0  0  0  0  0
    8.7560   50.5454  131.0695 O   0  0  0  0  0  0  0  0  0  0  0  0
    8.7871   48.1895  130.6110 C   0  0  0  0  0  0  0  0  0  0  0  0
    9.1431   46.9099  130.9631 C   0  0  0  0  0  0  0  0  0  0  0  0
    8.2603   50.7012  130.2173 H   0  0  0  0  0  0  0  0  0  0  0  0
    8.0577   48.4449  129.3737 C   0  0  0  0  0  0  0  0  0  0  0  0
    7.4645   48.6401  128.3982 N   0  0  0  0  0  0  0  0  0  0  0  0
    8.3071   43.9386  131.6548 C   0  0  0  0  0  0  0  0  0  0  0  0
    8.5084   43.0060  130.4733 C   0  0  0  0  0  0  0  0  0  0  0  0
   10.0932   43.4911  128.5981 C   0  0  0  0  0  0  0  0  0  0  0  0
    8.8106   43.8956  129.2697 C   0  0  0  0  0  0  0  0  0  0  0  0
 20 21  1  0  0  0
 21 19  1  0  0  0
 19 18  1  0  0  0
 18  1  1  0  0  0
  1  2  2  0  0  0
  2  3  1  0  0  0
  3  4  2  0  0  0
  3  5  1  0  0  0
  5  6  1  0  0  0
  6  7  1  0  0  0
  2  8  1  0  0  0
  8  9  2  0  0  0
  9 10  1  0  0  0
 10 11  2  0  0  0
 11 12  1  0  0  0
 11 13  1  0  0  0
 13 16  1  0  0  0
 16 17  3  0  0  0
 13 14  2  0  0  0
  6  1  1  0  0  0
 14  8  1  0  0  0
 12 15  1  0  0  0
M  END
> <minimizedAffinity>
-7.82486

> <CNNscore>
0.6960484385

> <CNNaffinity>
7.3377122879

> <CNN_VS>
5.1074032784

> <CNNaffinity_variance>
0.4718576074

$$$$
[H]Oc1c([H])c([H])c(C2=C(C([H])([H])C([H])([H])C([H])([H])C([H])([H])[H])C([H])(C([H])([H])[H])C([H])([H])C2=O)c([H])c1C#N


 21 22  0  0  0  0  0  0  0  0999 V2000
   10.9502   45.0448  131.7380 C   0  0  0  0  0  0  0  0  0  0  0  0
    9.7047   45.3796  131.9838 C   0  0  0  0  0  0  0  0  0  0  0  0
    9.3363   44.8111  133.2989 C   0  0  0  0  0  0  0  0  0  0  0  0
    8.4381   45.2463  134.0387 O   0  0  0  0  0  0  0  0  0  0  0  0
   10.2589   43.6388  133.5204 C   0  0  0  0  0  0  0  0  0  0  0  0
   11.5145   44.2283  132.8540 C   0  0  0  0  0  0  0  0  0  0  0  0
   12.1834   45.0698  133.9137 C   0  0  0  0  0  0  0  0  0  0  0  0
    8.7498   46.1403  131.1712 C   0  0  0  0  0  0  0  0  0  0  0  0
    7.8675   45.4386  130.3447 C   0  0  0  0  0  0  0  0  0  0  0  0
    6.9708   46.1373  129.5686 C   0  0  0  0  0  0  0  0  0  0  0  0
    6.9144   47.5159  129.5797 C   0  0  0  0  0  0  0  0  0  0  0  0
    5.9999   48.2175  128.7889 O   0  0  0  0  0  0  0  0  0  0  0  0
    7.7849   48.2000  130.3937 C   0  0  0  0  0  0  0  0  0  0  0  0
    8.6834   47.5104  131.1716 C   0  0  0  0  0  0  0  0  0  0  0  0
    5.9836   49.2150  128.8231 H   0  0  0  0  0  0  0  0  0  0  0  0
    7.7431   49.6579  130.4205 C   0  0  0  0  0  0  0  0  0  0  0  0
    7.6957   50.8152  130.4319 N   0  0  0  0  0  0  0  0  0  0  0  0
   11.7245   45.4040  130.5346 C   0  0  0  0  0  0  0  0  0  0  0  0
   11.8066   44.2053  129.6059 C   0  0  0  0  0  0  0  0  0  0  0  0
    9.9575   43.4129  128.1171 C   0  0  0  0  0  0  0  0  0  0  0  0
   10.9213   44.5301  128.4050 C   0  0  0  0  0  0  0  0  0  0  0  0
 20 21  1  0  0  0
 21 19  1  0  0  0
 19 18  1  0  0  0
 18  1  1  0  0  0
  1  2  2  0  0  0
  2  3  1  0  0  0
  3  4  2  0  0  0
  3  5  1  0  0  0
  5  6  1  0  0  0
  6  7  1  0  0  0
  2  8  1  0  0  0
  8  9  2  0  0  0
  9 10  1  0  0  0
 10 11  2  0  0  0
 11 12  1  0  0  0
 11 13  1  0  0  0
 13 16  1  0  0  0
 16 17  3  0  0  0
 13 14  2  0  0  0
  6  1  1  0  0  0
 14  8  1  0  0  0
 12 15  1  0  0  0
M  END
> <minimizedAffinity>
-7.32677

> <CNNscore>
0.5964636803

> <CNNaffinity>
7.1390609741

> <CNN_VS>
4.2581906319

> <CNNaffinity_variance>
0.2369659394

$$$$
[H]Oc1c([H])c([H])c(C2=C(C([H])([H])C([H])([H])C([H])([H])C([H])([H])[H])C([H])(C([H])([H])[H])C([H])([H])C2=O)c([H])c1C#N


 21 22  0  0  0  0  0  0  0  0999 V2000
    8.4725   44.4491  131.6893 C   0  0  0  0  0  0  0  0  0  0  0  0
    8.4161   45.1004  130.5507 C   0  0  0  0  0  0  0  0  0  0  0  0
    8.9466   44.2099  129.4953 C   0  0  0  0  0  0  0  0  0  0  0  0
    8.6729   44.2933  128.2864 O   0  0  0  0  0  0  0  0  0  0  0  0
    9.8521   43.2271  130.1944 C   0  0  0  0  0  0  0  0  0  0  0  0
    9.0438   43.0829  131.4960 C   0  0  0  0  0  0  0  0  0  0  0  0
    7.9880   42.0430  131.2090 C   0  0  0  0  0  0  0  0  0  0  0  0
    7.9646   46.4653  130.2611 C   0  0  0  0  0  0  0  0  0  0  0  0
    6.8815   46.6414  129.3951 C   0  0  0  0  0  0  0  0  0  0  0  0
    6.4504   47.9162  129.1053 C   0  0  0  0  0  0  0  0  0  0  0  0
    7.0564   49.0323  129.6447 C   0  0  0  0  0  0  0  0  0  0  0  0
    6.6116   50.3232  129.3456 O   0  0  0  0  0  0  0  0  0  0  0  0
    8.1211   48.8525  130.4946 C   0  0  0  0  0  0  0  0  0  0  0  0
    8.5581   47.5836  130.7891 C   0  0  0  0  0  0  0  0  0  0  0  0
    7.0707   51.1091  129.7555 H   0  0  0  0  0  0  0  0  0  0  0  0
    8.7772   50.0188  131.0757 C   0  0  0  0  0  0  0  0  0  0  0  0
    9.2828   50.9507  131.5421 N   0  0  0  0  0  0  0  0  0  0  0  0
    8.0420   44.9608  133.0045 C   0  0  0  0  0  0  0  0  0  0  0  0
    9.2552   45.1533  133.8974 C   0  0  0  0  0  0  0  0  0  0  0  0
   10.2850   47.4328  133.8141 C   0  0  0  0  0  0  0  0  0  0  0  0
    9.1900   46.5910  134.4076 C   0  0  0  0  0  0  0  0  0  0  0  0
 20 21  1  0  0  0
 21 19  1  0  0  0
 19 18  1  0  0  0
 18  1  1  0  0  0
  1  2  2  0  0  0
  2  3  1  0  0  0
  3  4  2  0  0  0
  3  5  1  0  0  0
  5  6  1  0  0  0
  6  7  1  0  0  0
  2  8  1  0  0  0
  8  9  2  0  0  0
  9 10  1  0  0  0
 10 11  2  0  0  0
 11 12  1  0  0  0
 11 13  1  0  0  0
 13 16  1  0  0  0
 16 17  3  0  0  0
 13 14  2  0  0  0
  6  1  1  0  0  0
 14  8  1  0  0  0
 12 15  1  0  0  0
M  END
> <minimizedAffinity>
-6.31255

> <CNNscore>
0.5605402589

> <CNNaffinity>
7.0545816422

> <CNN_VS>
3.9543769360

> <CNNaffinity_variance>
0.4603627324

$$$$
[H]Oc1c([H])c([H])c(C2=C(C([H])([H])C([H])([H])C([H])([H])C([H])([H])[H])C([H])(C([H])([H])[H])C([H])([H])C2=O)c([H])c1C#N


 21 22  0  0  0  0  0  0  0  0999 V2000
   10.1297   44.7162  131.5294 C   0  0  0  0  0  0  0  0  0  0  0  0
    9.8519   45.3560  130.4171 C   0  0  0  0  0  0  0  0  0  0  0  0
   10.8425   44.9418  129.3995 C   0  0  0  0  0  0  0  0  0  0  0  0
   10.6664   44.9892  128.1706 O   0  0  0  0  0  0  0  0  0  0  0  0
   12.0550   44.4726  130.1637 C   0  0  0  0  0  0  0  0  0  0  0  0
   11.3204   43.8318  131.3544 C   0  0  0  0  0  0  0  0  0  0  0  0
   10.9524   42.4381  130.9063 C   0  0  0  0  0  0  0  0  0  0  0  0
    8.8060   46.3421  130.1270 C   0  0  0  0  0  0  0  0  0  0  0  0
    7.6368   45.9099  129.4943 C   0  0  0  0  0  0  0  0  0  0  0  0
    6.6485   46.8239  129.2065 C   0  0  0  0  0  0  0  0  0  0  0  0
    6.7755   48.1607  129.5238 C   0  0  0  0  0  0  0  0  0  0  0  0
    5.7666   49.0820  129.2285 O   0  0  0  0  0  0  0  0  0  0  0  0
    7.9275   48.5795  130.1448 C   0  0  0  0  0  0  0  0  0  0  0  0
    8.9191   47.6738  130.4355 C   0  0  0  0  0  0  0  0  0  0  0  0
    5.8893   50.0416  129.4745 H   0  0  0  0  0  0  0  0  0  0  0  0
    8.0831   49.9887  130.4885 C   0  0  0  0  0  0  0  0  0  0  0  0
    8.2065   51.1034  130.7782 N   0  0  0  0  0  0  0  0  0  0  0  0
    9.3926   44.8280  132.8026 C   0  0  0  0  0  0  0  0  0  0  0  0
    9.9774   45.9581  133.6316 C   0  0  0  0  0  0  0  0  0  0  0  0
   11.3974   44.1629  134.6437 C   0  0  0  0  0  0  0  0  0  0  0  0
   10.4856   45.3246  134.9246 C   0  0  0  0  0  0  0  0  0  0  0  0
 20 21  1  0  0  0
 21 19  1  0  0  0
 19 18  1  0  0  0
 18  1  1  0  0  0
  1  2  2  0  0  0
  2  3  1  0  0  0
  3  4  2  0  0  0
  3  5  1  0  0  0
  5  6  1  0  0  0
  6  7  1  0  0  0
  2  8  1  0  0  0
  8  9  2  0  0  0
  9 10  1  0  0  0
 10 11  2  0  0  0
 11 12  1  0  0  0
 11 13  1  0  0  0
 13 16  1  0  0  0
 16 17  3  0  0  0
 13 14  2  0  0  0
  6  1  1  0  0  0
 14  8  1  0  0  0
 12 15  1  0  0  0
M  END
> <minimizedAffinity>
-5.95824

> <CNNscore>
0.5495331883

> <CNNaffinity>
7.1674547195

> <CNN_VS>
3.9387543201

> <CNNaffinity_variance>
0.6783923507

$$$$
[H]Oc1c([H])c([H])c(C2=C(C([H])([H])C([H])([H])C([H])([H])C([H])([H])[H])C([H])(C([H])([H])[H])C([H])([H])C2=O)c([H])c1C#N


 21 22  0  0  0  0  0  0  0  0999 V2000
   10.1926   45.0949  132.0082 C   0  0  0  0  0  0  0  0  0  0  0  0
    9.0047   45.6142  131.8009 C   0  0  0  0  0  0  0  0  0  0  0  0
    8.1247   45.1831  132.9091 C   0  0  0  0  0  0  0  0  0  0  0  0
    7.1039   45.7830  133.2851 O   0  0  0  0  0  0  0  0  0  0  0  0
    8.7257   43.9093  133.4482 C   0  0  0  0  0  0  0  0  0  0  0  0
   10.2078   44.2767  133.2575 C   0  0  0  0  0  0  0  0  0  0  0  0
   10.5907   45.0793  134.4772 C   0  0  0  0  0  0  0  0  0  0  0  0
    8.5148   46.4501  130.7000 C   0  0  0  0  0  0  0  0  0  0  0  0
    8.4211   45.8871  129.4239 C   0  0  0  0  0  0  0  0  0  0  0  0
    7.9717   46.6601  128.3773 C   0  0  0  0  0  0  0  0  0  0  0  0
    7.6090   47.9804  128.5479 C   0  0  0  0  0  0  0  0  0  0  0  0
    7.1529   48.7580  127.4796 O   0  0  0  0  0  0  0  0  0  0  0  0
    7.7041   48.5282  129.8045 C   0  0  0  0  0  0  0  0  0  0  0  0
    8.1519   47.7637  130.8548 C   0  0  0  0  0  0  0  0  0  0  0  0
    6.8956   49.7094  127.6382 H   0  0  0  0  0  0  0  0  0  0  0  0
    7.3265   49.9227  130.0073 C   0  0  0  0  0  0  0  0  0  0  0  0
    7.0124   51.0272  130.1589 N   0  0  0  0  0  0  0  0  0  0  0  0
   11.3785   45.2694  131.1480 C   0  0  0  0  0  0  0  0  0  0  0  0
   12.6046   45.5032  132.0132 C   0  0  0  0  0  0  0  0  0  0  0  0
   13.5534   44.7474  134.2023 C   0  0  0  0  0  0  0  0  0  0  0  0
   12.5639   44.4438  133.1121 C   0  0  0  0  0  0  0  0  0  0  0  0
 20 21  1  0  0  0
 21 19  1  0  0  0
 19 18  1  0  0  0
 18  1  1  0  0  0
  1  2  2  0  0  0
  2  3  1  0  0  0
  3  4  2  0  0  0
  3  5  1  0  0  0
  5  6  1  0  0  0
  6  7  1  0  0  0
  2  8  1  0  0  0
  8  9  2  0  0  0
  9 10  1  0  0  0
 10 11  2  0  0  0
 11 12  1  0  0  0
 11 13  1  0  0  0
 13 16  1  0  0  0
 16 17  3  0  0  0
 13 14  2  0  0  0
  6  1  1  0  0  0
 14  8  1  0  0  0
 12 15  1  0  0  0
M  END
> <minimizedAffinity>
-2.55368

> <CNNscore>
0.5468867421

> <CNNaffinity>
7.1004819870

> <CNN_VS>
3.8831593990

> <CNNaffinity_variance>
1.5313129425

$$$$
[H]Oc1c([H])c([H])c(C2=C(C([H])([H])C([H])([H])C([H])([H])C([H])([H])[H])C([H])(C([H])([H])[H])C([H])([H])C2=O)c([H])c1C#N


 21 22  0  0  0  0  0  0  0  0999 V2000
    9.0267   44.1705  130.7411 C   0  0  0  0  0  0  0  0  0  0  0  0
    9.1448   45.1266  131.6332 C   0  0  0  0  0  0  0  0  0  0  0  0
    9.2656   44.4900  132.9630 C   0  0  0  0  0  0  0  0  0  0  0  0
    9.7998   45.0090  133.9573 O   0  0  0  0  0  0  0  0  0  0  0  0
    8.6209   43.1325  132.8362 C   0  0  0  0  0  0  0  0  0  0  0  0
    9.0536   42.8263  131.3915 C   0  0  0  0  0  0  0  0  0  0  0  0
   10.4467   42.2544  131.4940 C   0  0  0  0  0  0  0  0  0  0  0  0
    9.1382   46.5837  131.4670 C   0  0  0  0  0  0  0  0  0  0  0  0
   10.2231   47.3171  131.9561 C   0  0  0  0  0  0  0  0  0  0  0  0
   10.2290   48.6865  131.8166 C   0  0  0  0  0  0  0  0  0  0  0  0
    9.1926   49.3627  131.2064 C   0  0  0  0  0  0  0  0  0  0  0  0
    9.2071   50.7537  131.0682 O   0  0  0  0  0  0  0  0  0  0  0  0
    8.1286   48.6363  130.7285 C   0  0  0  0  0  0  0  0  0  0  0  0
    8.1145   47.2690  130.8638 C   0  0  0  0  0  0  0  0  0  0  0  0
    8.4423   51.2114  130.6188 H   0  0  0  0  0  0  0  0  0  0  0  0
    7.0216   49.3311  130.0805 C   0  0  0  0  0  0  0  0  0  0  0  0
    6.1410   49.8695  129.5549 N   0  0  0  0  0  0  0  0  0  0  0  0
    8.8831   44.3551  129.2844 C   0  0  0  0  0  0  0  0  0  0  0  0
   10.1296   43.8464  128.5818 C   0  0  0  0  0  0  0  0  0  0  0  0
   12.3366   44.6504  129.4455 C   0  0  0  0  0  0  0  0  0  0  0  0
   11.1366   44.9939  128.6078 C   0  0  0  0  0  0  0  0  0  0  0  0
 20 21  1  0  0  0
 21 19  1  0  0  0
 19 18  1  0  0  0
 18  1  1  0  0  0
  1  2  2  0  0  0
  2  3  1  0  0  0
  3  4  2  0  0  0
  3  5  1  0  0  0
  5  6  1  0  0  0
  6  7  1  0  0  0
  2  8  1  0  0  0
  8  9  2  0  0  0
  9 10  1  0  0  0
 10 11  2  0  0  0
 11 12  1  0  0  0
 11 13  1  0  0  0
 13 16  1  0  0  0
 16 17  3  0  0  0
 13 14  2  0  0  0
  6  1  1  0  0  0
 14  8  1  0  0  0
 12 15  1  0  0  0
M  END
> <minimizedAffinity>
-7.86186

> <CNNscore>
0.4977235794

> <CNNaffinity>
7.1210975647

> <CNN_VS>
3.5443382263

> <CNNaffinity_variance>
0.2363716662

$$$$
[H]c1c([H])c([H])c(C(c2c([H])c([H])c([H])c([H])c2[H])(c2c([H])c([H])c([H])c([H])c2[H])C([H])([H])Oc2c(-c3c([H])c([H])c(OC([H])([H])C([H])([H])N(C([H])([H])[H])C([H])([H])[H])c([H])c3[H])c([H])n3c([H])c(OC([H])([H])[H])c([H])c([H])c23)c([H])c1[H]


 44 49  0  0  0  0  0  0  0  0999 V2000
    6.7173   51.4792  128.9165 C   0  0  0  0  0  0  0  0  0  0  0  0
    6.5073   51.3035  130.2745 C   0  0  0  0  0  0  0  0  0  0  0  0
    6.7817   50.0738  130.8545 C   0  0  0  0  0  0  0  0  0  0  0  0
    7.2597   49.0229  130.1039 C   0  0  0  0  0  0  0  0  0  0  0  0
    7.6158   47.7194  130.3987 C   0  0  0  0  0  0  0  0  0  0  0  0
    8.0218   47.1674  129.2246 C   0  0  0  0  0  0  0  0  0  0  0  0
    7.9129   48.1407  128.2037 C   0  0  0  0  0  0  0  0  0  0  0  0
    7.4433   49.2571  128.7884 N   0  0  0  0  0  0  0  0  0  0  0  0
    7.1922   50.4313  128.1798 C   0  0  0  0  0  0  0  0  0  0  0  0
    8.5034   45.8144  129.0036 C   0  0  0  0  0  0  0  0  0  0  0  0
    7.9691   44.7019  129.5951 C   0  0  0  0  0  0  0  0  0  0  0  0
    8.4511   43.4358  129.3511 C   0  0  0  0  0  0  0  0  0  0  0  0
    9.5259   43.2118  128.4752 C   0  0  0  0  0  0  0  0  0  0  0  0
   10.0587   44.3307  127.8852 C   0  0  0  0  0  0  0  0  0  0  0  0
    9.5643   45.5966  128.1395 C   0  0  0  0  0  0  0  0  0  0  0  0
    9.9217   41.9300  128.3072 O   0  0  0  0  0  0  0  0  0  0  0  0
   10.1548   40.8825  129.1500 C   0  0  0  0  0  0  0  0  0  0  0  0
    9.6601   41.0398  130.5457 C   0  0  0  0  0  0  0  0  0  0  0  0
   10.2595   42.1834  131.2234 N   0  0  0  0  0  0  0  0  0  0  0  0
    9.2891   42.6306  132.2124 C   0  0  0  0  0  0  0  0  0  0  0  0
   11.4629   41.8143  131.9326 C   0  0  0  0  0  0  0  0  0  0  0  0
    7.4245   53.3198  127.5050 C   0  0  0  0  0  0  0  0  0  0  0  0
    6.4596   52.6787  128.3001 O   0  0  0  0  0  0  0  0  0  0  0  0
    7.5469   47.1490  131.6446 O   0  0  0  0  0  0  0  0  0  0  0  0
    8.4022   46.1040  132.0599 C   0  0  0  0  0  0  0  0  0  0  0  0
    9.6904   46.6127  132.6176 C   0  0  0  0  0  0  0  0  0  0  0  0
   10.8904   45.9833  132.0423 C   0  0  0  0  0  0  0  0  0  0  0  0
   10.9152   45.6124  130.7202 C   0  0  0  0  0  0  0  0  0  0  0  0
   12.0287   45.0064  130.1375 C   0  0  0  0  0  0  0  0  0  0  0  0
   13.1596   44.7540  130.8773 C   0  0  0  0  0  0  0  0  0  0  0  0
   13.1247   45.1292  132.2025 C   0  0  0  0  0  0  0  0  0  0  0  0
   12.0289   45.7262  132.7771 C   0  0  0  0  0  0  0  0  0  0  0  0
    9.8227   48.0909  132.4219 C   0  0  0  0  0  0  0  0  0  0  0  0
    9.4702   48.9801  133.4005 C   0  0  0  0  0  0  0  0  0  0  0  0
    9.6134   50.3572  133.1715 C   0  0  0  0  0  0  0  0  0  0  0  0
   10.0990   50.8567  131.9898 C   0  0  0  0  0  0  0  0  0  0  0  0
   10.4459   49.9393  131.0222 C   0  0  0  0  0  0  0  0  0  0  0  0
   10.3198   48.5957  131.2110 C   0  0  0  0  0  0  0  0  0  0  0  0
    9.6617   46.2431  134.0755 C   0  0  0  0  0  0  0  0  0  0  0  0
    9.0123   47.0725  134.9609 C   0  0  0  0  0  0  0  0  0  0  0  0
    9.0191   46.7076  136.2965 C   0  0  0  0  0  0  0  0  0  0  0  0
    9.6422   45.5664  136.7484 C   0  0  0  0  0  0  0  0  0  0  0  0
   10.2916   44.7370  135.8592 C   0  0  0  0  0  0  0  0  0  0  0  0
   10.2899   45.0921  134.5284 C   0  0  0  0  0  0  0  0  0  0  0  0
 22 23  1  0  0  0
 23  1  1  0  0  0
  1  2  1  0  0  0
  2  3  2  0  0  0
  3  4  1  0  0  0
  4  5  2  0  0  0
  5 24  1  0  0  0
 24 25  1  0  0  0
 25 26  1  0  0  0
 26 27  1  0  0  0
 27 28  2  0  0  0
 28 29  1  0  0  0
 29 30  2  0  0  0
 30 31  1  0  0  0
 31 32  2  0  0  0
 26 33  1  0  0  0
 33 34  2  0  0  0
 34 35  1  0  0  0
 35 36  2  0  0  0
 36 37  1  0  0  0
 37 38  2  0  0  0
 26 39  1  0  0  0
 39 40  2  0  0  0
 40 41  1  0  0  0
 41 42  2  0  0  0
 42 43  1  0  0  0
 43 44  2  0  0  0
  5  6  1  0  0  0
  6  7  2  0  0  0
  7  8  1  0  0  0
  8  9  1  0  0  0
  6 10  1  0  0  0
 10 11  2  0  0  0
 11 12  1  0  0  0
 12 13  2  0  0  0
 13 16  1  0  0  0
 16 17  1  0  0  0
 17 18  1  0  0  0
 18 19  1  0  0  0
 19 20  1  0  0  0
 19 21  1  0  0  0
 13 14  1  0  0  0
 14 15  2  0  0  0
  9  1  2  0  0  0
 15 10  1  0  0  0
  8  4  1  0  0  0
 32 27  1  0  0  0
 38 33  1  0  0  0
 44 39  1  0  0  0
M  END
> <minimizedAffinity>
7.81712

> <CNNscore>
0.4742971063

> <CNNaffinity>
8.1464519501

> <CNN_VS>
3.8638386726

> <CNNaffinity_variance>
0.2677274346

$$$$
[H]c1c([H])c([H])c(C(c2c([H])c([H])c([H])c([H])c2[H])(c2c([H])c([H])c([H])c([H])c2[H])C([H])([H])Oc2c(-c3c([H])c([H])c(OC([H])([H])C([H])([H])N(C([H])([H])[H])C([H])([H])[H])c([H])c3[H])c([H])n3c([H])c(OC([H])([H])[H])c([H])c([H])c23)c([H])c1[H]


 44 49  0  0  0  0  0  0  0  0999 V2000
   13.6302   44.1176  129.2577 C   0  0  0  0  0  0  0  0  0  0  0  0
   13.2935   43.5332  130.4678 C   0  0  0  0  0  0  0  0  0  0  0  0
   12.0345   43.7542  131.0061 C   0  0  0  0  0  0  0  0  0  0  0  0
   11.1117   44.5451  130.3587 C   0  0  0  0  0  0  0  0  0  0  0  0
    9.8149   44.9325  130.6434 C   0  0  0  0  0  0  0  0  0  0  0  0
    9.4246   45.7233  129.6087 C   0  0  0  0  0  0  0  0  0  0  0  0
   10.4911   45.8207  128.6844 C   0  0  0  0  0  0  0  0  0  0  0  0
   11.4994   45.0850  129.1851 N   0  0  0  0  0  0  0  0  0  0  0  0
   12.7082   44.9004  128.6223 C   0  0  0  0  0  0  0  0  0  0  0  0
    8.1381   46.3750  129.4304 C   0  0  0  0  0  0  0  0  0  0  0  0
    7.0195   46.0814  130.1623 C   0  0  0  0  0  0  0  0  0  0  0  0
    5.8212   46.7298  129.9663 C   0  0  0  0  0  0  0  0  0  0  0  0
    5.6770   47.7363  128.9976 C   0  0  0  0  0  0  0  0  0  0  0  0
    6.8013   48.0265  128.2658 C   0  0  0  0  0  0  0  0  0  0  0  0
    7.9987   47.3672  128.4736 C   0  0  0  0  0  0  0  0  0  0  0  0
    4.4569   48.3083  128.8861 O   0  0  0  0  0  0  0  0  0  0  0  0
    3.9067   49.4800  129.3175 C   0  0  0  0  0  0  0  0  0  0  0  0
    4.7544   50.6958  129.1737 C   0  0  0  0  0  0  0  0  0  0  0  0
    6.1471   50.4487  129.5277 N   0  0  0  0  0  0  0  0  0  0  0  0
    6.9372   51.4325  128.8013 C   0  0  0  0  0  0  0  0  0  0  0  0
    6.3855   50.6564  130.9374 C   0  0  0  0  0  0  0  0  0  0  0  0
   15.6810   42.8408  129.0468 C   0  0  0  0  0  0  0  0  0  0  0  0
   14.8645   43.9266  128.6876 O   0  0  0  0  0  0  0  0  0  0  0  0
    9.1138   44.5660  131.7643 O   0  0  0  0  0  0  0  0  0  0  0  0
    8.5148   45.5021  132.6365 C   0  0  0  0  0  0  0  0  0  0  0  0
    9.5229   46.3608  133.3263 C   0  0  0  0  0  0  0  0  0  0  0  0
    9.0369   46.9896  134.5656 C   0  0  0  0  0  0  0  0  0  0  0  0
    7.9292   47.8013  134.5455 C   0  0  0  0  0  0  0  0  0  0  0  0
    7.4404   48.4225  135.6952 C   0  0  0  0  0  0  0  0  0  0  0  0
    8.0595   48.2422  136.9093 C   0  0  0  0  0  0  0  0  0  0  0  0
    9.1700   47.4267  136.9189 C   0  0  0  0  0  0  0  0  0  0  0  0
    9.6520   46.8144  135.7875 C   0  0  0  0  0  0  0  0  0  0  0  0
   10.7549   45.5840  133.6718 C   0  0  0  0  0  0  0  0  0  0  0  0
   12.0057   46.1224  133.5367 C   0  0  0  0  0  0  0  0  0  0  0  0
   13.1316   45.3558  133.8747 C   0  0  0  0  0  0  0  0  0  0  0  0
   13.0291   44.0700  134.3417 C   0  0  0  0  0  0  0  0  0  0  0  0
   11.7583   43.5532  134.4676 C   0  0  0  0  0  0  0  0  0  0  0  0
   10.6436   44.2693  134.1487 C   0  0  0  0  0  0  0  0  0  0  0  0
    9.8183   47.4752  132.3600 C   0  0  0  0  0  0  0  0  0  0  0  0
   11.0664   47.5452  131.7845 C   0  0  0  0  0  0  0  0  0  0  0  0
   11.3065   48.5927  130.9114 C   0  0  0  0  0  0  0  0  0  0  0  0
   10.3534   49.5398  130.6125 C   0  0  0  0  0  0  0  0  0  0  0  0
    9.1038   49.4669  131.1899 C   0  0  0  0  0  0  0  0  0  0  0  0
    8.8559   48.4282  132.0598 C   0  0  0  0  0  0  0  0  0  0  0  0
 22 23  1  0  0  0
 23  1  1  0  0  0
  1  2  1  0  0  0
  2  3  2  0  0  0
  3  4  1  0  0  0
  4  5  2  0  0  0
  5 24  1  0  0  0
 24 25  1  0  0  0
 25 26  1  0  0  0
 26 27  1  0  0  0
 27 28  2  0  0  0
 28 29  1  0  0  0
 29 30  2  0  0  0
 30 31  1  0  0  0
 31 32  2  0  0  0
 26 33  1  0  0  0
 33 34  2  0  0  0
 34 35  1  0  0  0
 35 36  2  0  0  0
 36 37  1  0  0  0
 37 38  2  0  0  0
 26 39  1  0  0  0
 39 40  2  0  0  0
 40 41  1  0  0  0
 41 42  2  0  0  0
 42 43  1  0  0  0
 43 44  2  0  0  0
  5  6  1  0  0  0
  6  7  2  0  0  0
  7  8  1  0  0  0
  8  9  1  0  0  0
  6 10  1  0  0  0
 10 11  2  0  0  0
 11 12  1  0  0  0
 12 13  2  0  0  0
 13 16  1  0  0  0
 16 17  1  0  0  0
 17 18  1  0  0  0
 18 19  1  0  0  0
 19 20  1  0  0  0
 19 21  1  0  0  0
 13 14  1  0  0  0
 14 15  2  0  0  0
  9  1  2  0  0  0
 15 10  1  0  0  0
  8  4  1  0  0  0
 32 27  1  0  0  0
 38 33  1  0  0  0
 44 39  1  0  0  0
M  END
> <minimizedAffinity>
10.77194

> <CNNscore>
0.4730179310

> <CNNaffinity>
8.1164216995

> <CNN_VS>
3.8392128944

> <CNNaffinity_variance>
0.2859085500

$$$$
[H]c1c([H])c([H])c(C(c2c([H])c([H])c([H])c([H])c2[H])(c2c([H])c([H])c([H])c([H])c2[H])C([H])([H])Oc2c(-c3c([H])c([H])c(OC([H])([H])C([H])([H])N(C([H])([H])[H])C([H])([H])[H])c([H])c3[H])c([H])n3c([H])c(OC([H])([H])[H])c([H])c([H])c23)c([H])c1[H]


 44 49  0  0  0  0  0  0  0  0999 V2000
    7.0335   51.5883  128.7446 C   0  0  0  0  0  0  0  0  0  0  0  0
    7.2293   50.5212  127.8831 C   0  0  0  0  0  0  0  0  0  0  0  0
    7.6994   49.3163  128.3840 C   0  0  0  0  0  0  0  0  0  0  0  0
    7.9756   49.1613  129.7242 C   0  0  0  0  0  0  0  0  0  0  0  0
    8.4396   48.1077  130.4906 C   0  0  0  0  0  0  0  0  0  0  0  0
    8.5041   48.5727  131.7665 C   0  0  0  0  0  0  0  0  0  0  0  0
    8.0766   49.9212  131.7803 C   0  0  0  0  0  0  0  0  0  0  0  0
    7.7644   50.2363  130.5108 N   0  0  0  0  0  0  0  0  0  0  0  0
    7.3098   51.4252  130.0726 C   0  0  0  0  0  0  0  0  0  0  0  0
    8.9253   47.8459  132.9522 C   0  0  0  0  0  0  0  0  0  0  0  0
    8.2410   46.7898  133.4901 C   0  0  0  0  0  0  0  0  0  0  0  0
    8.6804   46.1230  134.6113 C   0  0  0  0  0  0  0  0  0  0  0  0
    9.8640   46.4909  135.2718 C   0  0  0  0  0  0  0  0  0  0  0  0
   10.5461   47.5510  134.7289 C   0  0  0  0  0  0  0  0  0  0  0  0
   10.0930   48.2115  133.6020 C   0  0  0  0  0  0  0  0  0  0  0  0
   10.2044   45.7709  136.3644 O   0  0  0  0  0  0  0  0  0  0  0  0
   10.2892   44.4379  136.6433 C   0  0  0  0  0  0  0  0  0  0  0  0
   11.4151   43.7032  136.0030 C   0  0  0  0  0  0  0  0  0  0  0  0
   11.6544   44.1366  134.6315 N   0  0  0  0  0  0  0  0  0  0  0  0
   12.9733   44.7531  134.6189 C   0  0  0  0  0  0  0  0  0  0  0  0
   11.6891   43.0194  133.7160 C   0  0  0  0  0  0  0  0  0  0  0  0
    7.2666   53.5384  127.3223 C   0  0  0  0  0  0  0  0  0  0  0  0
    6.5698   52.7992  128.2930 O   0  0  0  0  0  0  0  0  0  0  0  0
    8.7604   46.8650  130.0057 O   0  0  0  0  0  0  0  0  0  0  0  0
    8.2044   45.6723  130.5198 C   0  0  0  0  0  0  0  0  0  0  0  0
    9.1465   44.5181  130.4203 C   0  0  0  0  0  0  0  0  0  0  0  0
    9.2103   43.9012  129.0853 C   0  0  0  0  0  0  0  0  0  0  0  0
    9.9020   42.7305  128.8924 C   0  0  0  0  0  0  0  0  0  0  0  0
    9.9938   42.1170  127.6428 C   0  0  0  0  0  0  0  0  0  0  0  0
    9.3860   42.6708  126.5411 C   0  0  0  0  0  0  0  0  0  0  0  0
    8.6950   43.8453  126.7446 C   0  0  0  0  0  0  0  0  0  0  0  0
    8.6038   44.4501  127.9748 C   0  0  0  0  0  0  0  0  0  0  0  0
   10.5394   44.9181  130.7956 C   0  0  0  0  0  0  0  0  0  0  0  0
   10.7841   45.9804  131.6227 C   0  0  0  0  0  0  0  0  0  0  0  0
   12.1073   46.3168  131.9476 C   0  0  0  0  0  0  0  0  0  0  0  0
   13.1817   45.6147  131.4632 C   0  0  0  0  0  0  0  0  0  0  0  0
   12.9063   44.5505  130.6329 C   0  0  0  0  0  0  0  0  0  0  0  0
   11.6341   44.1963  130.2968 C   0  0  0  0  0  0  0  0  0  0  0  0
    8.5939   43.4769  131.3548 C   0  0  0  0  0  0  0  0  0  0  0  0
    7.7426   42.5177  130.8558 C   0  0  0  0  0  0  0  0  0  0  0  0
    7.2424   41.5846  131.7482 C   0  0  0  0  0  0  0  0  0  0  0  0
    7.5671   41.5922  133.0858 C   0  0  0  0  0  0  0  0  0  0  0  0
    8.4205   42.5539  133.5830 C   0  0  0  0  0  0  0  0  0  0  0  0
    8.9230   43.4862  132.7025 C   0  0  0  0  0  0  0  0  0  0  0  0
 22 23  1  0  0  0
 23  1  1  0  0  0
  1  2  1  0  0  0
  2  3  2  0  0  0
  3  4  1  0  0  0
  4  5  2  0  0  0
  5 24  1  0  0  0
 24 25  1  0  0  0
 25 26  1  0  0  0
 26 27  1  0  0  0
 27 28  2  0  0  0
 28 29  1  0  0  0
 29 30  2  0  0  0
 30 31  1  0  0  0
 31 32  2  0  0  0
 26 33  1  0  0  0
 33 34  2  0  0  0
 34 35  1  0  0  0
 35 36  2  0  0  0
 36 37  1  0  0  0
 37 38  2  0  0  0
 26 39  1  0  0  0
 39 40  2  0  0  0
 40 41  1  0  0  0
 41 42  2  0  0  0
 42 43  1  0  0  0
 43 44  2  0  0  0
  5  6  1  0  0  0
  6  7  2  0  0  0
  7  8  1  0  0  0
  8  9  1  0  0  0
  6 10  1  0  0  0
 10 11  2  0  0  0
 11 12  1  0  0  0
 12 13  2  0  0  0
 13 16  1  0  0  0
 16 17  1  0  0  0
 17 18  1  0  0  0
 18 19  1  0  0  0
 19 20  1  0  0  0
 19 21  1  0  0  0
 13 14  1  0  0  0
 14 15  2  0  0  0
  9  1  2  0  0  0
 15 10  1  0  0  0
  8  4  1  0  0  0
 32 27  1  0  0  0
 38 33  1  0  0  0
 44 39  1  0  0  0
M  END
> <minimizedAffinity>
10.13389

> <CNNscore>
0.4611822665

> <CNNaffinity>
8.0956745148

> <CNN_VS>
3.7335815430

> <CNNaffinity_variance>
0.4382500052

$$$$
[H]c1c([H])c([H])c(C(c2c([H])c([H])c([H])c([H])c2[H])(c2c([H])c([H])c([H])c([H])c2[H])C([H])([H])Oc2c(-c3c([H])c([H])c(OC([H])([H])C([H])([H])N(C([H])([H])[H])C([H])([H])[H])c([H])c3[H])c([H])n3c([H])c(OC([H])([H])[H])c([H])c([H])c23)c([H])c1[H]


 44 49  0  0  0  0  0  0  0  0999 V2000
    7.0170   51.5076  128.8415 C   0  0  0  0  0  0  0  0  0  0  0  0
    7.0043   50.3782  128.0395 C   0  0  0  0  0  0  0  0  0  0  0  0
    7.4075   49.1608  128.5678 C   0  0  0  0  0  0  0  0  0  0  0  0
    7.8209   49.0543  129.8770 C   0  0  0  0  0  0  0  0  0  0  0  0
    8.2639   48.0029  130.6589 C   0  0  0  0  0  0  0  0  0  0  0  0
    8.5222   48.5308  131.8848 C   0  0  0  0  0  0  0  0  0  0  0  0
    8.2353   49.9157  131.8523 C   0  0  0  0  0  0  0  0  0  0  0  0
    7.8104   50.1890  130.6059 N   0  0  0  0  0  0  0  0  0  0  0  0
    7.4283   51.3925  130.1393 C   0  0  0  0  0  0  0  0  0  0  0  0
    9.0042   47.8325  133.0644 C   0  0  0  0  0  0  0  0  0  0  0  0
    8.1941   47.3455  134.0541 C   0  0  0  0  0  0  0  0  0  0  0  0
    8.6922   46.6815  135.1522 C   0  0  0  0  0  0  0  0  0  0  0  0
   10.0695   46.4646  135.3209 C   0  0  0  0  0  0  0  0  0  0  0  0
   10.8776   46.9555  134.3261 C   0  0  0  0  0  0  0  0  0  0  0  0
   10.3634   47.6204  133.2284 C   0  0  0  0  0  0  0  0  0  0  0  0
   10.4528   45.8027  136.4358 O   0  0  0  0  0  0  0  0  0  0  0  0
   10.3944   44.5019  136.8438 C   0  0  0  0  0  0  0  0  0  0  0  0
   11.2842   43.5478  136.1259 C   0  0  0  0  0  0  0  0  0  0  0  0
   11.4716   43.9073  134.7252 N   0  0  0  0  0  0  0  0  0  0  0  0
   12.9066   44.0525  134.5260 C   0  0  0  0  0  0  0  0  0  0  0  0
   11.0143   42.8619  133.8390 C   0  0  0  0  0  0  0  0  0  0  0  0
    7.3318   53.3786  127.3313 C   0  0  0  0  0  0  0  0  0  0  0  0
    6.6265   52.7331  128.3610 O   0  0  0  0  0  0  0  0  0  0  0  0
    8.4011   46.7074  130.2286 O   0  0  0  0  0  0  0  0  0  0  0  0
    9.4897   46.2701  129.4414 C   0  0  0  0  0  0  0  0  0  0  0  0
    9.8506   44.8469  129.7127 C   0  0  0  0  0  0  0  0  0  0  0  0
    9.1250   44.2424  130.8420 C   0  0  0  0  0  0  0  0  0  0  0  0
    8.6344   42.9630  130.7485 C   0  0  0  0  0  0  0  0  0  0  0  0
    7.9347   42.3557  131.7916 C   0  0  0  0  0  0  0  0  0  0  0  0
    7.7068   43.0264  132.9698 C   0  0  0  0  0  0  0  0  0  0  0  0
    8.2024   44.3092  133.0537 C   0  0  0  0  0  0  0  0  0  0  0  0
    8.8917   44.9080  132.0272 C   0  0  0  0  0  0  0  0  0  0  0  0
    9.6089   43.9853  128.5126 C   0  0  0  0  0  0  0  0  0  0  0  0
    8.8468   44.4155  127.4606 C   0  0  0  0  0  0  0  0  0  0  0  0
    8.6493   43.5725  126.3562 C   0  0  0  0  0  0  0  0  0  0  0  0
    9.1963   42.3165  126.2862 C   0  0  0  0  0  0  0  0  0  0  0  0
    9.9585   41.9091  127.3590 C   0  0  0  0  0  0  0  0  0  0  0  0
   10.1707   42.7015  128.4471 C   0  0  0  0  0  0  0  0  0  0  0  0
   11.3051   44.8754  130.0955 C   0  0  0  0  0  0  0  0  0  0  0  0
   12.2461   44.4901  129.1683 C   0  0  0  0  0  0  0  0  0  0  0  0
   13.5737   44.5154  129.5610 C   0  0  0  0  0  0  0  0  0  0  0  0
   13.9649   44.9063  130.8214 C   0  0  0  0  0  0  0  0  0  0  0  0
   13.0202   45.2925  131.7481 C   0  0  0  0  0  0  0  0  0  0  0  0
   11.6970   45.2704  131.3663 C   0  0  0  0  0  0  0  0  0  0  0  0
 22 23  1  0  0  0
 23  1  1  0  0  0
  1  2  1  0  0  0
  2  3  2  0  0  0
  3  4  1  0  0  0
  4  5  2  0  0  0
  5 24  1  0  0  0
 24 25  1  0  0  0
 25 26  1  0  0  0
 26 27  1  0  0  0
 27 28  2  0  0  0
 28 29  1  0  0  0
 29 30  2  0  0  0
 30 31  1  0  0  0
 31 32  2  0  0  0
 26 33  1  0  0  0
 33 34  2  0  0  0
 34 35  1  0  0  0
 35 36  2  0  0  0
 36 37  1  0  0  0
 37 38  2  0  0  0
 26 39  1  0  0  0
 39 40  2  0  0  0
 40 41  1  0  0  0
 41 42  2  0  0  0
 42 43  1  0  0  0
 43 44  2  0  0  0
  5  6  1  0  0  0
  6  7  2  0  0  0
  7  8  1  0  0  0
  8  9  1  0  0  0
  6 10  1  0  0  0
 10 11  2  0  0  0
 11 12  1  0  0  0
 12 13  2  0  0  0
 13 16  1  0  0  0
 16 17  1  0  0  0
 17 18  1  0  0  0
 18 19  1  0  0  0
 19 20  1  0  0  0
 19 21  1  0  0  0
 13 14  1  0  0  0
 14 15  2  0  0  0
  9  1  2  0  0  0
 15 10  1  0  0  0
  8  4  1  0  0  0
 32 27  1  0  0  0
 38 33  1  0  0  0
 44 39  1  0  0  0
M  END
> <minimizedAffinity>
10.73721

> <CNNscore>
0.4474840164

> <CNNaffinity>
8.2169361115

> <CNN_VS>
3.6769475937

> <CNNaffinity_variance>
0.5099115372

$$$$
[H]c1c([H])c([H])c(C(c2c([H])c([H])c([H])c([H])c2[H])(c2c([H])c([H])c([H])c([H])c2[H])C([H])([H])Oc2c(-c3c([H])c([H])c(OC([H])([H])C([H])([H])N(C([H])([H])[H])C([H])([H])[H])c([H])c3[H])c([H])n3c([H])c(OC([H])([H])[H])c([H])c([H])c23)c([H])c1[H]


 44 49  0  0  0  0  0  0  0  0999 V2000
    7.0917   51.6141  128.9268 C   0  0  0  0  0  0  0  0  0  0  0  0
    7.4074   50.6285  128.0060 C   0  0  0  0  0  0  0  0  0  0  0  0
    7.9124   49.4154  128.4501 C   0  0  0  0  0  0  0  0  0  0  0  0
    8.1059   49.1726  129.7917 C   0  0  0  0  0  0  0  0  0  0  0  0
    8.5779   48.0894  130.5106 C   0  0  0  0  0  0  0  0  0  0  0  0
    8.5285   48.4576  131.8183 C   0  0  0  0  0  0  0  0  0  0  0  0
    8.0228   49.7764  131.8998 C   0  0  0  0  0  0  0  0  0  0  0  0
    7.7793   50.1711  130.6375 N   0  0  0  0  0  0  0  0  0  0  0  0
    7.2865   51.3643  130.2558 C   0  0  0  0  0  0  0  0  0  0  0  0
    8.9103   47.6653  132.9749 C   0  0  0  0  0  0  0  0  0  0  0  0
    8.1607   46.6410  133.4866 C   0  0  0  0  0  0  0  0  0  0  0  0
    8.5642   45.9094  134.5805 C   0  0  0  0  0  0  0  0  0  0  0  0
    9.7763   46.1741  135.2386 C   0  0  0  0  0  0  0  0  0  0  0  0
   10.5240   47.2027  134.7221 C   0  0  0  0  0  0  0  0  0  0  0  0
   10.1064   47.9291  133.6224 C   0  0  0  0  0  0  0  0  0  0  0  0
   10.0772   45.3970  136.3033 O   0  0  0  0  0  0  0  0  0  0  0  0
   11.0213   44.4450  136.5565 C   0  0  0  0  0  0  0  0  0  0  0  0
   11.1968   43.3995  135.5108 C   0  0  0  0  0  0  0  0  0  0  0  0
   11.8760   43.9070  134.3244 N   0  0  0  0  0  0  0  0  0  0  0  0
   13.1664   44.4107  134.7728 C   0  0  0  0  0  0  0  0  0  0  0  0
   12.1298   42.8582  133.3638 C   0  0  0  0  0  0  0  0  0  0  0  0
    7.1061   53.5133  127.4191 C   0  0  0  0  0  0  0  0  0  0  0  0
    6.5895   52.8297  128.5327 O   0  0  0  0  0  0  0  0  0  0  0  0
    9.0029   46.9066  129.9605 O   0  0  0  0  0  0  0  0  0  0  0  0
    8.2923   45.6938  130.1020 C   0  0  0  0  0  0  0  0  0  0  0  0
    9.2002   44.5200  130.2666 C   0  0  0  0  0  0  0  0  0  0  0  0
   10.5818   44.8695  130.6356 C   0  0  0  0  0  0  0  0  0  0  0  0
   11.6428   44.2276  130.0455 C   0  0  0  0  0  0  0  0  0  0  0  0
   12.9668   44.5228  130.3719 C   0  0  0  0  0  0  0  0  0  0  0  0
   13.2625   45.4820  131.3112 C   0  0  0  0  0  0  0  0  0  0  0  0
   12.1913   46.1199  131.8978 C   0  0  0  0  0  0  0  0  0  0  0  0
   10.8873   45.8301  131.5770 C   0  0  0  0  0  0  0  0  0  0  0  0
    8.6848   43.5743  131.3063 C   0  0  0  0  0  0  0  0  0  0  0  0
    9.1022   43.6397  132.6078 C   0  0  0  0  0  0  0  0  0  0  0  0
    8.5897   42.7322  133.5476 C   0  0  0  0  0  0  0  0  0  0  0  0
    7.6742   41.7677  133.2109 C   0  0  0  0  0  0  0  0  0  0  0  0
    7.2717   41.7245  131.8940 C   0  0  0  0  0  0  0  0  0  0  0  0
    7.7488   42.5898  130.9557 C   0  0  0  0  0  0  0  0  0  0  0  0
    9.2622   43.8765  128.9084 C   0  0  0  0  0  0  0  0  0  0  0  0
    8.6460   44.4989  127.8470 C   0  0  0  0  0  0  0  0  0  0  0  0
    8.7117   43.8699  126.6152 C   0  0  0  0  0  0  0  0  0  0  0  0
    9.3608   42.6702  126.4309 C   0  0  0  0  0  0  0  0  0  0  0  0
    9.9778   42.0491  127.4957 C   0  0  0  0  0  0  0  0  0  0  0  0
    9.9176   42.6676  128.7249 C   0  0  0  0  0  0  0  0  0  0  0  0
 22 23  1  0  0  0
 23  1  1  0  0  0
  1  2  1  0  0  0
  2  3  2  0  0  0
  3  4  1  0  0  0
  4  5  2  0  0  0
  5 24  1  0  0  0
 24 25  1  0  0  0
 25 26  1  0  0  0
 26 27  1  0  0  0
 27 28  2  0  0  0
 28 29  1  0  0  0
 29 30  2  0  0  0
 30 31  1  0  0  0
 31 32  2  0  0  0
 26 33  1  0  0  0
 33 34  2  0  0  0
 34 35  1  0  0  0
 35 36  2  0  0  0
 36 37  1  0  0  0
 37 38  2  0  0  0
 26 39  1  0  0  0
 39 40  2  0  0  0
 40 41  1  0  0  0
 41 42  2  0  0  0
 42 43  1  0  0  0
 43 44  2  0  0  0
  5  6  1  0  0  0
  6  7  2  0  0  0
  7  8  1  0  0  0
  8  9  1  0  0  0
  6 10  1  0  0  0
 10 11  2  0  0  0
 11 12  1  0  0  0
 12 13  2  0  0  0
 13 16  1  0  0  0
 16 17  1  0  0  0
 17 18  1  0  0  0
 18 19  1  0  0  0
 19 20  1  0  0  0
 19 21  1  0  0  0
 13 14  1  0  0  0
 14 15  2  0  0  0
  9  1  2  0  0  0
 15 10  1  0  0  0
  8  4  1  0  0  0
 32 27  1  0  0  0
 38 33  1  0  0  0
 44 39  1  0  0  0
M  END
> <minimizedAffinity>
10.45367

> <CNNscore>
0.4473783076

> <CNNaffinity>
8.0936021805

> <CNN_VS>
3.6209020615

> <CNNaffinity_variance>
0.3640558720

$$$$
[H]c1c([H])c([H])c(C(c2c([H])c([H])c([H])c([H])c2[H])(c2c([H])c([H])c([H])c([H])c2[H])C([H])([H])Oc2c(-c3c([H])c([H])c(OC([H])([H])C([H])([H])N(C([H])([H])[H])C([H])([H])[H])c([H])c3[H])c([H])n3c([H])c(OC([H])([H])[H])c([H])c([H])c23)c([H])c1[H]


 44 49  0  0  0  0  0  0  0  0999 V2000
   12.4603   44.4418  128.9218 C   0  0  0  0  0  0  0  0  0  0  0  0
   12.0358   43.7833  130.0643 C   0  0  0  0  0  0  0  0  0  0  0  0
   10.8166   44.1201  130.6336 C   0  0  0  0  0  0  0  0  0  0  0  0
   10.0194   45.0986  130.0829 C   0  0  0  0  0  0  0  0  0  0  0  0
    8.7882   45.6320  130.4184 C   0  0  0  0  0  0  0  0  0  0  0  0
    8.5209   46.5772  129.4786 C   0  0  0  0  0  0  0  0  0  0  0  0
    9.5972   46.6225  128.5615 C   0  0  0  0  0  0  0  0  0  0  0  0
   10.4879   45.7022  128.9716 N   0  0  0  0  0  0  0  0  0  0  0  0
   11.6627   45.4109  128.3822 C   0  0  0  0  0  0  0  0  0  0  0  0
    7.3406   47.4192  129.3822 C   0  0  0  0  0  0  0  0  0  0  0  0
    6.0557   46.9505  129.4310 C   0  0  0  0  0  0  0  0  0  0  0  0
    4.9645   47.7851  129.3443 C   0  0  0  0  0  0  0  0  0  0  0  0
    5.1083   49.1747  129.1999 C   0  0  0  0  0  0  0  0  0  0  0  0
    6.3988   49.6396  129.1507 C   0  0  0  0  0  0  0  0  0  0  0  0
    7.4856   48.7896  129.2392 C   0  0  0  0  0  0  0  0  0  0  0  0
    3.9718   49.9030  129.1231 O   0  0  0  0  0  0  0  0  0  0  0  0
    3.0960   50.2065  128.1218 C   0  0  0  0  0  0  0  0  0  0  0  0
    3.0931   51.6218  127.6585 C   0  0  0  0  0  0  0  0  0  0  0  0
    1.8833   51.9633  126.9196 N   0  0  0  0  0  0  0  0  0  0  0  0
    2.0154   53.3621  126.5378 C   0  0  0  0  0  0  0  0  0  0  0  0
    1.7632   51.1915  125.7042 C   0  0  0  0  0  0  0  0  0  0  0  0
   14.8660   44.1624  129.0442 C   0  0  0  0  0  0  0  0  0  0  0  0
   13.6594   44.1413  128.3243 O   0  0  0  0  0  0  0  0  0  0  0  0
    8.0343   45.2489  131.4988 O   0  0  0  0  0  0  0  0  0  0  0  0
    7.7483   46.1110  132.5810 C   0  0  0  0  0  0  0  0  0  0  0  0
    8.9845   46.5810  133.2741 C   0  0  0  0  0  0  0  0  0  0  0  0
    8.7471   47.1756  134.5997 C   0  0  0  0  0  0  0  0  0  0  0  0
    9.5600   46.8580  135.6601 C   0  0  0  0  0  0  0  0  0  0  0  0
    9.3653   47.3926  136.9339 C   0  0  0  0  0  0  0  0  0  0  0  0
    8.3361   48.2707  137.1783 C   0  0  0  0  0  0  0  0  0  0  0  0
    7.5260   48.5826  136.1085 C   0  0  0  0  0  0  0  0  0  0  0  0
    7.7170   48.0569  134.8537 C   0  0  0  0  0  0  0  0  0  0  0  0
    9.9662   45.4653  133.4533 C   0  0  0  0  0  0  0  0  0  0  0  0
    9.5618   44.1625  133.5629 C   0  0  0  0  0  0  0  0  0  0  0  0
   10.5194   43.1501  133.7283 C   0  0  0  0  0  0  0  0  0  0  0  0
   11.8640   43.4157  133.7859 C   0  0  0  0  0  0  0  0  0  0  0  0
   12.2428   44.7355  133.6731 C   0  0  0  0  0  0  0  0  0  0  0  0
   11.3400   45.7434  133.5117 C   0  0  0  0  0  0  0  0  0  0  0  0
    9.5352   47.6739  132.3994 C   0  0  0  0  0  0  0  0  0  0  0  0
   10.7690   47.5018  131.8147 C   0  0  0  0  0  0  0  0  0  0  0  0
   11.2498   48.5349  131.0280 C   0  0  0  0  0  0  0  0  0  0  0  0
   10.5433   49.6980  130.8215 C   0  0  0  0  0  0  0  0  0  0  0  0
    9.3072   49.8675  131.4079 C   0  0  0  0  0  0  0  0  0  0  0  0
    8.8209   48.8450  132.1922 C   0  0  0  0  0  0  0  0  0  0  0  0
 22 23  1  0  0  0
 23  1  1  0  0  0
  1  2  1  0  0  0
  2  3  2  0  0  0
  3  4  1  0  0  0
  4  5  2  0  0  0
  5 24  1  0  0  0
 24 25  1  0  0  0
 25 26  1  0  0  0
 26 27  1  0  0  0
 27 28  2  0  0  0
 28 29  1  0  0  0
 29 30  2  0  0  0
 30 31  1  0  0  0
 31 32  2  0  0  0
 26 33  1  0  0  0
 33 34  2  0  0  0
 34 35  1  0  0  0
 35 36  2  0  0  0
 36 37  1  0  0  0
 37 38  2  0  0  0
 26 39  1  0  0  0
 39 40  2  0  0  0
 40 41  1  0  0  0
 41 42  2  0  0  0
 42 43  1  0  0  0
 43 44  2  0  0  0
  5  6  1  0  0  0
  6  7  2  0  0  0
  7  8  1  0  0  0
  8  9  1  0  0  0
  6 10  1  0  0  0
 10 11  2  0  0  0
 11 12  1  0  0  0
 12 13  2  0  0  0
 13 16  1  0  0  0
 16 17  1  0  0  0
 17 18  1  0  0  0
 18 19  1  0  0  0
 19 20  1  0  0  0
 19 21  1  0  0  0
 13 14  1  0  0  0
 14 15  2  0  0  0
  9  1  2  0  0  0
 15 10  1  0  0  0
  8  4  1  0  0  0
 32 27  1  0  0  0
 38 33  1  0  0  0
 44 39  1  0  0  0
M  END
> <minimizedAffinity>
9.53579

> <CNNscore>
0.4130605459

> <CNNaffinity>
8.2331953049

> <CNN_VS>
3.4008080959

> <CNNaffinity_variance>
0.5759989023

$$$$
[H]c1c([H])c([H])c(C(c2c([H])c([H])c([H])c([H])c2[H])(c2c([H])c([H])c([H])c([H])c2[H])C([H])([H])Oc2c(-c3c([H])c([H])c(OC([H])([H])C([H])([H])N(C([H])([H])[H])C([H])([H])[H])c([H])c3[H])c([H])n3c([H])c(OC([H])([H])[H])c([H])c([H])c23)c([H])c1[H]


 44 49  0  0  0  0  0  0  0  0999 V2000
    9.8162   42.1529  128.2615 C   0  0  0  0  0  0  0  0  0  0  0  0
    9.4472   41.9119  129.5748 C   0  0  0  0  0  0  0  0  0  0  0  0
    8.8842   42.9340  130.3246 C   0  0  0  0  0  0  0  0  0  0  0  0
    8.6851   44.1858  129.7865 C   0  0  0  0  0  0  0  0  0  0  0  0
    8.1583   45.3666  130.2775 C   0  0  0  0  0  0  0  0  0  0  0  0
    8.2279   46.2610  129.2561 C   0  0  0  0  0  0  0  0  0  0  0  0
    8.8021   45.6225  128.1319 C   0  0  0  0  0  0  0  0  0  0  0  0
    9.0647   44.3570  128.5037 N   0  0  0  0  0  0  0  0  0  0  0  0
    9.6146   43.3977  127.7358 C   0  0  0  0  0  0  0  0  0  0  0  0
    7.7921   47.6472  129.2635 C   0  0  0  0  0  0  0  0  0  0  0  0
    8.6412   48.7198  129.3026 C   0  0  0  0  0  0  0  0  0  0  0  0
    8.1859   50.0188  129.2996 C   0  0  0  0  0  0  0  0  0  0  0  0
    6.8148   50.3198  129.2562 C   0  0  0  0  0  0  0  0  0  0  0  0
    5.9674   49.2407  129.2180 C   0  0  0  0  0  0  0  0  0  0  0  0
    6.4389   47.9410  129.2213 C   0  0  0  0  0  0  0  0  0  0  0  0
    6.4749   51.6284  129.2584 O   0  0  0  0  0  0  0  0  0  0  0  0
    7.0697   52.7720  128.8109 C   0  0  0  0  0  0  0  0  0  0  0  0
    7.0835   52.9709  127.3352 C   0  0  0  0  0  0  0  0  0  0  0  0
    7.0756   54.3808  126.9633 N   0  0  0  0  0  0  0  0  0  0  0  0
    8.3815   54.6609  126.3837 C   0  0  0  0  0  0  0  0  0  0  0  0
    6.0829   54.6615  125.9518 C   0  0  0  0  0  0  0  0  0  0  0  0
    9.9929   39.8253  127.6049 C   0  0  0  0  0  0  0  0  0  0  0  0
   10.3769   41.1713  127.4822 O   0  0  0  0  0  0  0  0  0  0  0  0
    7.6808   45.5438  131.5515 O   0  0  0  0  0  0  0  0  0  0  0  0
    8.3206   45.0114  132.6931 C   0  0  0  0  0  0  0  0  0  0  0  0
    9.6520   45.6396  132.9422 C   0  0  0  0  0  0  0  0  0  0  0  0
   10.7291   45.1430  132.0702 C   0  0  0  0  0  0  0  0  0  0  0  0
   11.0817   45.8350  130.9375 C   0  0  0  0  0  0  0  0  0  0  0  0
   12.0907   45.3954  130.0801 C   0  0  0  0  0  0  0  0  0  0  0  0
   12.7798   44.2350  130.3417 C   0  0  0  0  0  0  0  0  0  0  0  0
   12.4185   43.5478  131.4799 C   0  0  0  0  0  0  0  0  0  0  0  0
   11.4252   43.9799  132.3249 C   0  0  0  0  0  0  0  0  0  0  0  0
    9.5922   47.1263  132.7774 C   0  0  0  0  0  0  0  0  0  0  0  0
    8.4530   47.8344  133.0483 C   0  0  0  0  0  0  0  0  0  0  0  0
    8.4453   49.2276  132.8801 C   0  0  0  0  0  0  0  0  0  0  0  0
    9.5485   49.9197  132.4489 C   0  0  0  0  0  0  0  0  0  0  0  0
   10.6812   49.1819  132.1835 C   0  0  0  0  0  0  0  0  0  0  0  0
   10.7237   47.8284  132.3358 C   0  0  0  0  0  0  0  0  0  0  0  0
   10.0154   45.2481  134.3484 C   0  0  0  0  0  0  0  0  0  0  0  0
    9.5876   46.0370  135.3917 C   0  0  0  0  0  0  0  0  0  0  0  0
    9.9534   45.6534  136.6709 C   0  0  0  0  0  0  0  0  0  0  0  0
   10.7134   44.5327  136.9182 C   0  0  0  0  0  0  0  0  0  0  0  0
   11.1401   43.7439  135.8713 C   0  0  0  0  0  0  0  0  0  0  0  0
   10.7809   44.1178  134.5952 C   0  0  0  0  0  0  0  0  0  0  0  0
 22 23  1  0  0  0
 23  1  1  0  0  0
  1  2  1  0  0  0
  2  3  2  0  0  0
  3  4  1  0  0  0
  4  5  2  0  0  0
  5 24  1  0  0  0
 24 25  1  0  0  0
 25 26  1  0  0  0
 26 27  1  0  0  0
 27 28  2  0  0  0
 28 29  1  0  0  0
 29 30  2  0  0  0
 30 31  1  0  0  0
 31 32  2  0  0  0
 26 33  1  0  0  0
 33 34  2  0  0  0
 34 35  1  0  0  0
 35 36  2  0  0  0
 36 37  1  0  0  0
 37 38  2  0  0  0
 26 39  1  0  0  0
 39 40  2  0  0  0
 40 41  1  0  0  0
 41 42  2  0  0  0
 42 43  1  0  0  0
 43 44  2  0  0  0
  5  6  1  0  0  0
  6  7  2  0  0  0
  7  8  1  0  0  0
  8  9  1  0  0  0
  6 10  1  0  0  0
 10 11  2  0  0  0
 11 12  1  0  0  0
 12 13  2  0  0  0
 13 16  1  0  0  0
 16 17  1  0  0  0
 17 18  1  0  0  0
 18 19  1  0  0  0
 19 20  1  0  0  0
 19 21  1  0  0  0
 13 14  1  0  0  0
 14 15  2  0  0  0
  9  1  2  0  0  0
 15 10  1  0  0  0
  8  4  1  0  0  0
 32 27  1  0  0  0
 38 33  1  0  0  0
 44 39  1  0  0  0
M  END
> <minimizedAffinity>
5.99742

> <CNNscore>
0.3851364851

> <CNNaffinity>
8.0056476593

> <CNN_VS>
3.0832669735

> <CNNaffinity_variance>
0.4803953767

$$$$
[H]c1c([H])c([H])c(C(c2c([H])c([H])c([H])c([H])c2[H])(c2c([H])c([H])c([H])c([H])c2[H])C([H])([H])Oc2c(-c3c([H])c([H])c(OC([H])([H])C([H])([H])N(C([H])([H])[H])C([H])([H])[H])c([H])c3[H])c([H])n3c([H])c(OC([H])([H])[H])c([H])c([H])c23)c([H])c1[H]


 44 49  0  0  0  0  0  0  0  0999 V2000
    9.8880   42.1422  128.0373 C   0  0  0  0  0  0  0  0  0  0  0  0
    9.5550   41.8766  129.3555 C   0  0  0  0  0  0  0  0  0  0  0  0
    9.0005   42.8805  130.1355 C   0  0  0  0  0  0  0  0  0  0  0  0
    8.7747   44.1384  129.6226 C   0  0  0  0  0  0  0  0  0  0  0  0
    8.2482   45.3055  130.1456 C   0  0  0  0  0  0  0  0  0  0  0  0
    8.2826   46.2166  129.1372 C   0  0  0  0  0  0  0  0  0  0  0  0
    8.8348   45.6021  127.9888 C   0  0  0  0  0  0  0  0  0  0  0  0
    9.1200   44.3339  128.3336 N   0  0  0  0  0  0  0  0  0  0  0  0
    9.6602   43.3929  127.5369 C   0  0  0  0  0  0  0  0  0  0  0  0
    7.8327   47.5977  129.1778 C   0  0  0  0  0  0  0  0  0  0  0  0
    6.5332   47.9886  128.9997 C   0  0  0  0  0  0  0  0  0  0  0  0
    6.1481   49.3089  129.0545 C   0  0  0  0  0  0  0  0  0  0  0  0
    7.0730   50.3375  129.2978 C   0  0  0  0  0  0  0  0  0  0  0  0
    8.3749   49.9405  129.4749 C   0  0  0  0  0  0  0  0  0  0  0  0
    8.7474   48.6103  129.4174 C   0  0  0  0  0  0  0  0  0  0  0  0
    6.5900   51.5999  129.3302 O   0  0  0  0  0  0  0  0  0  0  0  0
    7.0265   52.8036  128.8586 C   0  0  0  0  0  0  0  0  0  0  0  0
    7.0921   52.9440  127.3775 C   0  0  0  0  0  0  0  0  0  0  0  0
    7.1393   54.3378  126.9518 N   0  0  0  0  0  0  0  0  0  0  0  0
    8.3804   54.4990  126.2078 C   0  0  0  0  0  0  0  0  0  0  0  0
    6.0521   54.6607  126.0569 C   0  0  0  0  0  0  0  0  0  0  0  0
   10.0148   39.8407  127.2840 C   0  0  0  0  0  0  0  0  0  0  0  0
   10.4390   41.1791  127.2286 O   0  0  0  0  0  0  0  0  0  0  0  0
    7.8013   45.4575  131.4338 O   0  0  0  0  0  0  0  0  0  0  0  0
    8.4234   44.8389  132.5412 C   0  0  0  0  0  0  0  0  0  0  0  0
    9.6626   45.5539  132.9685 C   0  0  0  0  0  0  0  0  0  0  0  0
    9.5982   47.0175  132.8236 C   0  0  0  0  0  0  0  0  0  0  0  0
   10.7190   47.7321  132.4782 C   0  0  0  0  0  0  0  0  0  0  0  0
   10.7033   49.1202  132.3382 C   0  0  0  0  0  0  0  0  0  0  0  0
    9.5472   49.8347  132.5443 C   0  0  0  0  0  0  0  0  0  0  0  0
    8.4285   49.1090  132.8909 C   0  0  0  0  0  0  0  0  0  0  0  0
    8.4429   47.7422  133.0288 C   0  0  0  0  0  0  0  0  0  0  0  0
    9.9958   45.2598  134.3979 C   0  0  0  0  0  0  0  0  0  0  0  0
    9.5456   46.0522  135.4188 C   0  0  0  0  0  0  0  0  0  0  0  0
    9.8828   45.7356  136.7437 C   0  0  0  0  0  0  0  0  0  0  0  0
   10.6567   44.6489  137.0630 C   0  0  0  0  0  0  0  0  0  0  0  0
   11.0963   43.8689  136.0160 C   0  0  0  0  0  0  0  0  0  0  0  0
   10.7879   44.1471  134.7181 C   0  0  0  0  0  0  0  0  0  0  0  0
   10.7380   45.0711  132.0340 C   0  0  0  0  0  0  0  0  0  0  0  0
   11.0908   45.8570  130.9608 C   0  0  0  0  0  0  0  0  0  0  0  0
   12.0741   45.3735  130.1143 C   0  0  0  0  0  0  0  0  0  0  0  0
   12.6911   44.1594  130.3144 C   0  0  0  0  0  0  0  0  0  0  0  0
   12.3362   43.3745  131.3906 C   0  0  0  0  0  0  0  0  0  0  0  0
   11.3589   43.8475  132.2381 C   0  0  0  0  0  0  0  0  0  0  0  0
 22 23  1  0  0  0
 23  1  1  0  0  0
  1  2  1  0  0  0
  2  3  2  0  0  0
  3  4  1  0  0  0
  4  5  2  0  0  0
  5 24  1  0  0  0
 24 25  1  0  0  0
 25 26  1  0  0  0
 26 27  1  0  0  0
 27 28  2  0  0  0
 28 29  1  0  0  0
 29 30  2  0  0  0
 30 31  1  0  0  0
 31 32  2  0  0  0
 26 33  1  0  0  0
 33 34  2  0  0  0
 34 35  1  0  0  0
 35 36  2  0  0  0
 36 37  1  0  0  0
 37 38  2  0  0  0
 26 39  1  0  0  0
 39 40  2  0  0  0
 40 41  1  0  0  0
 41 42  2  0  0  0
 42 43  1  0  0  0
 43 44  2  0  0  0
  5  6  1  0  0  0
  6  7  2  0  0  0
  7  8  1  0  0  0
  8  9  1  0  0  0
  6 10  1  0  0  0
 10 11  2  0  0  0
 11 12  1  0  0  0
 12 13  2  0  0  0
 13 16  1  0  0  0
 16 17  1  0  0  0
 17 18  1  0  0  0
 18 19  1  0  0  0
 19 20  1  0  0  0
 19 21  1  0  0  0
 13 14  1  0  0  0
 14 15  2  0  0  0
  9  1  2  0  0  0
 15 10  1  0  0  0
  8  4  1  0  0  0
 32 27  1  0  0  0
 38 33  1  0  0  0
 44 39  1  0  0  0
M  END
> <minimizedAffinity>
6.85367

> <CNNscore>
0.3802938461

> <CNNaffinity>
7.9804449081

> <CNN_VS>
3.0349140167

> <CNNaffinity_variance>
0.4927105010

$$$$
[H]c1c([H])c([H])c(C(c2c([H])c([H])c([H])c([H])c2[H])(c2c([H])c([H])c([H])c([H])c2[H])C([H])([H])Oc2c(-c3c([H])c([H])c(OC([H])([H])C([H])([H])N(C([H])([H])[H])C([H])([H])[H])c([H])c3[H])c([H])n3c([H])c(OC([H])([H])[H])c([H])c([H])c23)c([H])c1[H]


 44 49  0  0  0  0  0  0  0  0999 V2000
    7.2341   51.0465  129.4677 C   0  0  0  0  0  0  0  0  0  0  0  0
    7.7951   50.9435  130.7301 C   0  0  0  0  0  0  0  0  0  0  0  0
    8.4663   49.7833  131.0867 C   0  0  0  0  0  0  0  0  0  0  0  0
    8.5854   48.7304  130.2072 C   0  0  0  0  0  0  0  0  0  0  0  0
    9.1824   47.4849  130.2797 C   0  0  0  0  0  0  0  0  0  0  0  0
    8.9627   46.8936  129.0755 C   0  0  0  0  0  0  0  0  0  0  0  0
    8.2251   47.7841  128.2603 C   0  0  0  0  0  0  0  0  0  0  0  0
    8.0183   48.8919  128.9942 N   0  0  0  0  0  0  0  0  0  0  0  0
    7.3575   49.9971  128.6017 C   0  0  0  0  0  0  0  0  0  0  0  0
    9.3978   45.5757  128.6451 C   0  0  0  0  0  0  0  0  0  0  0  0
    8.5615   44.5042  128.4848 C   0  0  0  0  0  0  0  0  0  0  0  0
    9.0146   43.2736  128.0665 C   0  0  0  0  0  0  0  0  0  0  0  0
   10.3701   43.0456  127.7783 C   0  0  0  0  0  0  0  0  0  0  0  0
   11.2047   44.1229  127.9413 C   0  0  0  0  0  0  0  0  0  0  0  0
   10.7357   45.3536  128.3621 C   0  0  0  0  0  0  0  0  0  0  0  0
   10.7092   41.8002  127.3760 O   0  0  0  0  0  0  0  0  0  0  0  0
   10.0326   40.7618  126.8053 C   0  0  0  0  0  0  0  0  0  0  0  0
   10.7321   39.4471  126.7979 C   0  0  0  0  0  0  0  0  0  0  0  0
   11.6226   39.2967  125.6531 N   0  0  0  0  0  0  0  0  0  0  0  0
   12.6548   38.3521  126.0559 C   0  0  0  0  0  0  0  0  0  0  0  0
   10.9378   38.7309  124.5136 C   0  0  0  0  0  0  0  0  0  0  0  0
    7.0078   52.9593  127.9945 C   0  0  0  0  0  0  0  0  0  0  0  0
    6.5608   52.1757  129.0718 O   0  0  0  0  0  0  0  0  0  0  0  0
    9.8457   46.9944  131.3760 O   0  0  0  0  0  0  0  0  0  0  0  0
    9.1855   46.3720  132.4589 C   0  0  0  0  0  0  0  0  0  0  0  0
    9.7863   45.0499  132.8057 C   0  0  0  0  0  0  0  0  0  0  0  0
    8.9110   43.8972  132.5365 C   0  0  0  0  0  0  0  0  0  0  0  0
    8.4787   43.0970  133.5656 C   0  0  0  0  0  0  0  0  0  0  0  0
    7.6553   41.9909  133.3533 C   0  0  0  0  0  0  0  0  0  0  0  0
    7.2401   41.6561  132.0863 C   0  0  0  0  0  0  0  0  0  0  0  0
    7.6795   42.4645  131.0608 C   0  0  0  0  0  0  0  0  0  0  0  0
    8.4902   43.5540  131.2688 C   0  0  0  0  0  0  0  0  0  0  0  0
   11.0669   44.8223  132.0646 C   0  0  0  0  0  0  0  0  0  0  0  0
   11.9882   45.8203  131.8978 C   0  0  0  0  0  0  0  0  0  0  0  0
   13.1753   45.5590  131.1966 C   0  0  0  0  0  0  0  0  0  0  0  0
   13.4549   44.3265  130.6630 C   0  0  0  0  0  0  0  0  0  0  0  0
   12.5100   43.3406  130.8456 C   0  0  0  0  0  0  0  0  0  0  0  0
   11.3469   43.5596  131.5210 C   0  0  0  0  0  0  0  0  0  0  0  0
   10.0028   45.0937  134.2936 C   0  0  0  0  0  0  0  0  0  0  0  0
   10.7665   44.1137  134.8853 C   0  0  0  0  0  0  0  0  0  0  0  0
   10.9319   44.1783  136.2586 C   0  0  0  0  0  0  0  0  0  0  0  0
   10.3670   45.1719  137.0257 C   0  0  0  0  0  0  0  0  0  0  0  0
    9.6029   46.1527  136.4303 C   0  0  0  0  0  0  0  0  0  0  0  0
    9.4330   46.0964  135.0647 C   0  0  0  0  0  0  0  0  0  0  0  0
 22 23  1  0  0  0
 23  1  1  0  0  0
  1  2  1  0  0  0
  2  3  2  0  0  0
  3  4  1  0  0  0
  4  5  2  0  0  0
  5 24  1  0  0  0
 24 25  1  0  0  0
 25 26  1  0  0  0
 26 27  1  0  0  0
 27 28  2  0  0  0
 28 29  1  0  0  0
 29 30  2  0  0  0
 30 31  1  0  0  0
 31 32  2  0  0  0
 26 33  1  0  0  0
 33 34  2  0  0  0
 34 35  1  0  0  0
 35 36  2  0  0  0
 36 37  1  0  0  0
 37 38  2  0  0  0
 26 39  1  0  0  0
 39 40  2  0  0  0
 40 41  1  0  0  0
 41 42  2  0  0  0
 42 43  1  0  0  0
 43 44  2  0  0  0
  5  6  1  0  0  0
  6  7  2  0  0  0
  7  8  1  0  0  0
  8  9  1  0  0  0
  6 10  1  0  0  0
 10 11  2  0  0  0
 11 12  1  0  0  0
 12 13  2  0  0  0
 13 16  1  0  0  0
 16 17  1  0  0  0
 17 18  1  0  0  0
 18 19  1  0  0  0
 19 20  1  0  0  0
 19 21  1  0  0  0
 13 14  1  0  0  0
 14 15  2  0  0  0
  9  1  2  0  0  0
 15 10  1  0  0  0
  8  4  1  0  0  0
 32 27  1  0  0  0
 38 33  1  0  0  0
 44 39  1  0  0  0
M  END
> <minimizedAffinity>
12.07964

> <CNNscore>
0.3702465594

> <CNNaffinity>
8.1438922882

> <CNN_VS>
3.0152480602

> <CNNaffinity_variance>
0.3984633386

$$$$
[H]Oc1c([H])c([H])c([C@@]2([H])C(=O)C([H])([H])C(C([H])([H])[H])=C2c2c([H])c([H])c(O[H])c(Cl)c2[H])c([H])c1[H]


 24 26  0  0  0  0  0  0  0  0999 V2000
    9.2668   45.3123  133.7984 C   0  0  0  0  0  0  0  0  0  0  0  0
    9.3967   46.5945  133.0409 C   0  0  0  0  0  0  0  0  0  0  0  0
    9.5860   46.7676  131.7496 C   0  0  0  0  0  0  0  0  0  0  0  0
    9.6615   48.2127  131.4130 C   0  0  0  0  0  0  0  0  0  0  0  0
    9.8116   48.8569  132.7401 C   0  0  0  0  0  0  0  0  0  0  0  0
   10.2639   49.9490  132.9511 O   0  0  0  0  0  0  0  0  0  0  0  0
    9.3025   47.9029  133.7261 C   0  0  0  0  0  0  0  0  0  0  0  0
    9.6890   45.7077  130.7433 C   0  0  0  0  0  0  0  0  0  0  0  0
   10.4060   45.8690  129.5741 C   0  0  0  0  0  0  0  0  0  0  0  0
   10.4840   44.8599  128.6377 C   0  0  0  0  0  0  0  0  0  0  0  0
    9.8629   43.6590  128.8146 C   0  0  0  0  0  0  0  0  0  0  0  0
    9.9086   42.6211  127.9153 O   0  0  0  0  0  0  0  0  0  0  0  0
    9.1415   43.4751  129.9738 C   0  0  0  0  0  0  0  0  0  0  0  0
    8.3022   41.9690  130.2985 Cl  0  0  0  0  0  0  0  0  0  0  0  0
    9.0662   44.4752  130.8976 C   0  0  0  0  0  0  0  0  0  0  0  0
   10.4168   42.6590  127.0277 H   0  0  0  0  0  0  0  0  0  0  0  0
    8.4043   48.7126  130.8199 C   0  0  0  0  0  0  0  0  0  0  0  0
    8.0232   50.0402  130.8554 C   0  0  0  0  0  0  0  0  0  0  0  0
    6.8302   50.3986  130.2539 C   0  0  0  0  0  0  0  0  0  0  0  0
    6.0263   49.4621  129.6274 C   0  0  0  0  0  0  0  0  0  0  0  0
    4.8185   49.8361  129.0201 O   0  0  0  0  0  0  0  0  0  0  0  0
    6.4109   48.1448  129.5959 C   0  0  0  0  0  0  0  0  0  0  0  0
    7.5926   47.7887  130.1919 C   0  0  0  0  0  0  0  0  0  0  0  0
    4.2485   49.1586  128.5723 H   0  0  0  0  0  0  0  0  0  0  0  0
  1  2  1  0  0  0
  2  3  2  0  0  0
  3  4  1  0  0  0
  4  5  1  0  0  0
  5  6  2  0  0  0
  5  7  1  0  0  0
  4 17  1  0  0  0
 17 18  2  0  0  0
 18 19  1  0  0  0
 19 20  2  0  0  0
 20 21  1  0  0  0
 20 22  1  0  0  0
 22 23  2  0  0  0
  3  8  1  0  0  0
  8  9  2  0  0  0
  9 10  1  0  0  0
 10 11  2  0  0  0
 11 12  1  0  0  0
 11 13  1  0  0  0
 13 14  1  0  0  0
 13 15  2  0  0  0
  7  2  1  0  0  0
 23 17  1  0  0  0
 15  8  1  0  0  0
 21 24  1  0  0  0
 12 16  1  0  0  0
M  END
> <minimizedAffinity>
-9.12647

> <CNNscore>
0.7018212676

> <CNNaffinity>
7.5297784805

> <CNN_VS>
5.2845587730

> <CNNaffinity_variance>
0.4222432971

$$$$
[H]Oc1c([H])c([H])c([C@@]2([H])C(=O)C([H])([H])C(C([H])([H])[H])=C2c2c([H])c([H])c(O[H])c(Cl)c2[H])c([H])c1[H]


 24 26  0  0  0  0  0  0  0  0999 V2000
    8.9270   45.1600  133.9024 C   0  0  0  0  0  0  0  0  0  0  0  0
    9.1533   46.4329  133.1519 C   0  0  0  0  0  0  0  0  0  0  0  0
    9.4046   46.5944  131.8698 C   0  0  0  0  0  0  0  0  0  0  0  0
    9.5676   48.0333  131.5377 C   0  0  0  0  0  0  0  0  0  0  0  0
    9.6952   48.6708  132.8703 C   0  0  0  0  0  0  0  0  0  0  0  0
   10.1935   49.7387  133.1008 O   0  0  0  0  0  0  0  0  0  0  0  0
    9.0977   47.7453  133.8337 C   0  0  0  0  0  0  0  0  0  0  0  0
    9.4950   45.5292  130.8678 C   0  0  0  0  0  0  0  0  0  0  0  0
    8.4626   44.6400  130.6425 C   0  0  0  0  0  0  0  0  0  0  0  0
    8.5721   43.6409  129.6987 C   0  0  0  0  0  0  0  0  0  0  0  0
    9.6958   43.4788  128.9435 C   0  0  0  0  0  0  0  0  0  0  0  0
    9.8569   42.5022  127.9905 O   0  0  0  0  0  0  0  0  0  0  0  0
   10.7391   44.3543  129.1508 C   0  0  0  0  0  0  0  0  0  0  0  0
   12.2304   44.2319  128.2346 Cl  0  0  0  0  0  0  0  0  0  0  0  0
   10.6277   45.3411  130.0852 C   0  0  0  0  0  0  0  0  0  0  0  0
    9.1420   41.8061  127.7624 H   0  0  0  0  0  0  0  0  0  0  0  0
    8.3632   48.5958  130.8934 C   0  0  0  0  0  0  0  0  0  0  0  0
    8.0470   49.9406  130.9176 C   0  0  0  0  0  0  0  0  0  0  0  0
    6.9000   50.3587  130.2671 C   0  0  0  0  0  0  0  0  0  0  0  0
    6.0784   49.4642  129.6033 C   0  0  0  0  0  0  0  0  0  0  0  0
    4.9178   49.8986  128.9464 O   0  0  0  0  0  0  0  0  0  0  0  0
    6.3985   48.1296  129.5832 C   0  0  0  0  0  0  0  0  0  0  0  0
    7.5345   47.7144  130.2276 C   0  0  0  0  0  0  0  0  0  0  0  0
    4.3347   49.2509  128.4720 H   0  0  0  0  0  0  0  0  0  0  0  0
  1  2  1  0  0  0
  2  3  2  0  0  0
  3  4  1  0  0  0
  4  5  1  0  0  0
  5  6  2  0  0  0
  5  7  1  0  0  0
  4 17  1  0  0  0
 17 18  2  0  0  0
 18 19  1  0  0  0
 19 20  2  0  0  0
 20 21  1  0  0  0
 20 22  1  0  0  0
 22 23  2  0  0  0
  3  8  1  0  0  0
  8  9  2  0  0  0
  9 10  1  0  0  0
 10 11  2  0  0  0
 11 12  1  0  0  0
 11 13  1  0  0  0
 13 14  1  0  0  0
 13 15  2  0  0  0
  7  2  1  0  0  0
 23 17  1  0  0  0
 15  8  1  0  0  0
 21 24  1  0  0  0
 12 16  1  0  0  0
M  END
> <minimizedAffinity>
-8.93705

> <CNNscore>
0.6519948244

> <CNNaffinity>
7.4017019272

> <CNN_VS>
4.8258714676

> <CNNaffinity_variance>
0.3410715163

$$$$
[H]Oc1c([H])c([H])c([C@@]2([H])C(=O)C([H])([H])C(C([H])([H])[H])=C2c2c([H])c([H])c(O[H])c(Cl)c2[H])c([H])c1[H]


 24 26  0  0  0  0  0  0  0  0999 V2000
    9.6338   46.6675  134.0810 C   0  0  0  0  0  0  0  0  0  0  0  0
    9.5789   47.4151  132.7876 C   0  0  0  0  0  0  0  0  0  0  0  0
    9.3716   46.9426  131.5764 C   0  0  0  0  0  0  0  0  0  0  0  0
    9.4004   48.0338  130.5686 C   0  0  0  0  0  0  0  0  0  0  0  0
    9.9755   49.1718  131.3255 C   0  0  0  0  0  0  0  0  0  0  0  0
   10.5155   50.1357  130.8553 O   0  0  0  0  0  0  0  0  0  0  0  0
    9.7530   48.8841  132.7430 C   0  0  0  0  0  0  0  0  0  0  0  0
    9.1181   45.5421  131.2287 C   0  0  0  0  0  0  0  0  0  0  0  0
    8.4862   44.6709  132.0941 C   0  0  0  0  0  0  0  0  0  0  0  0
    8.2637   43.3548  131.7484 C   0  0  0  0  0  0  0  0  0  0  0  0
    8.6523   42.8474  130.5439 C   0  0  0  0  0  0  0  0  0  0  0  0
    8.4551   41.5461  130.1493 O   0  0  0  0  0  0  0  0  0  0  0  0
    9.2849   43.6981  129.6641 C   0  0  0  0  0  0  0  0  0  0  0  0
    9.8276   43.1459  128.0896 Cl  0  0  0  0  0  0  0  0  0  0  0  0
    9.5035   44.9990  130.0092 C   0  0  0  0  0  0  0  0  0  0  0  0
    7.9956   40.8388  130.7291 H   0  0  0  0  0  0  0  0  0  0  0  0
    8.0440   48.4307  130.1388 C   0  0  0  0  0  0  0  0  0  0  0  0
    7.1912   47.5927  129.4464 C   0  0  0  0  0  0  0  0  0  0  0  0
    5.9362   48.0653  129.1072 C   0  0  0  0  0  0  0  0  0  0  0  0
    5.5292   49.3442  129.4458 C   0  0  0  0  0  0  0  0  0  0  0  0
    4.2542   49.8135  129.0974 O   0  0  0  0  0  0  0  0  0  0  0  0
    6.3815   50.1715  130.1337 C   0  0  0  0  0  0  0  0  0  0  0  0
    7.6253   49.7043  130.4700 C   0  0  0  0  0  0  0  0  0  0  0  0
    3.9700   50.7314  129.3448 H   0  0  0  0  0  0  0  0  0  0  0  0
  1  2  1  0  0  0
  2  3  2  0  0  0
  3  4  1  0  0  0
  4  5  1  0  0  0
  5  6  2  0  0  0
  5  7  1  0  0  0
  4 17  1  0  0  0
 17 18  2  0  0  0
 18 19  1  0  0  0
 19 20  2  0  0  0
 20 21  1  0  0  0
 20 22  1  0  0  0
 22 23  2  0  0  0
  3  8  1  0  0  0
  8  9  2  0  0  0
  9 10  1  0  0  0
 10 11  2  0  0  0
 11 12  1  0  0  0
 11 13  1  0  0  0
 13 14  1  0  0  0
 13 15  2  0  0  0
  7  2  1  0  0  0
 23 17  1  0  0  0
 15  8  1  0  0  0
 21 24  1  0  0  0
 12 16  1  0  0  0
M  END
> <minimizedAffinity>
-8.62238

> <CNNscore>
0.6217556596

> <CNNaffinity>
7.3531274796

> <CNN_VS>
4.5718483925

> <CNNaffinity_variance>
0.3295425475

$$$$
[H]Oc1c([H])c([H])c([C@@]2([H])C(=O)C([H])([H])C(C([H])([H])[H])=C2c2c([H])c([H])c(O[H])c(Cl)c2[H])c([H])c1[H]


 24 26  0  0  0  0  0  0  0  0999 V2000
   10.5009   48.4480  133.5409 C   0  0  0  0  0  0  0  0  0  0  0  0
    9.8602   47.1845  133.0634 C   0  0  0  0  0  0  0  0  0  0  0  0
    8.9669   47.0288  132.1091 C   0  0  0  0  0  0  0  0  0  0  0  0
    8.5926   45.5988  131.9601 C   0  0  0  0  0  0  0  0  0  0  0  0
    9.1561   44.9775  133.1829 C   0  0  0  0  0  0  0  0  0  0  0  0
    8.8077   43.9395  133.6760 O   0  0  0  0  0  0  0  0  0  0  0  0
   10.2092   45.8753  133.6588 C   0  0  0  0  0  0  0  0  0  0  0  0
    8.4098   48.0911  131.2676 C   0  0  0  0  0  0  0  0  0  0  0  0
    8.8339   49.4022  131.3591 C   0  0  0  0  0  0  0  0  0  0  0  0
    8.2907   50.3871  130.5615 C   0  0  0  0  0  0  0  0  0  0  0  0
    7.3144   50.1215  129.6474 C   0  0  0  0  0  0  0  0  0  0  0  0
    6.7402   51.0636  128.8286 O   0  0  0  0  0  0  0  0  0  0  0  0
    6.8753   48.8202  129.5385 C   0  0  0  0  0  0  0  0  0  0  0  0
    5.6214   48.3716  128.3961 Cl  0  0  0  0  0  0  0  0  0  0  0  0
    7.4143   47.8487  130.3289 C   0  0  0  0  0  0  0  0  0  0  0  0
    6.9972   52.0543  128.8330 H   0  0  0  0  0  0  0  0  0  0  0  0
    9.2544   44.9680  130.7999 C   0  0  0  0  0  0  0  0  0  0  0  0
   10.5795   45.1822  130.4724 C   0  0  0  0  0  0  0  0  0  0  0  0
   11.0994   44.5264  129.3710 C   0  0  0  0  0  0  0  0  0  0  0  0
   10.3243   43.6729  128.6052 C   0  0  0  0  0  0  0  0  0  0  0  0
   10.8615   43.0124  127.4905 O   0  0  0  0  0  0  0  0  0  0  0  0
    9.0086   43.4646  128.9362 C   0  0  0  0  0  0  0  0  0  0  0  0
    8.4924   44.1141  130.0271 C   0  0  0  0  0  0  0  0  0  0  0  0
   10.2991   42.4014  126.9473 H   0  0  0  0  0  0  0  0  0  0  0  0
  1  2  1  0  0  0
  2  3  2  0  0  0
  3  4  1  0  0  0
  4  5  1  0  0  0
  5  6  2  0  0  0
  5  7  1  0  0  0
  4 17  1  0  0  0
 17 18  2  0  0  0
 18 19  1  0  0  0
 19 20  2  0  0  0
 20 21  1  0  0  0
 20 22  1  0  0  0
 22 23  2  0  0  0
  3  8  1  0  0  0
  8  9  2  0  0  0
  9 10  1  0  0  0
 10 11  2  0  0  0
 11 12  1  0  0  0
 11 13  1  0  0  0
 13 14  1  0  0  0
 13 15  2  0  0  0
  7  2  1  0  0  0
 23 17  1  0  0  0
 15  8  1  0  0  0
 21 24  1  0  0  0
 12 16  1  0  0  0
M  END
> <minimizedAffinity>
-8.50304

> <CNNscore>
0.5273214579

> <CNNaffinity>
7.3714332581

> <CNN_VS>
3.8871150017

> <CNNaffinity_variance>
0.4271280169

$$$$
[H]Oc1c([H])c([H])c([C@@]2([H])C(=O)C([H])([H])C(C([H])([H])[H])=C2c2c([H])c([H])c(O[H])c(Cl)c2[H])c([H])c1[H]


 24 26  0  0  0  0  0  0  0  0999 V2000
    8.5609   47.3240  134.3835 C   0  0  0  0  0  0  0  0  0  0  0  0
    8.7664   46.1693  133.4566 C   0  0  0  0  0  0  0  0  0  0  0  0
    8.6697   46.1452  132.1439 C   0  0  0  0  0  0  0  0  0  0  0  0
    8.9515   44.7856  131.6154 C   0  0  0  0  0  0  0  0  0  0  0  0
    8.9114   43.9397  132.8326 C   0  0  0  0  0  0  0  0  0  0  0  0
    8.7241   42.7542  132.8665 O   0  0  0  0  0  0  0  0  0  0  0  0
    9.1440   44.8329  133.9683 C   0  0  0  0  0  0  0  0  0  0  0  0
    8.3539   47.2867  131.2813 C   0  0  0  0  0  0  0  0  0  0  0  0
    9.0582   48.4731  131.3420 C   0  0  0  0  0  0  0  0  0  0  0  0
    8.7393   49.5370  130.5249 C   0  0  0  0  0  0  0  0  0  0  0  0
    7.7204   49.4751  129.6209 C   0  0  0  0  0  0  0  0  0  0  0  0
    7.3616   50.5038  128.7836 O   0  0  0  0  0  0  0  0  0  0  0  0
    7.0035   48.3013  129.5425 C   0  0  0  0  0  0  0  0  0  0  0  0
    5.6715   48.1177  128.4154 Cl  0  0  0  0  0  0  0  0  0  0  0  0
    7.3213   47.2512  130.3522 C   0  0  0  0  0  0  0  0  0  0  0  0
    7.8313   51.4129  128.7651 H   0  0  0  0  0  0  0  0  0  0  0  0
   10.3117   44.6793  131.0492 C   0  0  0  0  0  0  0  0  0  0  0  0
   11.4480   44.5425  131.8233 C   0  0  0  0  0  0  0  0  0  0  0  0
   12.6704   44.4367  131.1847 C   0  0  0  0  0  0  0  0  0  0  0  0
   12.7701   44.4652  129.8045 C   0  0  0  0  0  0  0  0  0  0  0  0
   14.0147   44.3567  129.1668 O   0  0  0  0  0  0  0  0  0  0  0  0
   11.6373   44.6013  129.0415 C   0  0  0  0  0  0  0  0  0  0  0  0
   10.4256   44.7065  129.6733 C   0  0  0  0  0  0  0  0  0  0  0  0
   14.0772   44.3771  128.1768 H   0  0  0  0  0  0  0  0  0  0  0  0
  1  2  1  0  0  0
  2  3  2  0  0  0
  3  4  1  0  0  0
  4  5  1  0  0  0
  5  6  2  0  0  0
  5  7  1  0  0  0
  4 17  1  0  0  0
 17 18  2  0  0  0
 18 19  1  0  0  0
 19 20  2  0  0  0
 20 21  1  0  0  0
 20 22  1  0  0  0
 22 23  2  0  0  0
  3  8  1  0  0  0
  8  9  2  0  0  0
  9 10  1  0  0  0
 10 11  2  0  0  0
 11 12  1  0  0  0
 11 13  1  0  0  0
 13 14  1  0  0  0
 13 15  2  0  0  0
  7  2  1  0  0  0
 23 17  1  0  0  0
 15  8  1  0  0  0
 21 24  1  0  0  0
 12 16  1  0  0  0
M  END
> <minimizedAffinity>
-9.30221

> <CNNscore>
0.4645375311

> <CNNaffinity>
7.2353286743

> <CNN_VS>
3.3610816002

> <CNNaffinity_variance>
0.2435537279

$$$$
[H]Oc1c([H])c([H])c([C@@]2([H])C(=O)C([H])([H])C(C([H])([H])[H])=C2c2c([H])c([H])c(O[H])c(Cl)c2[H])c([H])c1[H]


 24 26  0  0  0  0  0  0  0  0999 V2000
    9.2502   46.5871  135.1847 C   0  0  0  0  0  0  0  0  0  0  0  0
    9.4020   47.2619  133.8594 C   0  0  0  0  0  0  0  0  0  0  0  0
    9.8234   46.7491  132.7225 C   0  0  0  0  0  0  0  0  0  0  0  0
    9.8239   47.7730  131.6460 C   0  0  0  0  0  0  0  0  0  0  0  0
    9.6479   49.0420  132.3925 C   0  0  0  0  0  0  0  0  0  0  0  0
    9.9426   50.1396  132.0049 O   0  0  0  0  0  0  0  0  0  0  0  0
    9.0495   48.6881  133.6803 C   0  0  0  0  0  0  0  0  0  0  0  0
   10.2236   45.3573  132.4999 C   0  0  0  0  0  0  0  0  0  0  0  0
   11.4300   44.8568  132.9485 C   0  0  0  0  0  0  0  0  0  0  0  0
   11.7889   43.5450  132.7219 C   0  0  0  0  0  0  0  0  0  0  0  0
   10.9788   42.6790  132.0488 C   0  0  0  0  0  0  0  0  0  0  0  0
   11.2869   41.3639  131.7966 O   0  0  0  0  0  0  0  0  0  0  0  0
    9.7699   43.1561  131.5917 C   0  0  0  0  0  0  0  0  0  0  0  0
    8.6548   42.1260  130.7121 Cl  0  0  0  0  0  0  0  0  0  0  0  0
    9.4181   44.4540  131.8172 C   0  0  0  0  0  0  0  0  0  0  0  0
   12.1578   40.9161  132.0944 H   0  0  0  0  0  0  0  0  0  0  0  0
    8.6654   47.6297  130.7408 C   0  0  0  0  0  0  0  0  0  0  0  0
    7.6771   46.6802  130.9167 C   0  0  0  0  0  0  0  0  0  0  0  0
    6.6289   46.6466  130.0147 C   0  0  0  0  0  0  0  0  0  0  0  0
    6.5570   47.5356  128.9562 C   0  0  0  0  0  0  0  0  0  0  0  0
    5.4894   47.4932  128.0474 O   0  0  0  0  0  0  0  0  0  0  0  0
    7.5421   48.4763  128.7874 C   0  0  0  0  0  0  0  0  0  0  0  0
    8.5812   48.5103  129.6804 C   0  0  0  0  0  0  0  0  0  0  0  0
    5.4450   48.1348  127.2919 H   0  0  0  0  0  0  0  0  0  0  0  0
  1  2  1  0  0  0
  2  3  2  0  0  0
  3  4  1  0  0  0
  4  5  1  0  0  0
  5  6  2  0  0  0
  5  7  1  0  0  0
  4 17  1  0  0  0
 17 18  2  0  0  0
 18 19  1  0  0  0
 19 20  2  0  0  0
 20 21  1  0  0  0
 20 22  1  0  0  0
 22 23  2  0  0  0
  3  8  1  0  0  0
  8  9  2  0  0  0
  9 10  1  0  0  0
 10 11  2  0  0  0
 11 12  1  0  0  0
 11 13  1  0  0  0
 13 14  1  0  0  0
 13 15  2  0  0  0
  7  2  1  0  0  0
 23 17  1  0  0  0
 15  8  1  0  0  0
 21 24  1  0  0  0
 12 16  1  0  0  0
M  END
> <minimizedAffinity>
-8.69922

> <CNNscore>
0.4186525941

> <CNNaffinity>
7.2840337753

> <CNN_VS>
3.0494797230

> <CNNaffinity_variance>
0.1721370518

$$$$
[H]Oc1c([H])c([H])c([C@@]2([H])C(=O)C([H])([H])C(C([H])([H])[H])=C2c2c([H])c([H])c(O[H])c(Cl)c2[H])c([H])c1[H]


 24 26  0  0  0  0  0  0  0  0999 V2000
    8.8256   43.8929  128.5249 C   0  0  0  0  0  0  0  0  0  0  0  0
    9.8613   44.4726  129.4337 C   0  0  0  0  0  0  0  0  0  0  0  0
    9.9154   45.6836  129.9472 C   0  0  0  0  0  0  0  0  0  0  0  0
   11.1219   45.8461  130.7988 C   0  0  0  0  0  0  0  0  0  0  0  0
   11.9376   44.6574  130.4517 C   0  0  0  0  0  0  0  0  0  0  0  0
   13.1230   44.5416  130.6041 O   0  0  0  0  0  0  0  0  0  0  0  0
   11.0151   43.6679  129.8935 C   0  0  0  0  0  0  0  0  0  0  0  0
    8.9282   46.7484  129.7511 C   0  0  0  0  0  0  0  0  0  0  0  0
    9.2909   48.0746  129.6211 C   0  0  0  0  0  0  0  0  0  0  0  0
    8.3441   49.0611  129.4437 C   0  0  0  0  0  0  0  0  0  0  0  0
    7.0105   48.7825  129.3875 C   0  0  0  0  0  0  0  0  0  0  0  0
    6.0268   49.7257  129.2121 O   0  0  0  0  0  0  0  0  0  0  0  0
    6.6249   47.4661  129.5150 C   0  0  0  0  0  0  0  0  0  0  0  0
    4.9343   46.9998  129.4597 Cl  0  0  0  0  0  0  0  0  0  0  0  0
    7.5637   46.4930  129.6905 C   0  0  0  0  0  0  0  0  0  0  0  0
    6.2106   50.7271  129.1073 H   0  0  0  0  0  0  0  0  0  0  0  0
   10.8034   45.7571  132.2384 C   0  0  0  0  0  0  0  0  0  0  0  0
   11.0413   44.6295  133.0006 C   0  0  0  0  0  0  0  0  0  0  0  0
   10.7166   44.6633  134.3448 C   0  0  0  0  0  0  0  0  0  0  0  0
   10.1661   45.7916  134.9276 C   0  0  0  0  0  0  0  0  0  0  0  0
    9.8408   45.8155  136.2917 O   0  0  0  0  0  0  0  0  0  0  0  0
    9.9324   46.9084  134.1646 C   0  0  0  0  0  0  0  0  0  0  0  0
   10.2535   46.8758  132.8326 C   0  0  0  0  0  0  0  0  0  0  0  0
    9.4473   46.6289  136.7018 H   0  0  0  0  0  0  0  0  0  0  0  0
  1  2  1  0  0  0
  2  3  2  0  0  0
  3  4  1  0  0  0
  4  5  1  0  0  0
  5  6  2  0  0  0
  5  7  1  0  0  0
  4 17  1  0  0  0
 17 18  2  0  0  0
 18 19  1  0  0  0
 19 20  2  0  0  0
 20 21  1  0  0  0
 20 22  1  0  0  0
 22 23  2  0  0  0
  3  8  1  0  0  0
  8  9  2  0  0  0
  9 10  1  0  0  0
 10 11  2  0  0  0
 11 12  1  0  0  0
 11 13  1  0  0  0
 13 14  1  0  0  0
 13 15  2  0  0  0
  7  2  1  0  0  0
 23 17  1  0  0  0
 15  8  1  0  0  0
 21 24  1  0  0  0
 12 16  1  0  0  0
M  END
> <minimizedAffinity>
-8.20430

> <CNNscore>
0.3934474587

> <CNNaffinity>
7.1301183701

> <CNN_VS>
2.8053269386

> <CNNaffinity_variance>
0.2490648776

$$$$
[H]Oc1c([H])c([H])c([C@@]2([H])C(=O)C([H])([H])C(C([H])([H])[H])=C2c2c([H])c([H])c(O[H])c(Cl)c2[H])c([H])c1[H]


 24 26  0  0  0  0  0  0  0  0999 V2000
    7.7444   45.5571  133.6762 C   0  0  0  0  0  0  0  0  0  0  0  0
    8.1016   44.8510  132.4079 C   0  0  0  0  0  0  0  0  0  0  0  0
    8.1988   45.3482  131.1928 C   0  0  0  0  0  0  0  0  0  0  0  0
    8.5764   44.2941  130.2163 C   0  0  0  0  0  0  0  0  0  0  0  0
    8.3717   43.0411  130.9822 C   0  0  0  0  0  0  0  0  0  0  0  0
    8.2002   41.9467  130.5189 O   0  0  0  0  0  0  0  0  0  0  0  0
    8.4212   43.4059  132.3986 C   0  0  0  0  0  0  0  0  0  0  0  0
    7.9949   46.7491  130.8154 C   0  0  0  0  0  0  0  0  0  0  0  0
    7.0823   47.1268  129.8501 C   0  0  0  0  0  0  0  0  0  0  0  0
    6.9115   48.4511  129.5061 C   0  0  0  0  0  0  0  0  0  0  0  0
    7.6283   49.4501  130.0956 C   0  0  0  0  0  0  0  0  0  0  0  0
    7.4973   50.7835  129.7913 O   0  0  0  0  0  0  0  0  0  0  0  0
    8.5449   49.0971  131.0616 C   0  0  0  0  0  0  0  0  0  0  0  0
    9.5205   50.3042  131.8799 Cl  0  0  0  0  0  0  0  0  0  0  0  0
    8.7115   47.7866  131.3993 C   0  0  0  0  0  0  0  0  0  0  0  0
    6.8454   51.1461  129.0905 H   0  0  0  0  0  0  0  0  0  0  0  0
   10.0064   44.3594  129.8518 C   0  0  0  0  0  0  0  0  0  0  0  0
   10.4533   44.6871  128.5861 C   0  0  0  0  0  0  0  0  0  0  0  0
   11.8174   44.7323  128.3612 C   0  0  0  0  0  0  0  0  0  0  0  0
   12.7260   44.4587  129.3689 C   0  0  0  0  0  0  0  0  0  0  0  0
   14.1073   44.5078  129.1304 O   0  0  0  0  0  0  0  0  0  0  0  0
   12.2751   44.1338  130.6240 C   0  0  0  0  0  0  0  0  0  0  0  0
   10.9237   44.0884  130.8478 C   0  0  0  0  0  0  0  0  0  0  0  0
   14.7518   44.3111  129.8587 H   0  0  0  0  0  0  0  0  0  0  0  0
  1  2  1  0  0  0
  2  3  2  0  0  0
  3  4  1  0  0  0
  4  5  1  0  0  0
  5  6  2  0  0  0
  5  7  1  0  0  0
  4 17  1  0  0  0
 17 18  2  0  0  0
 18 19  1  0  0  0
 19 20  2  0  0  0
 20 21  1  0  0  0
 20 22  1  0  0  0
 22 23  2  0  0  0
  3  8  1  0  0  0
  8  9  2  0  0  0
  9 10  1  0  0  0
 10 11  2  0  0  0
 11 12  1  0  0  0
 11 13  1  0  0  0
 13 14  1  0  0  0
 13 15  2  0  0  0
  7  2  1  0  0  0
 23 17  1  0  0  0
 15  8  1  0  0  0
 21 24  1  0  0  0
 12 16  1  0  0  0
M  END
> <minimizedAffinity>
-8.95041

> <CNNscore>
0.2582487762

> <CNNaffinity>
6.9558587074

> <CNN_VS>
1.7963420153

> <CNNaffinity_variance>
0.1930511296

$$$$
[H]Oc1c([H])c([H])c([C@@]2([H])C(=O)C([H])([H])C(C([H])([H])[H])=C2c2c([H])c([H])c(O[H])c(Cl)c2[H])c([H])c1[H]


 24 26  0  0  0  0  0  0  0  0999 V2000
    9.8717   45.8790  134.4395 C   0  0  0  0  0  0  0  0  0  0  0  0
    9.7512   47.0596  133.5303 C   0  0  0  0  0  0  0  0  0  0  0  0
   10.2570   47.2208  132.3256 C   0  0  0  0  0  0  0  0  0  0  0  0
    9.8975   48.5521  131.7725 C   0  0  0  0  0  0  0  0  0  0  0  0
    9.3777   49.2762  132.9575 C   0  0  0  0  0  0  0  0  0  0  0  0
    9.3068   50.4680  133.0855 O   0  0  0  0  0  0  0  0  0  0  0  0
    8.9739   48.2554  133.9253 C   0  0  0  0  0  0  0  0  0  0  0  0
   11.0510   46.2372  131.5849 C   0  0  0  0  0  0  0  0  0  0  0  0
   12.2114   45.6908  132.0970 C   0  0  0  0  0  0  0  0  0  0  0  0
   12.9465   44.7712  131.3793 C   0  0  0  0  0  0  0  0  0  0  0  0
   12.5704   44.3556  130.1363 C   0  0  0  0  0  0  0  0  0  0  0  0
   13.2648   43.4428  129.3796 O   0  0  0  0  0  0  0  0  0  0  0  0
   11.4160   44.8872  129.6048 C   0  0  0  0  0  0  0  0  0  0  0  0
   10.8447   44.4224  128.0124 Cl  0  0  0  0  0  0  0  0  0  0  0  0
   10.6914   45.7966  130.3171 C   0  0  0  0  0  0  0  0  0  0  0  0
   14.1312   42.9916  129.6851 H   0  0  0  0  0  0  0  0  0  0  0  0
    8.7979   48.4682  130.7897 C   0  0  0  0  0  0  0  0  0  0  0  0
    8.5103   49.4716  129.8844 C   0  0  0  0  0  0  0  0  0  0  0  0
    7.4654   49.2790  128.9988 C   0  0  0  0  0  0  0  0  0  0  0  0
    6.7163   48.1151  129.0062 C   0  0  0  0  0  0  0  0  0  0  0  0
    5.6589   47.9298  128.1034 O   0  0  0  0  0  0  0  0  0  0  0  0
    7.0074   47.1223  129.9082 C   0  0  0  0  0  0  0  0  0  0  0  0
    8.0424   47.3123  130.7864 C   0  0  0  0  0  0  0  0  0  0  0  0
    5.1275   47.0919  128.1149 H   0  0  0  0  0  0  0  0  0  0  0  0
  1  2  1  0  0  0
  2  3  2  0  0  0
  3  4  1  0  0  0
  4  5  1  0  0  0
  5  6  2  0  0  0
  5  7  1  0  0  0
  4 17  1  0  0  0
 17 18  2  0  0  0
 18 19  1  0  0  0
 19 20  2  0  0  0
 20 21  1  0  0  0
 20 22  1  0  0  0
 22 23  2  0  0  0
  3  8  1  0  0  0
  8  9  2  0  0  0
  9 10  1  0  0  0
 10 11  2  0  0  0
 11 12  1  0  0  0
 11 13  1  0  0  0
 13 14  1  0  0  0
 13 15  2  0  0  0
  7  2  1  0  0  0
 23 17  1  0  0  0
 15  8  1  0  0  0
 21 24  1  0  0  0
 12 16  1  0  0  0
M  END
> <minimizedAffinity>
-6.49587

> <CNNscore>
0.2276771218

> <CNNaffinity>
6.7657651901

> <CNN_VS>
1.5404099226

> <CNNaffinity_variance>
0.1659208238

$$$$
[H]Oc1c([H])c([H])c2c(c1[H])C1([H])C([H])(C([H])=C3C([H])([H])C([H])([H])C1([H])C3([H])[H])C([H])(C([H])([H])C([H])([H])C([H])([H])C([H])([H])C([H])([H])C([H])([H])C([H])([H])C([H])([H])[H])O2


 26 29  0  0  0  0  0  0  0  0999 V2000
   11.0080   44.9306  132.4727 C   0  0  0  0  0  0  0  0  0  0  0  0
   11.6726   43.7304  132.1259 O   0  0  0  0  0  0  0  0  0  0  0  0
   10.9248   42.7221  131.5348 C   0  0  0  0  0  0  0  0  0  0  0  0
   11.2748   41.3826  131.6741 C   0  0  0  0  0  0  0  0  0  0  0  0
   10.5131   40.4049  131.0772 C   0  0  0  0  0  0  0  0  0  0  0  0
    9.4250   40.7841  130.3583 C   0  0  0  0  0  0  0  0  0  0  0  0
    8.6537   39.7934  129.7539 O   0  0  0  0  0  0  0  0  0  0  0  0
    9.0838   42.1114  130.2239 C   0  0  0  0  0  0  0  0  0  0  0  0
    9.8304   43.1355  130.8138 C   0  0  0  0  0  0  0  0  0  0  0  0
    9.3835   44.4931  130.6182 C   0  0  0  0  0  0  0  0  0  0  0  0
    8.9987   44.7736  129.2182 C   0  0  0  0  0  0  0  0  0  0  0  0
    9.7238   44.1452  128.0271 C   0  0  0  0  0  0  0  0  0  0  0  0
   10.8267   45.3364  127.6322 C   0  0  0  0  0  0  0  0  0  0  0  0
   11.0265   45.4987  129.0117 C   0  0  0  0  0  0  0  0  0  0  0  0
    9.4797   46.2210  129.0721 C   0  0  0  0  0  0  0  0  0  0  0  0
   11.4238   45.6725  130.2041 C   0  0  0  0  0  0  0  0  0  0  0  0
   10.3061   45.5503  131.2865 C   0  0  0  0  0  0  0  0  0  0  0  0
    7.8683   39.3639  130.2424 H   0  0  0  0  0  0  0  0  0  0  0  0
   12.0470   45.8321  133.0697 C   0  0  0  0  0  0  0  0  0  0  0  0
   11.3718   47.0202  133.6955 C   0  0  0  0  0  0  0  0  0  0  0  0
   11.1311   46.8661  135.1530 C   0  0  0  0  0  0  0  0  0  0  0  0
    9.8359   46.1516  135.4313 C   0  0  0  0  0  0  0  0  0  0  0  0
    9.0887   45.7682  134.1941 C   0  0  0  0  0  0  0  0  0  0  0  0
    8.1695   46.8583  133.7038 C   0  0  0  0  0  0  0  0  0  0  0  0
    7.8037   48.4413  135.6041 C   0  0  0  0  0  0  0  0  0  0  0  0
    8.5278   48.1979  134.3113 C   0  0  0  0  0  0  0  0  0  0  0  0
 25 26  1  0  0  0
 26 24  1  0  0  0
 24 23  1  0  0  0
 23 22  1  0  0  0
 22 21  1  0  0  0
 21 20  1  0  0  0
 20 19  1  0  0  0
 19  1  1  0  0  0
  1  2  1  0  0  0
  2  3  1  0  0  0
  3  4  2  0  0  0
  4  5  1  0  0  0
  5  6  2  0  0  0
  6  7  1  0  0  0
  6  8  1  0  0  0
  8  9  2  0  0  0
  9 10  1  0  0  0
 10 11  1  0  0  0
 11 12  1  0  0  0
 12 13  1  0  0  0
 13 14  1  0  0  0
 14 15  1  0  0  0
 14 16  2  0  0  0
 16 17  1  0  0  0
 17  1  1  0  0  0
  9  3  1  0  0  0
 17 10  1  0  0  0
 15 11  1  0  0  0
  7 18  1  0  0  0
M  END
> <minimizedAffinity>
6.54528

> <CNNscore>
0.4217893183

> <CNNaffinity>
7.1706619263

> <CNN_VS>
3.0245087147

> <CNNaffinity_variance>
0.8951795697

$$$$
[H]Oc1c([H])c([H])c2c(c1[H])C1([H])C([H])(C([H])=C3C([H])([H])C([H])([H])C1([H])C3([H])[H])C([H])(C([H])([H])C([H])([H])C([H])([H])C([H])([H])C([H])([H])C([H])([H])C([H])([H])C([H])([H])[H])O2


 26 29  0  0  0  0  0  0  0  0999 V2000
    7.7950   45.4030  130.5157 C   0  0  0  0  0  0  0  0  0  0  0  0
    8.1871   46.2456  129.4486 O   0  0  0  0  0  0  0  0  0  0  0  0
    7.8711   47.5938  129.5367 C   0  0  0  0  0  0  0  0  0  0  0  0
    7.6759   48.3690  128.3978 C   0  0  0  0  0  0  0  0  0  0  0  0
    7.3624   49.7032  128.5168 C   0  0  0  0  0  0  0  0  0  0  0  0
    7.2516   50.2309  129.7633 C   0  0  0  0  0  0  0  0  0  0  0  0
    6.9340   51.5823  129.8834 O   0  0  0  0  0  0  0  0  0  0  0  0
    7.4461   49.4587  130.8867 C   0  0  0  0  0  0  0  0  0  0  0  0
    7.7660   48.1000  130.8099 C   0  0  0  0  0  0  0  0  0  0  0  0
    7.9421   47.3788  132.0468 C   0  0  0  0  0  0  0  0  0  0  0  0
    8.7552   48.1224  133.0330 C   0  0  0  0  0  0  0  0  0  0  0  0
    9.9282   49.0141  132.6227 C   0  0  0  0  0  0  0  0  0  0  0  0
   11.2251   47.9766  132.8046 C   0  0  0  0  0  0  0  0  0  0  0  0
   10.4127   46.9867  132.2308 C   0  0  0  0  0  0  0  0  0  0  0  0
    9.5282   46.9752  133.6921 C   0  0  0  0  0  0  0  0  0  0  0  0
    9.8663   46.0263  131.6071 C   0  0  0  0  0  0  0  0  0  0  0  0
    8.3298   45.8875  131.8434 C   0  0  0  0  0  0  0  0  0  0  0  0
    5.9646   51.8943  129.9384 H   0  0  0  0  0  0  0  0  0  0  0  0
    8.2722   44.0255  130.1642 C   0  0  0  0  0  0  0  0  0  0  0  0
    9.3067   44.1216  129.0781 C   0  0  0  0  0  0  0  0  0  0  0  0
   10.6193   43.5382  129.4558 C   0  0  0  0  0  0  0  0  0  0  0  0
   10.4749   42.4846  130.5210 C   0  0  0  0  0  0  0  0  0  0  0  0
   11.2712   42.7702  131.7539 C   0  0  0  0  0  0  0  0  0  0  0  0
   10.4352   42.7504  133.0086 C   0  0  0  0  0  0  0  0  0  0  0  0
   12.3908   44.1196  133.7512 C   0  0  0  0  0  0  0  0  0  0  0  0
   10.9787   43.7054  134.0499 C   0  0  0  0  0  0  0  0  0  0  0  0
 25 26  1  0  0  0
 26 24  1  0  0  0
 24 23  1  0  0  0
 23 22  1  0  0  0
 22 21  1  0  0  0
 21 20  1  0  0  0
 20 19  1  0  0  0
 19  1  1  0  0  0
  1  2  1  0  0  0
  2  3  1  0  0  0
  3  4  2  0  0  0
  4  5  1  0  0  0
  5  6  2  0  0  0
  6  7  1  0  0  0
  6  8  1  0  0  0
  8  9  2  0  0  0
  9 10  1  0  0  0
 10 11  1  0  0  0
 11 12  1  0  0  0
 12 13  1  0  0  0
 13 14  1  0  0  0
 14 15  1  0  0  0
 14 16  2  0  0  0
 16 17  1  0  0  0
 17  1  1  0  0  0
  9  3  1  0  0  0
 17 10  1  0  0  0
 15 11  1  0  0  0
  7 18  1  0  0  0
M  END
> <minimizedAffinity>
-7.30039

> <CNNscore>
0.3892427981

> <CNNaffinity>
7.4662270546

> <CNN_VS>
2.9061751366

> <CNNaffinity_variance>
0.1925995648

$$$$
[H]Oc1c([H])c([H])c2c(c1[H])C1([H])C([H])(C([H])=C3C([H])([H])C([H])([H])C1([H])C3([H])[H])C([H])(C([H])([H])C([H])([H])C([H])([H])C([H])([H])C([H])([H])C([H])([H])C([H])([H])C([H])([H])[H])O2


 26 29  0  0  0  0  0  0  0  0999 V2000
    8.1827   44.3993  131.2002 C   0  0  0  0  0  0  0  0  0  0  0  0
    8.8546   45.2271  130.2697 O   0  0  0  0  0  0  0  0  0  0  0  0
    8.8388   46.5969  130.4904 C   0  0  0  0  0  0  0  0  0  0  0  0
    8.9329   47.5023  129.4379 C   0  0  0  0  0  0  0  0  0  0  0  0
    8.9135   48.8550  129.6876 C   0  0  0  0  0  0  0  0  0  0  0  0
    8.8013   49.2713  130.9755 C   0  0  0  0  0  0  0  0  0  0  0  0
    8.7816   50.6416  131.2281 O   0  0  0  0  0  0  0  0  0  0  0  0
    8.7087   48.3705  132.0129 C   0  0  0  0  0  0  0  0  0  0  0  0
    8.7247   46.9886  131.8026 C   0  0  0  0  0  0  0  0  0  0  0  0
    8.6145   46.1305  132.9569 C   0  0  0  0  0  0  0  0  0  0  0  0
    9.4720   46.5673  134.0796 C   0  0  0  0  0  0  0  0  0  0  0  0
   10.8481   47.1987  133.8626 C   0  0  0  0  0  0  0  0  0  0  0  0
   11.8581   45.8768  134.0174 C   0  0  0  0  0  0  0  0  0  0  0  0
   10.9062   45.1617  133.2746 C   0  0  0  0  0  0  0  0  0  0  0  0
    9.9027   45.2144  134.6559 C   0  0  0  0  0  0  0  0  0  0  0  0
   10.2238   44.4184  132.5054 C   0  0  0  0  0  0  0  0  0  0  0  0
    8.6793   44.6167  132.6108 C   0  0  0  0  0  0  0  0  0  0  0  0
    7.9051   51.1625  131.2477 H   0  0  0  0  0  0  0  0  0  0  0  0
    8.3741   42.9893  130.7271 C   0  0  0  0  0  0  0  0  0  0  0  0
    9.6844   42.8847  129.9982 C   0  0  0  0  0  0  0  0  0  0  0  0
    9.8410   43.8866  128.9130 C   0  0  0  0  0  0  0  0  0  0  0  0
    9.9186   43.2338  127.5590 C   0  0  0  0  0  0  0  0  0  0  0  0
    9.9080   41.7397  127.6161 C   0  0  0  0  0  0  0  0  0  0  0  0
   10.9958   41.1141  126.7800 C   0  0  0  0  0  0  0  0  0  0  0  0
   11.8302   38.9923  125.7542 C   0  0  0  0  0  0  0  0  0  0  0  0
   10.7106   39.6529  126.5057 C   0  0  0  0  0  0  0  0  0  0  0  0
 25 26  1  0  0  0
 26 24  1  0  0  0
 24 23  1  0  0  0
 23 22  1  0  0  0
 22 21  1  0  0  0
 21 20  1  0  0  0
 20 19  1  0  0  0
 19  1  1  0  0  0
  1  2  1  0  0  0
  2  3  1  0  0  0
  3  4  2  0  0  0
  4  5  1  0  0  0
  5  6  2  0  0  0
  6  7  1  0  0  0
  6  8  1  0  0  0
  8  9  2  0  0  0
  9 10  1  0  0  0
 10 11  1  0  0  0
 11 12  1  0  0  0
 12 13  1  0  0  0
 13 14  1  0  0  0
 14 15  1  0  0  0
 14 16  2  0  0  0
 16 17  1  0  0  0
 17  1  1  0  0  0
  9  3  1  0  0  0
 17 10  1  0  0  0
 15 11  1  0  0  0
  7 18  1  0  0  0
M  END
> <minimizedAffinity>
2.32415

> <CNNscore>
0.3851517439

> <CNNaffinity>
7.4317655563

> <CNN_VS>
2.8623573780

> <CNNaffinity_variance>
0.9594532847

$$$$
[H]Oc1c([H])c([H])c2c(c1[H])C1([H])C([H])(C([H])=C3C([H])([H])C([H])([H])C1([H])C3([H])[H])C([H])(C([H])([H])C([H])([H])C([H])([H])C([H])([H])C([H])([H])C([H])([H])C([H])([H])C([H])([H])[H])O2


 26 29  0  0  0  0  0  0  0  0999 V2000
   10.4343   47.5579  132.6161 C   0  0  0  0  0  0  0  0  0  0  0  0
    9.1198   48.0731  132.7119 O   0  0  0  0  0  0  0  0  0  0  0  0
    8.6111   48.7603  131.6191 C   0  0  0  0  0  0  0  0  0  0  0  0
    7.6480   49.7531  131.7709 C   0  0  0  0  0  0  0  0  0  0  0  0
    7.1632   50.4181  130.6685 C   0  0  0  0  0  0  0  0  0  0  0  0
    7.6478   50.0789  129.4460 C   0  0  0  0  0  0  0  0  0  0  0  0
    7.1565   50.7528  128.3297 O   0  0  0  0  0  0  0  0  0  0  0  0
    8.6008   49.0954  129.3022 C   0  0  0  0  0  0  0  0  0  0  0  0
    9.1196   48.3958  130.3957 C   0  0  0  0  0  0  0  0  0  0  0  0
   10.1200   47.3891  130.1377 C   0  0  0  0  0  0  0  0  0  0  0  0
    9.7778   46.5219  128.9899 C   0  0  0  0  0  0  0  0  0  0  0  0
    8.3390   46.1108  128.6734 C   0  0  0  0  0  0  0  0  0  0  0  0
    8.2363   44.6224  129.4254 C   0  0  0  0  0  0  0  0  0  0  0  0
    8.9504   45.1979  130.4876 C   0  0  0  0  0  0  0  0  0  0  0  0
   10.3250   45.1749  129.4737 C   0  0  0  0  0  0  0  0  0  0  0  0
    9.4589   45.5974  131.5792 C   0  0  0  0  0  0  0  0  0  0  0  0
   10.5993   46.6508  131.4187 C   0  0  0  0  0  0  0  0  0  0  0  0
    7.6000   51.6061  127.9902 H   0  0  0  0  0  0  0  0  0  0  0  0
   10.7116   46.8622  133.9152 C   0  0  0  0  0  0  0  0  0  0  0  0
   11.8499   45.8986  133.7282 C   0  0  0  0  0  0  0  0  0  0  0  0
   11.6534   44.6049  134.4309 C   0  0  0  0  0  0  0  0  0  0  0  0
   12.3850   43.4820  133.7457 C   0  0  0  0  0  0  0  0  0  0  0  0
   12.0722   43.3686  132.2879 C   0  0  0  0  0  0  0  0  0  0  0  0
   10.9197   42.4379  132.0071 C   0  0  0  0  0  0  0  0  0  0  0  0
    8.5665   42.7314  132.7991 C   0  0  0  0  0  0  0  0  0  0  0  0
    9.9704   42.3632  133.1841 C   0  0  0  0  0  0  0  0  0  0  0  0
 25 26  1  0  0  0
 26 24  1  0  0  0
 24 23  1  0  0  0
 23 22  1  0  0  0
 22 21  1  0  0  0
 21 20  1  0  0  0
 20 19  1  0  0  0
 19  1  1  0  0  0
  1  2  1  0  0  0
  2  3  1  0  0  0
  3  4  2  0  0  0
  4  5  1  0  0  0
  5  6  2  0  0  0
  6  7  1  0  0  0
  6  8  1  0  0  0
  8  9  2  0  0  0
  9 10  1  0  0  0
 10 11  1  0  0  0
 11 12  1  0  0  0
 12 13  1  0  0  0
 13 14  1  0  0  0
 14 15  1  0  0  0
 14 16  2  0  0  0
 16 17  1  0  0  0
 17  1  1  0  0  0
  9  3  1  0  0  0
 17 10  1  0  0  0
 15 11  1  0  0  0
  7 18  1  0  0  0
M  END
> <minimizedAffinity>
-5.98750

> <CNNscore>
0.3641697764

> <CNNaffinity>
7.4306831360

> <CNN_VS>
2.7060301304

> <CNNaffinity_variance>
0.2081555873

$$$$
[H]Oc1c([H])c([H])c2c(c1[H])C1([H])C([H])(C([H])=C3C([H])([H])C([H])([H])C1([H])C3([H])[H])C([H])(C([H])([H])C([H])([H])C([H])([H])C([H])([H])C([H])([H])C([H])([H])C([H])([H])C([H])([H])[H])O2


 26 29  0  0  0  0  0  0  0  0999 V2000
    8.9308   44.4372  132.0136 C   0  0  0  0  0  0  0  0  0  0  0  0
    7.7362   44.6516  131.2859 O   0  0  0  0  0  0  0  0  0  0  0  0
    7.6404   45.8056  130.5215 C   0  0  0  0  0  0  0  0  0  0  0  0
    6.4101   46.3977  130.2529 C   0  0  0  0  0  0  0  0  0  0  0  0
    6.3468   47.5424  129.4926 C   0  0  0  0  0  0  0  0  0  0  0  0
    7.5067   48.0676  129.0200 C   0  0  0  0  0  0  0  0  0  0  0  0
    7.4420   49.2272  128.2500 O   0  0  0  0  0  0  0  0  0  0  0  0
    8.7212   47.4770  129.2890 C   0  0  0  0  0  0  0  0  0  0  0  0
    8.8295   46.3138  130.0568 C   0  0  0  0  0  0  0  0  0  0  0  0
   10.1495   45.7792  130.2864 C   0  0  0  0  0  0  0  0  0  0  0  0
   10.9806   45.7595  129.0634 C   0  0  0  0  0  0  0  0  0  0  0  0
   10.3941   45.4824  127.6782 C   0  0  0  0  0  0  0  0  0  0  0  0
   10.6690   43.8427  127.5132 C   0  0  0  0  0  0  0  0  0  0  0  0
   10.2814   43.7226  128.8566 C   0  0  0  0  0  0  0  0  0  0  0  0
   11.7657   44.4600  129.2700 C   0  0  0  0  0  0  0  0  0  0  0  0
    9.8288   43.4250  130.0040 C   0  0  0  0  0  0  0  0  0  0  0  0
   10.1492   44.4676  131.1203 C   0  0  0  0  0  0  0  0  0  0  0  0
    7.4929   50.1505  128.6801 H   0  0  0  0  0  0  0  0  0  0  0  0
    8.7636   43.1276  132.7248 C   0  0  0  0  0  0  0  0  0  0  0  0
   10.0954   42.6801  133.2585 C   0  0  0  0  0  0  0  0  0  0  0  0
   10.6434   43.5737  134.3108 C   0  0  0  0  0  0  0  0  0  0  0  0
   12.0146   44.0806  133.9525 C   0  0  0  0  0  0  0  0  0  0  0  0
   12.0686   45.5610  133.7489 C   0  0  0  0  0  0  0  0  0  0  0  0
   10.8582   46.2722  134.2991 C   0  0  0  0  0  0  0  0  0  0  0  0
    9.0271   47.7510  133.4559 C   0  0  0  0  0  0  0  0  0  0  0  0
   10.5052   47.4867  133.4671 C   0  0  0  0  0  0  0  0  0  0  0  0
 25 26  1  0  0  0
 26 24  1  0  0  0
 24 23  1  0  0  0
 23 22  1  0  0  0
 22 21  1  0  0  0
 21 20  1  0  0  0
 20 19  1  0  0  0
 19  1  1  0  0  0
  1  2  1  0  0  0
  2  3  1  0  0  0
  3  4  2  0  0  0
  4  5  1  0  0  0
  5  6  2  0  0  0
  6  7  1  0  0  0
  6  8  1  0  0  0
  8  9  2  0  0  0
  9 10  1  0  0  0
 10 11  1  0  0  0
 11 12  1  0  0  0
 12 13  1  0  0  0
 13 14  1  0  0  0
 14 15  1  0  0  0
 14 16  2  0  0  0
 16 17  1  0  0  0
 17  1  1  0  0  0
  9  3  1  0  0  0
 17 10  1  0  0  0
 15 11  1  0  0  0
  7 18  1  0  0  0
M  END
> <minimizedAffinity>
-8.08578

> <CNNscore>
0.3111603558

> <CNNaffinity>
7.3504691124

> <CNN_VS>
2.2871747017

> <CNNaffinity_variance>
0.1100848913

$$$$
[H]Oc1c([H])c([H])c2c(c1[H])C1([H])C([H])(C([H])=C3C([H])([H])C([H])([H])C1([H])C3([H])[H])C([H])(C([H])([H])C([H])([H])C([H])([H])C([H])([H])C([H])([H])C([H])([H])C([H])([H])C([H])([H])[H])O2


 26 29  0  0  0  0  0  0  0  0999 V2000
   10.5012   44.7179  132.9718 C   0  0  0  0  0  0  0  0  0  0  0  0
    9.4369   44.8096  133.8999 O   0  0  0  0  0  0  0  0  0  0  0  0
    9.0147   46.0755  134.2799 C   0  0  0  0  0  0  0  0  0  0  0  0
    8.4360   46.3040  135.5246 C   0  0  0  0  0  0  0  0  0  0  0  0
    8.0281   47.5706  135.8737 C   0  0  0  0  0  0  0  0  0  0  0  0
    8.2058   48.5753  134.9772 C   0  0  0  0  0  0  0  0  0  0  0  0
    7.7925   49.8581  135.3313 O   0  0  0  0  0  0  0  0  0  0  0  0
    8.7789   48.3429  133.7469 C   0  0  0  0  0  0  0  0  0  0  0  0
    9.2069   47.0717  133.3530 C   0  0  0  0  0  0  0  0  0  0  0  0
    9.8013   46.9365  132.0457 C   0  0  0  0  0  0  0  0  0  0  0  0
    9.0492   47.6580  130.9967 C   0  0  0  0  0  0  0  0  0  0  0  0
    7.5241   47.7726  131.0134 C   0  0  0  0  0  0  0  0  0  0  0  0
    7.0759   46.5049  130.0218 C   0  0  0  0  0  0  0  0  0  0  0  0
    8.0759   45.7554  130.6602 C   0  0  0  0  0  0  0  0  0  0  0  0
    9.2178   46.7011  129.8119 C   0  0  0  0  0  0  0  0  0  0  0  0
    8.8325   44.9081  131.2256 C   0  0  0  0  0  0  0  0  0  0  0  0
   10.2068   45.4767  131.6986 C   0  0  0  0  0  0  0  0  0  0  0  0
    8.4243   50.5054  135.8022 H   0  0  0  0  0  0  0  0  0  0  0  0
   10.7324   43.2550  132.7367 C   0  0  0  0  0  0  0  0  0  0  0  0
   10.3795   42.9199  131.3147 C   0  0  0  0  0  0  0  0  0  0  0  0
   11.5500   42.5234  130.4907 C   0  0  0  0  0  0  0  0  0  0  0  0
   12.4069   43.7081  130.1337 C   0  0  0  0  0  0  0  0  0  0  0  0
   12.3116   44.1005  128.6939 C   0  0  0  0  0  0  0  0  0  0  0  0
   11.6844   45.4575  128.4972 C   0  0  0  0  0  0  0  0  0  0  0  0
    9.9288   43.9274  127.5874 C   0  0  0  0  0  0  0  0  0  0  0  0
   10.3599   45.3540  127.7712 C   0  0  0  0  0  0  0  0  0  0  0  0
 25 26  1  0  0  0
 26 24  1  0  0  0
 24 23  1  0  0  0
 23 22  1  0  0  0
 22 21  1  0  0  0
 21 20  1  0  0  0
 20 19  1  0  0  0
 19  1  1  0  0  0
  1  2  1  0  0  0
  2  3  1  0  0  0
  3  4  2  0  0  0
  4  5  1  0  0  0
  5  6  2  0  0  0
  6  7  1  0  0  0
  6  8  1  0  0  0
  8  9  2  0  0  0
  9 10  1  0  0  0
 10 11  1  0  0  0
 11 12  1  0  0  0
 12 13  1  0  0  0
 13 14  1  0  0  0
 14 15  1  0  0  0
 14 16  2  0  0  0
 16 17  1  0  0  0
 17  1  1  0  0  0
  9  3  1  0  0  0
 17 10  1  0  0  0
 15 11  1  0  0  0
  7 18  1  0  0  0
M  END
> <minimizedAffinity>
2.59622

> <CNNscore>
0.2781177461

> <CNNaffinity>
7.1974878311

> <CNN_VS>
2.0017490387

> <CNNaffinity_variance>
0.5930889249

$$$$
[H]Oc1c([H])c([H])c2c(c1[H])C1([H])C([H])(C([H])=C3C([H])([H])C([H])([H])C1([H])C3([H])[H])C([H])(C([H])([H])C([H])([H])C([H])([H])C([H])([H])C([H])([H])C([H])([H])C([H])([H])C([H])([H])[H])O2


 26 29  0  0  0  0  0  0  0  0999 V2000
    8.6450   45.0548  132.0909 C   0  0  0  0  0  0  0  0  0  0  0  0
    7.4533   45.1488  131.3337 O   0  0  0  0  0  0  0  0  0  0  0  0
    7.3716   46.1474  130.3738 C   0  0  0  0  0  0  0  0  0  0  0  0
    6.1486   46.6960  130.0001 C   0  0  0  0  0  0  0  0  0  0  0  0
    6.0993   47.6858  129.0460 C   0  0  0  0  0  0  0  0  0  0  0  0
    7.2655   48.1034  128.4892 C   0  0  0  0  0  0  0  0  0  0  0  0
    7.2151   49.1061  127.5229 O   0  0  0  0  0  0  0  0  0  0  0  0
    8.4727   47.5565  128.8630 C   0  0  0  0  0  0  0  0  0  0  0  0
    8.5669   46.5494  129.8280 C   0  0  0  0  0  0  0  0  0  0  0  0
    9.8803   46.0492  130.1532 C   0  0  0  0  0  0  0  0  0  0  0  0
   10.7112   45.7997  128.9557 C   0  0  0  0  0  0  0  0  0  0  0  0
   10.1216   45.2848  127.6416 C   0  0  0  0  0  0  0  0  0  0  0  0
   10.3766   43.6390  127.7752 C   0  0  0  0  0  0  0  0  0  0  0  0
    9.9875   43.7673  129.1173 C   0  0  0  0  0  0  0  0  0  0  0  0
   11.4805   44.5495  129.3947 C   0  0  0  0  0  0  0  0  0  0  0  0
    9.5311   43.6866  130.2985 C   0  0  0  0  0  0  0  0  0  0  0  0
    9.8639   44.9093  131.2095 C   0  0  0  0  0  0  0  0  0  0  0  0
    7.2770   50.0911  127.7799 H   0  0  0  0  0  0  0  0  0  0  0  0
    8.4619   43.8968  133.0258 C   0  0  0  0  0  0  0  0  0  0  0  0
    8.5226   44.3905  134.4441 C   0  0  0  0  0  0  0  0  0  0  0  0
    8.8136   45.8429  134.5546 C   0  0  0  0  0  0  0  0  0  0  0  0
   10.2380   46.0956  134.9701 C   0  0  0  0  0  0  0  0  0  0  0  0
   11.1399   46.4398  133.8282 C   0  0  0  0  0  0  0  0  0  0  0  0
   12.3675   45.5663  133.7679 C   0  0  0  0  0  0  0  0  0  0  0  0
   12.3020   43.2521  132.8240 C   0  0  0  0  0  0  0  0  0  0  0  0
   12.0251   44.1137  134.0222 C   0  0  0  0  0  0  0  0  0  0  0  0
 25 26  1  0  0  0
 26 24  1  0  0  0
 24 23  1  0  0  0
 23 22  1  0  0  0
 22 21  1  0  0  0
 21 20  1  0  0  0
 20 19  1  0  0  0
 19  1  1  0  0  0
  1  2  1  0  0  0
  2  3  1  0  0  0
  3  4  2  0  0  0
  4  5  1  0  0  0
  5  6  2  0  0  0
  6  7  1  0  0  0
  6  8  1  0  0  0
  8  9  2  0  0  0
  9 10  1  0  0  0
 10 11  1  0  0  0
 11 12  1  0  0  0
 12 13  1  0  0  0
 13 14  1  0  0  0
 14 15  1  0  0  0
 14 16  2  0  0  0
 16 17  1  0  0  0
 17  1  1  0  0  0
  9  3  1  0  0  0
 17 10  1  0  0  0
 15 11  1  0  0  0
  7 18  1  0  0  0
M  END
> <minimizedAffinity>
-6.44395

> <CNNscore>
0.2487110645

> <CNNaffinity>
7.2089643478

> <CNN_VS>
1.7929491997

> <CNNaffinity_variance>
0.0865263343

$$$$
[H]Oc1c([H])c([H])c2c(c1[H])C1([H])C([H])(C([H])=C3C([H])([H])C([H])([H])C1([H])C3([H])[H])C([H])(C([H])([H])C([H])([H])C([H])([H])C([H])([H])C([H])([H])C([H])([H])C([H])([H])C([H])([H])[H])O2


 26 29  0  0  0  0  0  0  0  0999 V2000
    7.9184   45.3113  130.5866 C   0  0  0  0  0  0  0  0  0  0  0  0
    8.3242   46.1708  129.5383 O   0  0  0  0  0  0  0  0  0  0  0  0
    7.9617   47.5078  129.6185 C   0  0  0  0  0  0  0  0  0  0  0  0
    7.7858   48.2815  128.4754 C   0  0  0  0  0  0  0  0  0  0  0  0
    7.4251   49.6044  128.5865 C   0  0  0  0  0  0  0  0  0  0  0  0
    7.2492   50.1226  129.8295 C   0  0  0  0  0  0  0  0  0  0  0  0
    6.8838   51.4626  129.9417 O   0  0  0  0  0  0  0  0  0  0  0  0
    7.4249   49.3519  130.9571 C   0  0  0  0  0  0  0  0  0  0  0  0
    7.7911   48.0045  130.8883 C   0  0  0  0  0  0  0  0  0  0  0  0
    7.9423   47.2838  132.1287 C   0  0  0  0  0  0  0  0  0  0  0  0
    8.6923   48.0486  133.1482 C   0  0  0  0  0  0  0  0  0  0  0  0
    9.8510   48.9793  132.7867 C   0  0  0  0  0  0  0  0  0  0  0  0
   11.1726   47.9832  133.0154 C   0  0  0  0  0  0  0  0  0  0  0  0
   10.4153   46.9703  132.4072 C   0  0  0  0  0  0  0  0  0  0  0  0
    9.4757   46.9239  133.8330 C   0  0  0  0  0  0  0  0  0  0  0  0
    9.9247   45.9957  131.7597 C   0  0  0  0  0  0  0  0  0  0  0  0
    8.3855   45.8066  131.9357 C   0  0  0  0  0  0  0  0  0  0  0  0
    5.9034   51.7430  129.9599 H   0  0  0  0  0  0  0  0  0  0  0  0
    8.4531   43.9514  130.2494 C   0  0  0  0  0  0  0  0  0  0  0  0
    8.9208   43.9431  128.8210 C   0  0  0  0  0  0  0  0  0  0  0  0
   10.3419   43.5402  128.6646 C   0  0  0  0  0  0  0  0  0  0  0  0
   11.2764   44.7014  128.8734 C   0  0  0  0  0  0  0  0  0  0  0  0
   12.5957   44.3075  129.4566 C   0  0  0  0  0  0  0  0  0  0  0  0
   12.6942   44.6001  130.9325 C   0  0  0  0  0  0  0  0  0  0  0  0
   12.2482   43.7270  133.2324 C   0  0  0  0  0  0  0  0  0  0  0  0
   12.2154   43.4272  131.7614 C   0  0  0  0  0  0  0  0  0  0  0  0
 25 26  1  0  0  0
 26 24  1  0  0  0
 24 23  1  0  0  0
 23 22  1  0  0  0
 22 21  1  0  0  0
 21 20  1  0  0  0
 20 19  1  0  0  0
 19  1  1  0  0  0
  1  2  1  0  0  0
  2  3  1  0  0  0
  3  4  2  0  0  0
  4  5  1  0  0  0
  5  6  2  0  0  0
  6  7  1  0  0  0
  6  8  1  0  0  0
  8  9  2  0  0  0
  9 10  1  0  0  0
 10 11  1  0  0  0
 11 12  1  0  0  0
 12 13  1  0  0  0
 13 14  1  0  0  0
 14 15  1  0  0  0
 14 16  2  0  0  0
 16 17  1  0  0  0
 17  1  1  0  0  0
  9  3  1  0  0  0
 17 10  1  0  0  0
 15 11  1  0  0  0
  7 18  1  0  0  0
M  END
> <minimizedAffinity>
-7.83855

> <CNNscore>
0.2395335585

> <CNNaffinity>
7.2404317856

> <CNN_VS>
1.7343263626

> <CNNaffinity_variance>
0.0883043259

$$$$
[H]Oc1c([H])c([H])c2c(c1[H])C1([H])C([H])(C([H])=C3C([H])([H])C([H])([H])C1([H])C3([H])[H])C([H])(C([H])([H])C([H])([H])C([H])([H])C([H])([H])C([H])([H])C([H])([H])C([H])([H])C([H])([H])[H])O2


 26 29  0  0  0  0  0  0  0  0999 V2000
    9.7031   46.9158  132.4225 C   0  0  0  0  0  0  0  0  0  0  0  0
   10.6775   46.6276  131.4377 O   0  0  0  0  0  0  0  0  0  0  0  0
   10.3448   45.7207  130.4417 C   0  0  0  0  0  0  0  0  0  0  0  0
   11.3154   44.9512  129.8076 C   0  0  0  0  0  0  0  0  0  0  0  0
   10.9550   44.0593  128.8242 C   0  0  0  0  0  0  0  0  0  0  0  0
    9.6408   43.9562  128.4974 C   0  0  0  0  0  0  0  0  0  0  0  0
    9.2761   43.0527  127.5013 O   0  0  0  0  0  0  0  0  0  0  0  0
    8.6848   44.7206  129.1283 C   0  0  0  0  0  0  0  0  0  0  0  0
    9.0085   45.6382  130.1321 C   0  0  0  0  0  0  0  0  0  0  0  0
    7.9313   46.3846  130.7349 C   0  0  0  0  0  0  0  0  0  0  0  0
    6.9719   46.9109  129.7402 C   0  0  0  0  0  0  0  0  0  0  0  0
    7.4084   47.3939  128.3561 C   0  0  0  0  0  0  0  0  0  0  0  0
    7.5711   49.0380  128.6043 C   0  0  0  0  0  0  0  0  0  0  0  0
    8.1638   48.7140  129.8343 C   0  0  0  0  0  0  0  0  0  0  0  0
    6.6091   48.2575  130.3750 C   0  0  0  0  0  0  0  0  0  0  0  0
    8.8390   48.5922  130.9016 C   0  0  0  0  0  0  0  0  0  0  0  0
    8.4084   47.3992  131.8112 C   0  0  0  0  0  0  0  0  0  0  0  0
    9.0369   42.0871  127.7257 H   0  0  0  0  0  0  0  0  0  0  0  0
   10.3209   47.9219  133.3471 C   0  0  0  0  0  0  0  0  0  0  0  0
   10.8248   47.2205  134.5772 C   0  0  0  0  0  0  0  0  0  0  0  0
   10.7924   45.7394  134.4707 C   0  0  0  0  0  0  0  0  0  0  0  0
   12.1183   45.1837  134.0252 C   0  0  0  0  0  0  0  0  0  0  0  0
   12.0065   43.8752  133.3102 C   0  0  0  0  0  0  0  0  0  0  0  0
   10.7230   43.1469  133.6194 C   0  0  0  0  0  0  0  0  0  0  0  0
    8.5343   42.9964  132.4203 C   0  0  0  0  0  0  0  0  0  0  0  0
   10.0093   42.7231  132.3533 C   0  0  0  0  0  0  0  0  0  0  0  0
 25 26  1  0  0  0
 26 24  1  0  0  0
 24 23  1  0  0  0
 23 22  1  0  0  0
 22 21  1  0  0  0
 21 20  1  0  0  0
 20 19  1  0  0  0
 19  1  1  0  0  0
  1  2  1  0  0  0
  2  3  1  0  0  0
  3  4  2  0  0  0
  4  5  1  0  0  0
  5  6  2  0  0  0
  6  7  1  0  0  0
  6  8  1  0  0  0
  8  9  2  0  0  0
  9 10  1  0  0  0
 10 11  1  0  0  0
 11 12  1  0  0  0
 12 13  1  0  0  0
 13 14  1  0  0  0
 14 15  1  0  0  0
 14 16  2  0  0  0
 16 17  1  0  0  0
 17  1  1  0  0  0
  9  3  1  0  0  0
 17 10  1  0  0  0
 15 11  1  0  0  0
  7 18  1  0  0  0
M  END
> <minimizedAffinity>
-6.80183

> <CNNscore>
0.1989363134

> <CNNaffinity>
7.2636871338

> <CNN_VS>
1.4450111389

> <CNNaffinity_variance>
0.1457420886

$$$$
[H]Oc1c([H])c([H])c(-c2nc([C@@]([H])(C([H])([H])C([H])([H])[H])C([H])([H])C([H])([H])C([H])([H])C([H])([H])C([H])([H])C([H])([H])C([H])(C([H])([H])[H])C([H])([H])[H])c([H])c3c([H])c(O[H])c([H])c([H])c23)c([H])c1F


 33 35  0  0  0  0  0  0  0  0999 V2000
    8.7608   45.4170  129.4393 C   0  0  0  0  0  0  0  0  0  0  0  0
    8.0256   46.4225  128.8644 C   0  0  0  0  0  0  0  0  0  0  0  0
    7.9764   47.7289  129.3253 C   0  0  0  0  0  0  0  0  0  0  0  0
    7.2285   48.6789  128.6823 C   0  0  0  0  0  0  0  0  0  0  0  0
    7.2282   49.9632  129.1668 C   0  0  0  0  0  0  0  0  0  0  0  0
    6.4601   50.9191  128.5001 O   0  0  0  0  0  0  0  0  0  0  0  0
    7.9766   50.2649  130.2821 C   0  0  0  0  0  0  0  0  0  0  0  0
    8.7430   49.2946  130.9429 C   0  0  0  0  0  0  0  0  0  0  0  0
    8.7433   48.0155  130.4639 C   0  0  0  0  0  0  0  0  0  0  0  0
    9.4839   47.0216  131.0545 C   0  0  0  0  0  0  0  0  0  0  0  0
    9.4694   45.7507  130.5206 N   0  0  0  0  0  0  0  0  0  0  0  0
    5.4935   51.0079  128.8401 H   0  0  0  0  0  0  0  0  0  0  0  0
   10.2928   47.2787  132.2274 C   0  0  0  0  0  0  0  0  0  0  0  0
   10.2281   48.3782  133.0465 C   0  0  0  0  0  0  0  0  0  0  0  0
   11.0161   48.5895  134.1389 C   0  0  0  0  0  0  0  0  0  0  0  0
   11.9639   47.6570  134.4880 C   0  0  0  0  0  0  0  0  0  0  0  0
   12.7808   47.8441  135.5944 O   0  0  0  0  0  0  0  0  0  0  0  0
   12.0778   46.5305  133.7052 C   0  0  0  0  0  0  0  0  0  0  0  0
   13.0241   45.6269  134.0764 F   0  0  0  0  0  0  0  0  0  0  0  0
   11.2695   46.3412  132.6067 C   0  0  0  0  0  0  0  0  0  0  0  0
   12.7166   48.6601  136.1829 H   0  0  0  0  0  0  0  0  0  0  0  0
    8.7539   44.0404  128.8734 C   0  0  0  0  0  0  0  0  0  0  0  0
   11.0702   44.7452  128.2275 C   0  0  0  0  0  0  0  0  0  0  0  0
    9.9267   43.8165  127.9769 C   0  0  0  0  0  0  0  0  0  0  0  0
    8.6639   43.0502  130.0048 C   0  0  0  0  0  0  0  0  0  0  0  0
    9.9442   42.2959  130.2235 C   0  0  0  0  0  0  0  0  0  0  0  0
   10.7539   42.8073  131.3655 C   0  0  0  0  0  0  0  0  0  0  0  0
   10.1458   42.3981  132.6870 C   0  0  0  0  0  0  0  0  0  0  0  0
    8.9094   43.1664  133.0376 C   0  0  0  0  0  0  0  0  0  0  0  0
    9.2913   44.2973  133.9681 C   0  0  0  0  0  0  0  0  0  0  0  0
    8.0652   45.1222  134.2422 C   0  0  0  0  0  0  0  0  0  0  0  0
    7.4323   45.4627  132.9080 C   0  0  0  0  0  0  0  0  0  0  0  0
    8.4620   46.3603  134.9979 C   0  0  0  0  0  0  0  0  0  0  0  0
 23 24  1  0  0  0
 24 22  1  0  0  0
 22 25  1  0  0  0
 25 26  1  0  0  0
 26 27  1  0  0  0
 27 28  1  0  0  0
 28 29  1  0  0  0
 29 30  1  0  0  0
 30 31  1  0  0  0
 31 32  1  0  0  0
 31 33  1  0  0  0
 22  1  1  0  0  0
  1  2  2  0  0  0
  2  3  1  0  0  0
  3  4  2  0  0  0
  4  5  1  0  0  0
  5  6  1  0  0  0
  5  7  2  0  0  0
  7  8  1  0  0  0
  8  9  2  0  0  0
  9 10  1  0  0  0
 10 11  2  0  0  0
 10 13  1  0  0  0
 13 14  2  0  0  0
 14 15  1  0  0  0
 15 16  2  0  0  0
 16 17  1  0  0  0
 16 18  1  0  0  0
 18 19  1  0  0  0
 18 20  2  0  0  0
 11  1  1  0  0  0
 20 13  1  0  0  0
  9  3  1  0  0  0
  6 12  1  0  0  0
 17 21  1  0  0  0
M  END
> <minimizedAffinity>
-3.14554

> <CNNscore>
0.4864125252

> <CNNaffinity>
8.2261343002

> <CNN_VS>
4.0012946129

> <CNNaffinity_variance>
0.1987447143

$$$$
[H]Oc1c([H])c([H])c(-c2nc([C@@]([H])(C([H])([H])C([H])([H])[H])C([H])([H])C([H])([H])C([H])([H])C([H])([H])C([H])([H])C([H])([H])C([H])(C([H])([H])[H])C([H])([H])[H])c([H])c3c([H])c(O[H])c([H])c([H])c23)c([H])c1F


 33 35  0  0  0  0  0  0  0  0999 V2000
    9.5205   47.6879  132.8243 C   0  0  0  0  0  0  0  0  0  0  0  0
    8.9236   48.8310  132.3561 C   0  0  0  0  0  0  0  0  0  0  0  0
    8.4372   48.9989  131.0690 C   0  0  0  0  0  0  0  0  0  0  0  0
    7.8386   50.1692  130.6853 C   0  0  0  0  0  0  0  0  0  0  0  0
    7.3557   50.2790  129.4050 C   0  0  0  0  0  0  0  0  0  0  0  0
    6.7490   51.4786  129.0300 O   0  0  0  0  0  0  0  0  0  0  0  0
    7.4833   49.2148  128.5411 C   0  0  0  0  0  0  0  0  0  0  0  0
    8.0960   48.0155  128.9307 C   0  0  0  0  0  0  0  0  0  0  0  0
    8.5791   47.9047  130.2033 C   0  0  0  0  0  0  0  0  0  0  0  0
    9.1759   46.7528  130.6533 C   0  0  0  0  0  0  0  0  0  0  0  0
    9.6277   46.6813  131.9536 N   0  0  0  0  0  0  0  0  0  0  0  0
    7.3887   52.1780  128.6306 H   0  0  0  0  0  0  0  0  0  0  0  0
    9.3357   45.5998  129.7925 C   0  0  0  0  0  0  0  0  0  0  0  0
    8.4009   44.6274  129.5376 C   0  0  0  0  0  0  0  0  0  0  0  0
    8.5932   43.5483  128.7268 C   0  0  0  0  0  0  0  0  0  0  0  0
    9.8006   43.3774  128.0922 C   0  0  0  0  0  0  0  0  0  0  0  0
   10.0262   42.2890  127.2608 O   0  0  0  0  0  0  0  0  0  0  0  0
   10.7802   44.3201  128.3072 C   0  0  0  0  0  0  0  0  0  0  0  0
   11.9631   44.1232  127.6655 F   0  0  0  0  0  0  0  0  0  0  0  0
   10.5605   45.4010  129.1314 C   0  0  0  0  0  0  0  0  0  0  0  0
    9.3251   41.5857  127.0875 H   0  0  0  0  0  0  0  0  0  0  0  0
   10.0131   47.5972  134.2259 C   0  0  0  0  0  0  0  0  0  0  0  0
    8.1566   45.9147  134.2619 C   0  0  0  0  0  0  0  0  0  0  0  0
    9.1320   46.7225  135.0551 C   0  0  0  0  0  0  0  0  0  0  0  0
   11.4531   47.1561  134.2075 C   0  0  0  0  0  0  0  0  0  0  0  0
   11.6079   45.6773  133.9947 C   0  0  0  0  0  0  0  0  0  0  0  0
   12.7566   45.3148  133.1170 C   0  0  0  0  0  0  0  0  0  0  0  0
   12.2972   44.4926  131.9353 C   0  0  0  0  0  0  0  0  0  0  0  0
   12.0436   43.0557  132.2713 C   0  0  0  0  0  0  0  0  0  0  0  0
   10.7068   42.6521  131.6877 C   0  0  0  0  0  0  0  0  0  0  0  0
    9.6206   43.1421  132.6037 C   0  0  0  0  0  0  0  0  0  0  0  0
    9.9172   42.6135  133.9928 C   0  0  0  0  0  0  0  0  0  0  0  0
    8.2911   42.6536  132.0986 C   0  0  0  0  0  0  0  0  0  0  0  0
 23 24  1  0  0  0
 24 22  1  0  0  0
 22 25  1  0  0  0
 25 26  1  0  0  0
 26 27  1  0  0  0
 27 28  1  0  0  0
 28 29  1  0  0  0
 29 30  1  0  0  0
 30 31  1  0  0  0
 31 32  1  0  0  0
 31 33  1  0  0  0
 22  1  1  0  0  0
  1  2  2  0  0  0
  2  3  1  0  0  0
  3  4  2  0  0  0
  4  5  1  0  0  0
  5  6  1  0  0  0
  5  7  2  0  0  0
  7  8  1  0  0  0
  8  9  2  0  0  0
  9 10  1  0  0  0
 10 11  2  0  0  0
 10 13  1  0  0  0
 13 14  2  0  0  0
 14 15  1  0  0  0
 15 16  2  0  0  0
 16 17  1  0  0  0
 16 18  1  0  0  0
 18 19  1  0  0  0
 18 20  2  0  0  0
 11  1  1  0  0  0
 20 13  1  0  0  0
  9  3  1  0  0  0
  6 12  1  0  0  0
 17 21  1  0  0  0
M  END
> <minimizedAffinity>
-7.20496

> <CNNscore>
0.4402392507

> <CNNaffinity>
8.2841167450

> <CNN_VS>
3.6469933987

> <CNNaffinity_variance>
0.2657472491

$$$$
[H]Oc1c([H])c([H])c(-c2nc([C@@]([H])(C([H])([H])C([H])([H])[H])C([H])([H])C([H])([H])C([H])([H])C([H])([H])C([H])([H])C([H])([H])C([H])(C([H])([H])[H])C([H])([H])[H])c([H])c3c([H])c(O[H])c([H])c([H])c23)c([H])c1F


 33 35  0  0  0  0  0  0  0  0999 V2000
    8.1685   46.7278  129.1259 C   0  0  0  0  0  0  0  0  0  0  0  0
    9.1455   46.3802  128.2279 C   0  0  0  0  0  0  0  0  0  0  0  0
    9.9232   45.2355  128.3091 C   0  0  0  0  0  0  0  0  0  0  0  0
   10.8687   44.9531  127.3597 C   0  0  0  0  0  0  0  0  0  0  0  0
   11.5998   43.7969  127.4744 C   0  0  0  0  0  0  0  0  0  0  0  0
   12.5598   43.5245  126.4987 O   0  0  0  0  0  0  0  0  0  0  0  0
   11.3659   42.9521  128.5358 C   0  0  0  0  0  0  0  0  0  0  0  0
   10.3988   43.2386  129.5097 C   0  0  0  0  0  0  0  0  0  0  0  0
    9.6717   44.3894  129.3988 C   0  0  0  0  0  0  0  0  0  0  0  0
    8.6991   44.7217  130.3092 C   0  0  0  0  0  0  0  0  0  0  0  0
    7.9760   45.8833  130.1421 N   0  0  0  0  0  0  0  0  0  0  0  0
   13.4973   43.8958  126.7017 H   0  0  0  0  0  0  0  0  0  0  0  0
    8.4056   43.8719  131.4440 C   0  0  0  0  0  0  0  0  0  0  0  0
    8.8870   44.0105  132.7220 C   0  0  0  0  0  0  0  0  0  0  0  0
    8.5947   43.1814  133.7641 C   0  0  0  0  0  0  0  0  0  0  0  0
    7.7567   42.1092  133.5696 C   0  0  0  0  0  0  0  0  0  0  0  0
    7.4406   41.2476  134.6109 O   0  0  0  0  0  0  0  0  0  0  0  0
    7.2402   41.9162  132.3084 C   0  0  0  0  0  0  0  0  0  0  0  0
    6.4146   40.8473  132.1479 F   0  0  0  0  0  0  0  0  0  0  0  0
    7.5515   42.7684  131.2726 C   0  0  0  0  0  0  0  0  0  0  0  0
    7.8059   41.3678  135.5428 H   0  0  0  0  0  0  0  0  0  0  0  0
    7.3804   47.9792  128.9577 C   0  0  0  0  0  0  0  0  0  0  0  0
    5.0363   47.3501  129.5807 C   0  0  0  0  0  0  0  0  0  0  0  0
    5.9944   47.6882  128.4849 C   0  0  0  0  0  0  0  0  0  0  0  0
    7.4255   48.7590  130.2455 C   0  0  0  0  0  0  0  0  0  0  0  0
    7.8315   47.9189  131.4225 C   0  0  0  0  0  0  0  0  0  0  0  0
    9.1686   47.2786  131.2695 C   0  0  0  0  0  0  0  0  0  0  0  0
   10.2475   48.1158  131.9163 C   0  0  0  0  0  0  0  0  0  0  0  0
   10.3942   49.4748  131.3051 C   0  0  0  0  0  0  0  0  0  0  0  0
    9.5345   50.4488  132.0816 C   0  0  0  0  0  0  0  0  0  0  0  0
    9.6586   50.1304  133.5452 C   0  0  0  0  0  0  0  0  0  0  0  0
   10.7944   49.1399  133.7057 C   0  0  0  0  0  0  0  0  0  0  0  0
    8.3564   49.5632  134.0392 C   0  0  0  0  0  0  0  0  0  0  0  0
 23 24  1  0  0  0
 24 22  1  0  0  0
 22 25  1  0  0  0
 25 26  1  0  0  0
 26 27  1  0  0  0
 27 28  1  0  0  0
 28 29  1  0  0  0
 29 30  1  0  0  0
 30 31  1  0  0  0
 31 32  1  0  0  0
 31 33  1  0  0  0
 22  1  1  0  0  0
  1  2  2  0  0  0
  2  3  1  0  0  0
  3  4  2  0  0  0
  4  5  1  0  0  0
  5  6  1  0  0  0
  5  7  2  0  0  0
  7  8  1  0  0  0
  8  9  2  0  0  0
  9 10  1  0  0  0
 10 11  2  0  0  0
 10 13  1  0  0  0
 13 14  2  0  0  0
 14 15  1  0  0  0
 15 16  2  0  0  0
 16 17  1  0  0  0
 16 18  1  0  0  0
 18 19  1  0  0  0
 18 20  2  0  0  0
 11  1  1  0  0  0
 20 13  1  0  0  0
  9  3  1  0  0  0
  6 12  1  0  0  0
 17 21  1  0  0  0
M  END
> <minimizedAffinity>
10.12671

> <CNNscore>
0.4227243066

> <CNNaffinity>
7.4095163345

> <CNN_VS>
3.1321825981

> <CNNaffinity_variance>
1.3608975410

$$$$
[H]Oc1c([H])c([H])c(-c2nc([C@@]([H])(C([H])([H])C([H])([H])[H])C([H])([H])C([H])([H])C([H])([H])C([H])([H])C([H])([H])C([H])([H])C([H])(C([H])([H])[H])C([H])([H])[H])c([H])c3c([H])c(O[H])c([H])c([H])c23)c([H])c1F


 33 35  0  0  0  0  0  0  0  0999 V2000
    8.5135   44.3357  132.0016 C   0  0  0  0  0  0  0  0  0  0  0  0
    9.3687   43.7403  131.1093 C   0  0  0  0  0  0  0  0  0  0  0  0
    9.8050   44.3172  129.9267 C   0  0  0  0  0  0  0  0  0  0  0  0
   10.6742   43.6605  129.0971 C   0  0  0  0  0  0  0  0  0  0  0  0
   11.0919   44.2825  127.9469 C   0  0  0  0  0  0  0  0  0  0  0  0
   11.9773   43.5991  127.1121 O   0  0  0  0  0  0  0  0  0  0  0  0
   10.6298   45.5462  127.6560 C   0  0  0  0  0  0  0  0  0  0  0  0
    9.7395   46.2211  128.5032 C   0  0  0  0  0  0  0  0  0  0  0  0
    9.3209   45.6033  129.6471 C   0  0  0  0  0  0  0  0  0  0  0  0
    8.4624   46.2146  130.5272 C   0  0  0  0  0  0  0  0  0  0  0  0
    8.0862   45.5592  131.6801 N   0  0  0  0  0  0  0  0  0  0  0  0
   11.5283   43.0179  126.3920 H   0  0  0  0  0  0  0  0  0  0  0  0
    7.9455   47.5436  130.2773 C   0  0  0  0  0  0  0  0  0  0  0  0
    6.8580   47.8720  129.5068 C   0  0  0  0  0  0  0  0  0  0  0  0
    6.4071   49.1397  129.2866 C   0  0  0  0  0  0  0  0  0  0  0  0
    7.0590   50.2056  129.8600 C   0  0  0  0  0  0  0  0  0  0  0  0
    6.6238   51.5075  129.6544 O   0  0  0  0  0  0  0  0  0  0  0  0
    8.1581   49.9414  130.6454 C   0  0  0  0  0  0  0  0  0  0  0  0
    8.7810   51.0164  131.1986 F   0  0  0  0  0  0  0  0  0  0  0  0
    8.5932   48.6514  130.8517 C   0  0  0  0  0  0  0  0  0  0  0  0
    5.8220   51.7265  129.0839 H   0  0  0  0  0  0  0  0  0  0  0  0
    8.0990   43.6394  133.2500 C   0  0  0  0  0  0  0  0  0  0  0  0
    7.3882   41.9128  131.5788 C   0  0  0  0  0  0  0  0  0  0  0  0
    7.7820   42.2036  132.9907 C   0  0  0  0  0  0  0  0  0  0  0  0
    9.1640   43.8410  134.2957 C   0  0  0  0  0  0  0  0  0  0  0  0
   10.4120   43.0531  134.0172 C   0  0  0  0  0  0  0  0  0  0  0  0
   11.6661   43.7601  134.4027 C   0  0  0  0  0  0  0  0  0  0  0  0
   12.1579   44.6426  133.2790 C   0  0  0  0  0  0  0  0  0  0  0  0
   12.0633   46.1054  133.5847 C   0  0  0  0  0  0  0  0  0  0  0  0
   10.9689   46.7075  132.7300 C   0  0  0  0  0  0  0  0  0  0  0  0
   10.2579   47.7568  133.5376 C   0  0  0  0  0  0  0  0  0  0  0  0
   11.2553   48.3338  134.5220 C   0  0  0  0  0  0  0  0  0  0  0  0
    9.0867   47.1287  134.2414 C   0  0  0  0  0  0  0  0  0  0  0  0
 23 24  1  0  0  0
 24 22  1  0  0  0
 22 25  1  0  0  0
 25 26  1  0  0  0
 26 27  1  0  0  0
 27 28  1  0  0  0
 28 29  1  0  0  0
 29 30  1  0  0  0
 30 31  1  0  0  0
 31 32  1  0  0  0
 31 33  1  0  0  0
 22  1  1  0  0  0
  1  2  2  0  0  0
  2  3  1  0  0  0
  3  4  2  0  0  0
  4  5  1  0  0  0
  5  6  1  0  0  0
  5  7  2  0  0  0
  7  8  1  0  0  0
  8  9  2  0  0  0
  9 10  1  0  0  0
 10 11  2  0  0  0
 10 13  1  0  0  0
 13 14  2  0  0  0
 14 15  1  0  0  0
 15 16  2  0  0  0
 16 17  1  0  0  0
 16 18  1  0  0  0
 18 19  1  0  0  0
 18 20  2  0  0  0
 11  1  1  0  0  0
 20 13  1  0  0  0
  9  3  1  0  0  0
  6 12  1  0  0  0
 17 21  1  0  0  0
M  END
> <minimizedAffinity>
-2.38178

> <CNNscore>
0.4137864709

> <CNNaffinity>
8.1432943344

> <CNN_VS>
3.3695850372

> <CNNaffinity_variance>
0.4891721606

$$$$
[H]Oc1c([H])c([H])c(-c2nc([C@@]([H])(C([H])([H])C([H])([H])[H])C([H])([H])C([H])([H])C([H])([H])C([H])([H])C([H])([H])C([H])([H])C([H])(C([H])([H])[H])C([H])([H])[H])c([H])c3c([H])c(O[H])c([H])c([H])c23)c([H])c1F


 33 35  0  0  0  0  0  0  0  0999 V2000
    9.5375   48.5874  131.8671 C   0  0  0  0  0  0  0  0  0  0  0  0
    8.3958   49.2678  131.5271 C   0  0  0  0  0  0  0  0  0  0  0  0
    7.5063   48.8759  130.5388 C   0  0  0  0  0  0  0  0  0  0  0  0
    6.3781   49.6047  130.2720 C   0  0  0  0  0  0  0  0  0  0  0  0
    5.5186   49.1640  129.2966 C   0  0  0  0  0  0  0  0  0  0  0  0
    4.3737   49.9188  129.0368 O   0  0  0  0  0  0  0  0  0  0  0  0
    5.8092   48.0049  128.6132 C   0  0  0  0  0  0  0  0  0  0  0  0
    6.9636   47.2567  128.8837 C   0  0  0  0  0  0  0  0  0  0  0  0
    7.8214   47.6943  129.8522 C   0  0  0  0  0  0  0  0  0  0  0  0
    8.9610   47.0007  130.1770 C   0  0  0  0  0  0  0  0  0  0  0  0
    9.7842   47.4708  131.1779 N   0  0  0  0  0  0  0  0  0  0  0  0
    4.4912   50.6457  128.3187 H   0  0  0  0  0  0  0  0  0  0  0  0
    9.3180   45.7741  129.4958 C   0  0  0  0  0  0  0  0  0  0  0  0
   10.1703   45.6443  128.4277 C   0  0  0  0  0  0  0  0  0  0  0  0
   10.4741   44.4699  127.8052 C   0  0  0  0  0  0  0  0  0  0  0  0
    9.9080   43.2972  128.2456 C   0  0  0  0  0  0  0  0  0  0  0  0
   10.1978   42.0862  127.6324 O   0  0  0  0  0  0  0  0  0  0  0  0
    9.0437   43.3612  129.3150 C   0  0  0  0  0  0  0  0  0  0  0  0
    8.5002   42.1845  129.7271 F   0  0  0  0  0  0  0  0  0  0  0  0
    8.7533   44.5606  129.9259 C   0  0  0  0  0  0  0  0  0  0  0  0
   10.8271   42.0134  126.8482 H   0  0  0  0  0  0  0  0  0  0  0  0
   10.4353   49.0839  132.9455 C   0  0  0  0  0  0  0  0  0  0  0  0
    9.4488   51.3441  132.5015 C   0  0  0  0  0  0  0  0  0  0  0  0
    9.9329   50.3661  133.5224 C   0  0  0  0  0  0  0  0  0  0  0  0
   10.6151   47.9934  133.9688 C   0  0  0  0  0  0  0  0  0  0  0  0
    9.4610   47.0329  134.0071 C   0  0  0  0  0  0  0  0  0  0  0  0
    9.5811   45.9932  135.0681 C   0  0  0  0  0  0  0  0  0  0  0  0
   10.5448   44.9054  134.6541 C   0  0  0  0  0  0  0  0  0  0  0  0
   11.5491   45.3536  133.6380 C   0  0  0  0  0  0  0  0  0  0  0  0
   11.1575   44.7878  132.2900 C   0  0  0  0  0  0  0  0  0  0  0  0
   12.1020   43.6688  131.9515 C   0  0  0  0  0  0  0  0  0  0  0  0
   12.7650   44.0097  130.6320 C   0  0  0  0  0  0  0  0  0  0  0  0
   11.3308   42.3806  131.8661 C   0  0  0  0  0  0  0  0  0  0  0  0
 23 24  1  0  0  0
 24 22  1  0  0  0
 22 25  1  0  0  0
 25 26  1  0  0  0
 26 27  1  0  0  0
 27 28  1  0  0  0
 28 29  1  0  0  0
 29 30  1  0  0  0
 30 31  1  0  0  0
 31 32  1  0  0  0
 31 33  1  0  0  0
 22  1  1  0  0  0
  1  2  2  0  0  0
  2  3  1  0  0  0
  3  4  2  0  0  0
  4  5  1  0  0  0
  5  6  1  0  0  0
  5  7  2  0  0  0
  7  8  1  0  0  0
  8  9  2  0  0  0
  9 10  1  0  0  0
 10 11  2  0  0  0
 10 13  1  0  0  0
 13 14  2  0  0  0
 14 15  1  0  0  0
 15 16  2  0  0  0
 16 17  1  0  0  0
 16 18  1  0  0  0
 18 19  1  0  0  0
 18 20  2  0  0  0
 11  1  1  0  0  0
 20 13  1  0  0  0
  9  3  1  0  0  0
  6 12  1  0  0  0
 17 21  1  0  0  0
M  END
> <minimizedAffinity>
-5.33818

> <CNNscore>
0.4068378806

> <CNNaffinity>
8.0463390350

> <CNN_VS>
3.2735555172

> <CNNaffinity_variance>
0.2819411755

$$$$
[H]Oc1c([H])c([H])c(-c2nc([C@@]([H])(C([H])([H])C([H])([H])[H])C([H])([H])C([H])([H])C([H])([H])C([H])([H])C([H])([H])C([H])([H])C([H])(C([H])([H])[H])C([H])([H])[H])c([H])c3c([H])c(O[H])c([H])c([H])c23)c([H])c1F


 33 35  0  0  0  0  0  0  0  0999 V2000
    9.7337   47.0639  129.7443 C   0  0  0  0  0  0  0  0  0  0  0  0
    9.9152   48.0103  130.7207 C   0  0  0  0  0  0  0  0  0  0  0  0
   10.3823   47.7480  131.9992 C   0  0  0  0  0  0  0  0  0  0  0  0
   10.5512   48.7549  132.9118 C   0  0  0  0  0  0  0  0  0  0  0  0
   11.0351   48.4462  134.1588 C   0  0  0  0  0  0  0  0  0  0  0  0
   11.2007   49.4840  135.0771 O   0  0  0  0  0  0  0  0  0  0  0  0
   11.3384   47.1379  134.4610 C   0  0  0  0  0  0  0  0  0  0  0  0
   11.1662   46.1047  133.5291 C   0  0  0  0  0  0  0  0  0  0  0  0
   10.6829   46.4091  132.2885 C   0  0  0  0  0  0  0  0  0  0  0  0
   10.5055   45.4474  131.3247 C   0  0  0  0  0  0  0  0  0  0  0  0
   10.0362   45.8074  130.0796 N   0  0  0  0  0  0  0  0  0  0  0  0
   10.3791   49.6724  135.6665 H   0  0  0  0  0  0  0  0  0  0  0  0
   10.8098   44.0556  131.5823 C   0  0  0  0  0  0  0  0  0  0  0  0
   11.7696   43.5672  132.4335 C   0  0  0  0  0  0  0  0  0  0  0  0
   12.0337   42.2459  132.6419 C   0  0  0  0  0  0  0  0  0  0  0  0
   11.3083   41.2903  131.9707 C   0  0  0  0  0  0  0  0  0  0  0  0
   11.5540   39.9377  132.1620 O   0  0  0  0  0  0  0  0  0  0  0  0
   10.3297   41.7171  131.1020 C   0  0  0  0  0  0  0  0  0  0  0  0
    9.6296   40.7480  130.4534 F   0  0  0  0  0  0  0  0  0  0  0  0
   10.0830   43.0579  130.9092 C   0  0  0  0  0  0  0  0  0  0  0  0
   12.2647   39.6004  132.7924 H   0  0  0  0  0  0  0  0  0  0  0  0
    9.2273   47.4387  128.3958 C   0  0  0  0  0  0  0  0  0  0  0  0
   10.2293   45.3542  127.4315 C   0  0  0  0  0  0  0  0  0  0  0  0
   10.0623   46.8347  127.3155 C   0  0  0  0  0  0  0  0  0  0  0  0
    7.7692   47.0723  128.3050 C   0  0  0  0  0  0  0  0  0  0  0  0
    6.8856   48.2563  128.0341 C   0  0  0  0  0  0  0  0  0  0  0  0
    5.4298   47.9544  128.1379 C   0  0  0  0  0  0  0  0  0  0  0  0
    4.8823   48.3810  129.4801 C   0  0  0  0  0  0  0  0  0  0  0  0
    5.1373   49.8219  129.7974 C   0  0  0  0  0  0  0  0  0  0  0  0
    6.3336   49.9086  130.7204 C   0  0  0  0  0  0  0  0  0  0  0  0
    7.2792   50.9430  130.1774 C   0  0  0  0  0  0  0  0  0  0  0  0
    6.5300   51.7491  129.1354 C   0  0  0  0  0  0  0  0  0  0  0  0
    8.4782   50.2541  129.5864 C   0  0  0  0  0  0  0  0  0  0  0  0
 23 24  1  0  0  0
 24 22  1  0  0  0
 22 25  1  0  0  0
 25 26  1  0  0  0
 26 27  1  0  0  0
 27 28  1  0  0  0
 28 29  1  0  0  0
 29 30  1  0  0  0
 30 31  1  0  0  0
 31 32  1  0  0  0
 31 33  1  0  0  0
 22  1  1  0  0  0
  1  2  2  0  0  0
  2  3  1  0  0  0
  3  4  2  0  0  0
  4  5  1  0  0  0
  5  6  1  0  0  0
  5  7  2  0  0  0
  7  8  1  0  0  0
  8  9  2  0  0  0
  9 10  1  0  0  0
 10 11  2  0  0  0
 10 13  1  0  0  0
 13 14  2  0  0  0
 14 15  1  0  0  0
 15 16  2  0  0  0
 16 17  1  0  0  0
 16 18  1  0  0  0
 18 19  1  0  0  0
 18 20  2  0  0  0
 11  1  1  0  0  0
 20 13  1  0  0  0
  9  3  1  0  0  0
  6 12  1  0  0  0
 17 21  1  0  0  0
M  END
> <minimizedAffinity>
7.58153

> <CNNscore>
0.4066689014

> <CNNaffinity>
7.7084236145

> <CNN_VS>
3.1347761154

> <CNNaffinity_variance>
2.1151566505

$$$$
[H]Oc1c([H])c([H])c(-c2nc([C@@]([H])(C([H])([H])C([H])([H])[H])C([H])([H])C([H])([H])C([H])([H])C([H])([H])C([H])([H])C([H])([H])C([H])(C([H])([H])[H])C([H])([H])[H])c([H])c3c([H])c(O[H])c([H])c([H])c23)c([H])c1F


 33 35  0  0  0  0  0  0  0  0999 V2000
    8.3486   44.6768  132.0441 C   0  0  0  0  0  0  0  0  0  0  0  0
    9.1600   43.9706  131.1927 C   0  0  0  0  0  0  0  0  0  0  0  0
    9.6260   44.4390  129.9740 C   0  0  0  0  0  0  0  0  0  0  0  0
   10.4479   43.6750  129.1892 C   0  0  0  0  0  0  0  0  0  0  0  0
   10.8982   44.1918  127.9998 C   0  0  0  0  0  0  0  0  0  0  0  0
   11.7346   43.3999  127.2116 O   0  0  0  0  0  0  0  0  0  0  0  0
   10.5154   45.4602  127.6260 C   0  0  0  0  0  0  0  0  0  0  0  0
    9.6737   46.2447  128.4271 C   0  0  0  0  0  0  0  0  0  0  0  0
    9.2227   45.7319  129.6099 C   0  0  0  0  0  0  0  0  0  0  0  0
    8.4088   46.4532  130.4481 C   0  0  0  0  0  0  0  0  0  0  0  0
    7.9978   45.9008  131.6423 N   0  0  0  0  0  0  0  0  0  0  0  0
   11.2462   42.8019  126.5321 H   0  0  0  0  0  0  0  0  0  0  0  0
    7.9756   47.7928  130.1109 C   0  0  0  0  0  0  0  0  0  0  0  0
    7.0768   48.1457  129.1353 C   0  0  0  0  0  0  0  0  0  0  0  0
    6.7010   49.4226  128.8401 C   0  0  0  0  0  0  0  0  0  0  0  0
    7.2361   50.4728  129.5477 C   0  0  0  0  0  0  0  0  0  0  0  0
    6.8732   51.7835  129.2704 O   0  0  0  0  0  0  0  0  0  0  0  0
    8.1442   50.1838  130.5409 C   0  0  0  0  0  0  0  0  0  0  0  0
    8.6555   51.2438  131.2227 F   0  0  0  0  0  0  0  0  0  0  0  0
    8.5071   48.8850  130.8190 C   0  0  0  0  0  0  0  0  0  0  0  0
    6.2107   52.0206  128.5484 H   0  0  0  0  0  0  0  0  0  0  0  0
    7.8972   44.0923  133.3364 C   0  0  0  0  0  0  0  0  0  0  0  0
    9.4848   42.1835  133.6751 C   0  0  0  0  0  0  0  0  0  0  0  0
    8.0886   42.6117  133.3585 C   0  0  0  0  0  0  0  0  0  0  0  0
    8.5962   44.8062  134.4634 C   0  0  0  0  0  0  0  0  0  0  0  0
    8.4476   46.2990  134.3900 C   0  0  0  0  0  0  0  0  0  0  0  0
    9.7097   47.0416  134.6673 C   0  0  0  0  0  0  0  0  0  0  0  0
   10.1742   47.7965  133.4435 C   0  0  0  0  0  0  0  0  0  0  0  0
   11.1717   47.0418  132.6204 C   0  0  0  0  0  0  0  0  0  0  0  0
   11.8882   46.0543  133.5160 C   0  0  0  0  0  0  0  0  0  0  0  0
   11.9693   44.7352  132.8003 C   0  0  0  0  0  0  0  0  0  0  0  0
   12.5954   43.7341  133.7503 C   0  0  0  0  0  0  0  0  0  0  0  0
   12.7907   44.9007  131.5515 C   0  0  0  0  0  0  0  0  0  0  0  0
 23 24  1  0  0  0
 24 22  1  0  0  0
 22 25  1  0  0  0
 25 26  1  0  0  0
 26 27  1  0  0  0
 27 28  1  0  0  0
 28 29  1  0  0  0
 29 30  1  0  0  0
 30 31  1  0  0  0
 31 32  1  0  0  0
 31 33  1  0  0  0
 22  1  1  0  0  0
  1  2  2  0  0  0
  2  3  1  0  0  0
  3  4  2  0  0  0
  4  5  1  0  0  0
  5  6  1  0  0  0
  5  7  2  0  0  0
  7  8  1  0  0  0
  8  9  2  0  0  0
  9 10  1  0  0  0
 10 11  2  0  0  0
 10 13  1  0  0  0
 13 14  2  0  0  0
 14 15  1  0  0  0
 15 16  2  0  0  0
 16 17  1  0  0  0
 16 18  1  0  0  0
 18 19  1  0  0  0
 18 20  2  0  0  0
 11  1  1  0  0  0
 20 13  1  0  0  0
  9  3  1  0  0  0
  6 12  1  0  0  0
 17 21  1  0  0  0
M  END
> <minimizedAffinity>
-4.68095

> <CNNscore>
0.3856567442

> <CNNaffinity>
8.1186923981

> <CNN_VS>
3.1310284138

> <CNNaffinity_variance>
0.3113653660

$$$$
[H]Oc1c([H])c([H])c(-c2nc([C@@]([H])(C([H])([H])C([H])([H])[H])C([H])([H])C([H])([H])C([H])([H])C([H])([H])C([H])([H])C([H])([H])C([H])(C([H])([H])[H])C([H])([H])[H])c([H])c3c([H])c(O[H])c([H])c([H])c23)c([H])c1F


 33 35  0  0  0  0  0  0  0  0999 V2000
    9.6596   44.4684  133.3321 C   0  0  0  0  0  0  0  0  0  0  0  0
    9.0151   45.1162  134.3553 C   0  0  0  0  0  0  0  0  0  0  0  0
    8.7748   46.4807  134.4004 C   0  0  0  0  0  0  0  0  0  0  0  0
    8.1081   47.0478  135.4535 C   0  0  0  0  0  0  0  0  0  0  0  0
    7.8778   48.4011  135.4418 C   0  0  0  0  0  0  0  0  0  0  0  0
    7.1976   48.9633  136.5231 O   0  0  0  0  0  0  0  0  0  0  0  0
    8.3197   49.1526  134.3765 C   0  0  0  0  0  0  0  0  0  0  0  0
    9.0028   48.5750  133.2970 C   0  0  0  0  0  0  0  0  0  0  0  0
    9.2350   47.2291  133.3074 C   0  0  0  0  0  0  0  0  0  0  0  0
    9.8842   46.5986  132.2747 C   0  0  0  0  0  0  0  0  0  0  0  0
   10.0751   45.2342  132.3203 N   0  0  0  0  0  0  0  0  0  0  0  0
    7.8008   49.2789  137.2941 H   0  0  0  0  0  0  0  0  0  0  0  0
   10.3691   47.3351  131.1264 C   0  0  0  0  0  0  0  0  0  0  0  0
   10.5407   48.6937  131.0329 C   0  0  0  0  0  0  0  0  0  0  0  0
   10.9911   49.3529  129.9277 C   0  0  0  0  0  0  0  0  0  0  0  0
   11.3121   48.6450  128.7938 C   0  0  0  0  0  0  0  0  0  0  0  0
   11.7732   49.2879  127.6533 O   0  0  0  0  0  0  0  0  0  0  0  0
   11.1618   47.2771  128.8246 C   0  0  0  0  0  0  0  0  0  0  0  0
   11.4876   46.6052  127.6879 F   0  0  0  0  0  0  0  0  0  0  0  0
   10.7045   46.6356  129.9539 C   0  0  0  0  0  0  0  0  0  0  0  0
   11.8916   50.2879  127.6061 H   0  0  0  0  0  0  0  0  0  0  0  0
    9.8727   42.9958  133.3687 C   0  0  0  0  0  0  0  0  0  0  0  0
   11.6742   43.5802  135.0094 C   0  0  0  0  0  0  0  0  0  0  0  0
   10.6409   42.5887  134.5825 C   0  0  0  0  0  0  0  0  0  0  0  0
    8.5385   42.3083  133.2425 C   0  0  0  0  0  0  0  0  0  0  0  0
    7.7652   42.7521  132.0339 C   0  0  0  0  0  0  0  0  0  0  0  0
    8.5176   42.6103  130.7552 C   0  0  0  0  0  0  0  0  0  0  0  0
    8.9327   43.9603  130.2181 C   0  0  0  0  0  0  0  0  0  0  0  0
    7.8654   44.6358  129.4140 C   0  0  0  0  0  0  0  0  0  0  0  0
    7.3894   45.8563  130.1720 C   0  0  0  0  0  0  0  0  0  0  0  0
    6.7311   46.7936  129.1989 C   0  0  0  0  0  0  0  0  0  0  0  0
    7.5115   48.0927  129.2119 C   0  0  0  0  0  0  0  0  0  0  0  0
    5.2995   47.0046  129.6081 C   0  0  0  0  0  0  0  0  0  0  0  0
 23 24  1  0  0  0
 24 22  1  0  0  0
 22 25  1  0  0  0
 25 26  1  0  0  0
 26 27  1  0  0  0
 27 28  1  0  0  0
 28 29  1  0  0  0
 29 30  1  0  0  0
 30 31  1  0  0  0
 31 32  1  0  0  0
 31 33  1  0  0  0
 22  1  1  0  0  0
  1  2  2  0  0  0
  2  3  1  0  0  0
  3  4  2  0  0  0
  4  5  1  0  0  0
  5  6  1  0  0  0
  5  7  2  0  0  0
  7  8  1  0  0  0
  8  9  2  0  0  0
  9 10  1  0  0  0
 10 11  2  0  0  0
 10 13  1  0  0  0
 13 14  2  0  0  0
 14 15  1  0  0  0
 15 16  2  0  0  0
 16 17  1  0  0  0
 16 18  1  0  0  0
 18 19  1  0  0  0
 18 20  2  0  0  0
 11  1  1  0  0  0
 20 13  1  0  0  0
  9  3  1  0  0  0
  6 12  1  0  0  0
 17 21  1  0  0  0
M  END
> <minimizedAffinity>
11.29469

> <CNNscore>
0.3326692879

> <CNNaffinity>
7.4165992737

> <CNN_VS>
2.4672749043

> <CNNaffinity_variance>
1.0862680674

$$$$
[H]Oc1c([H])c([H])c(-c2nc([C@@]([H])(C([H])([H])C([H])([H])[H])C([H])([H])C([H])([H])C([H])([H])C([H])([H])C([H])([H])C([H])([H])C([H])(C([H])([H])[H])C([H])([H])[H])c([H])c3c([H])c(O[H])c([H])c([H])c23)c([H])c1F


 33 35  0  0  0  0  0  0  0  0999 V2000
    8.4443   45.0876  129.6274 C   0  0  0  0  0  0  0  0  0  0  0  0
    7.4981   45.9114  129.0724 C   0  0  0  0  0  0  0  0  0  0  0  0
    7.1750   47.1745  129.5434 C   0  0  0  0  0  0  0  0  0  0  0  0
    6.2271   47.9415  128.9202 C   0  0  0  0  0  0  0  0  0  0  0  0
    5.9570   49.1936  129.4138 C   0  0  0  0  0  0  0  0  0  0  0  0
    4.9878   49.9621  128.7673 O   0  0  0  0  0  0  0  0  0  0  0  0
    6.6424   49.6469  130.5182 C   0  0  0  0  0  0  0  0  0  0  0  0
    7.6131   48.8639  131.1588 C   0  0  0  0  0  0  0  0  0  0  0  0
    7.8821   47.6170  130.6708 C   0  0  0  0  0  0  0  0  0  0  0  0
    8.8315   46.8056  131.2414 C   0  0  0  0  0  0  0  0  0  0  0  0
    9.0832   45.5637  130.6988 N   0  0  0  0  0  0  0  0  0  0  0  0
    4.0313   49.8379  129.1244 H   0  0  0  0  0  0  0  0  0  0  0  0
    9.5866   47.2283  132.4020 C   0  0  0  0  0  0  0  0  0  0  0  0
   10.0022   46.4391  133.4454 C   0  0  0  0  0  0  0  0  0  0  0  0
   10.7046   46.8774  134.5286 C   0  0  0  0  0  0  0  0  0  0  0  0
   11.0476   48.2048  134.6287 C   0  0  0  0  0  0  0  0  0  0  0  0
   11.7623   48.6808  135.7193 O   0  0  0  0  0  0  0  0  0  0  0  0
   10.6597   49.0485  133.6126 C   0  0  0  0  0  0  0  0  0  0  0  0
   11.0140   50.3554  133.7406 F   0  0  0  0  0  0  0  0  0  0  0  0
    9.9504   48.5804  132.5292 C   0  0  0  0  0  0  0  0  0  0  0  0
   12.0576   48.0831  136.4755 H   0  0  0  0  0  0  0  0  0  0  0  0
    8.7259   43.7441  129.0519 C   0  0  0  0  0  0  0  0  0  0  0  0
   10.7293   44.4688  127.7326 C   0  0  0  0  0  0  0  0  0  0  0  0
   10.1841   43.5619  128.7878 C   0  0  0  0  0  0  0  0  0  0  0  0
    8.1434   42.6940  129.9610 C   0  0  0  0  0  0  0  0  0  0  0  0
    9.1213   42.2064  130.9914 C   0  0  0  0  0  0  0  0  0  0  0  0
    8.9332   42.8223  132.3354 C   0  0  0  0  0  0  0  0  0  0  0  0
   10.2610   43.0347  133.0248 C   0  0  0  0  0  0  0  0  0  0  0  0
   11.4100   42.3845  132.3185 C   0  0  0  0  0  0  0  0  0  0  0  0
   12.6101   43.3028  132.4020 C   0  0  0  0  0  0  0  0  0  0  0  0
   12.3975   44.4505  131.4551 C   0  0  0  0  0  0  0  0  0  0  0  0
   13.2313   44.1863  130.2175 C   0  0  0  0  0  0  0  0  0  0  0  0
   12.8029   45.7307  132.1320 C   0  0  0  0  0  0  0  0  0  0  0  0
 23 24  1  0  0  0
 24 22  1  0  0  0
 22 25  1  0  0  0
 25 26  1  0  0  0
 26 27  1  0  0  0
 27 28  1  0  0  0
 28 29  1  0  0  0
 29 30  1  0  0  0
 30 31  1  0  0  0
 31 32  1  0  0  0
 31 33  1  0  0  0
 22  1  1  0  0  0
  1  2  2  0  0  0
  2  3  1  0  0  0
  3  4  2  0  0  0
  4  5  1  0  0  0
  5  6  1  0  0  0
  5  7  2  0  0  0
  7  8  1  0  0  0
  8  9  2  0  0  0
  9 10  1  0  0  0
 10 11  2  0  0  0
 10 13  1  0  0  0
 13 14  2  0  0  0
 14 15  1  0  0  0
 15 16  2  0  0  0
 16 17  1  0  0  0
 16 18  1  0  0  0
 18 19  1  0  0  0
 18 20  2  0  0  0
 11  1  1  0  0  0
 20 13  1  0  0  0
  9  3  1  0  0  0
  6 12  1  0  0  0
 17 21  1  0  0  0
M  END
> <minimizedAffinity>
-2.13374

> <CNNscore>
0.3122275472

> <CNNaffinity>
7.9225473404

> <CNN_VS>
2.4736375809

> <CNNaffinity_variance>
0.2608636022

$$$$
[H]Oc1c([H])c([H])c(-c2c(O[H])c([H])c([H])c3c2c(=O)n(C([H])([H])[H])c(=S)n3C([H])([H])[H])c([H])c1[H]


 24 26  0  0  0  0  0  0  0  0999 V2000
   12.5139   43.1522  132.5865 C   0  0  0  0  0  0  0  0  0  0  0  0
   11.4560   44.1694  132.4790 N   0  0  0  0  0  0  0  0  0  0  0  0
   11.1145   44.6624  131.2794 C   0  0  0  0  0  0  0  0  0  0  0  0
   11.7628   44.2018  130.1641 C   0  0  0  0  0  0  0  0  0  0  0  0
   11.4491   44.6714  128.9162 C   0  0  0  0  0  0  0  0  0  0  0  0
   10.4655   45.6207  128.7970 C   0  0  0  0  0  0  0  0  0  0  0  0
   10.0903   46.1459  127.5709 O   0  0  0  0  0  0  0  0  0  0  0  0
    9.7777   46.1188  129.9131 C   0  0  0  0  0  0  0  0  0  0  0  0
   10.1088   45.6321  131.1601 C   0  0  0  0  0  0  0  0  0  0  0  0
    9.4859   46.0600  132.3067 C   0  0  0  0  0  0  0  0  0  0  0  0
    8.5829   46.9240  132.2393 O   0  0  0  0  0  0  0  0  0  0  0  0
    9.8525   45.5424  133.5134 N   0  0  0  0  0  0  0  0  0  0  0  0
    9.1655   46.0247  134.7065 C   0  0  0  0  0  0  0  0  0  0  0  0
   10.8149   44.6236  133.5631 C   0  0  0  0  0  0  0  0  0  0  0  0
   11.2356   44.0192  135.0233 S   0  0  0  0  0  0  0  0  0  0  0  0
   10.5602   45.8147  126.7390 H   0  0  0  0  0  0  0  0  0  0  0  0
    8.7519   47.1168  129.7237 C   0  0  0  0  0  0  0  0  0  0  0  0
    9.0721   48.4470  129.8173 C   0  0  0  0  0  0  0  0  0  0  0  0
    8.1208   49.4288  129.6829 C   0  0  0  0  0  0  0  0  0  0  0  0
    6.8169   49.0495  129.4486 C   0  0  0  0  0  0  0  0  0  0  0  0
    5.8722   50.0777  129.3168 O   0  0  0  0  0  0  0  0  0  0  0  0
    6.4608   47.7150  129.3486 C   0  0  0  0  0  0  0  0  0  0  0  0
    7.4486   46.7522  129.4898 C   0  0  0  0  0  0  0  0  0  0  0  0
    5.7447   50.4157  128.3516 H   0  0  0  0  0  0  0  0  0  0  0  0
  1  2  1  0  0  0
  2  3  1  0  0  0
  3  4  2  0  0  0
  4  5  1  0  0  0
  5  6  2  0  0  0
  6  7  1  0  0  0
  6  8  1  0  0  0
  8  9  2  0  0  0
  9 10  1  0  0  0
 10 11  2  0  0  0
 10 12  1  0  0  0
 12 13  1  0  0  0
 12 14  1  0  0  0
 14 15  2  0  0  0
  8 17  1  0  0  0
 17 18  2  0  0  0
 18 19  1  0  0  0
 19 20  2  0  0  0
 20 21  1  0  0  0
 20 22  1  0  0  0
 22 23  2  0  0  0
 14  2  1  0  0  0
 23 17  1  0  0  0
  9  3  1  0  0  0
  7 16  1  0  0  0
 21 24  1  0  0  0
M  END
> <minimizedAffinity>
-8.76550

> <CNNscore>
0.7232184410

> <CNNaffinity>
7.4915723801

> <CNN_VS>
5.4180431366

> <CNNaffinity_variance>
0.8056718707

$$$$
[H]Oc1c([H])c([H])c(-c2c(O[H])c([H])c([H])c3c2c(=O)n(C([H])([H])[H])c(=S)n3C([H])([H])[H])c([H])c1[H]


 24 26  0  0  0  0  0  0  0  0999 V2000
   10.3989   42.7100  133.1787 C   0  0  0  0  0  0  0  0  0  0  0  0
    9.9306   43.6804  132.1765 N   0  0  0  0  0  0  0  0  0  0  0  0
    9.6022   44.9268  132.5473 C   0  0  0  0  0  0  0  0  0  0  0  0
    9.7132   45.2771  133.8668 C   0  0  0  0  0  0  0  0  0  0  0  0
    9.3928   46.5379  134.2958 C   0  0  0  0  0  0  0  0  0  0  0  0
    8.9537   47.4557  133.3752 C   0  0  0  0  0  0  0  0  0  0  0  0
    8.6100   48.7506  133.7289 O   0  0  0  0  0  0  0  0  0  0  0  0
    8.8258   47.1379  132.0153 C   0  0  0  0  0  0  0  0  0  0  0  0
    9.1541   45.8631  131.6046 C   0  0  0  0  0  0  0  0  0  0  0  0
    9.0626   45.4654  130.2934 C   0  0  0  0  0  0  0  0  0  0  0  0
    8.6673   46.2740  129.4237 O   0  0  0  0  0  0  0  0  0  0  0  0
    9.4027   44.1924  129.9437 N   0  0  0  0  0  0  0  0  0  0  0  0
    9.2906   43.8111  128.5401 C   0  0  0  0  0  0  0  0  0  0  0  0
    9.8216   43.3481  130.8840 C   0  0  0  0  0  0  0  0  0  0  0  0
   10.2231   41.8269  130.4376 S   0  0  0  0  0  0  0  0  0  0  0  0
    8.6874   49.0231  134.6997 H   0  0  0  0  0  0  0  0  0  0  0  0
    8.3591   48.1470  131.0943 C   0  0  0  0  0  0  0  0  0  0  0  0
    9.1460   49.2375  130.8250 C   0  0  0  0  0  0  0  0  0  0  0  0
    8.7254   50.2404  129.9858 C   0  0  0  0  0  0  0  0  0  0  0  0
    7.4788   50.1316  129.4087 C   0  0  0  0  0  0  0  0  0  0  0  0
    7.0819   51.1733  128.5576 O   0  0  0  0  0  0  0  0  0  0  0  0
    6.6601   49.0433  129.6599 C   0  0  0  0  0  0  0  0  0  0  0  0
    7.1188   48.0507  130.5126 C   0  0  0  0  0  0  0  0  0  0  0  0
    7.3395   51.0355  127.5693 H   0  0  0  0  0  0  0  0  0  0  0  0
  1  2  1  0  0  0
  2  3  1  0  0  0
  3  4  2  0  0  0
  4  5  1  0  0  0
  5  6  2  0  0  0
  6  7  1  0  0  0
  6  8  1  0  0  0
  8  9  2  0  0  0
  9 10  1  0  0  0
 10 11  2  0  0  0
 10 12  1  0  0  0
 12 13  1  0  0  0
 12 14  1  0  0  0
 14 15  2  0  0  0
  8 17  1  0  0  0
 17 18  2  0  0  0
 18 19  1  0  0  0
 19 20  2  0  0  0
 20 21  1  0  0  0
 20 22  1  0  0  0
 22 23  2  0  0  0
 14  2  1  0  0  0
 23 17  1  0  0  0
  9  3  1  0  0  0
  7 16  1  0  0  0
 21 24  1  0  0  0
M  END
> <minimizedAffinity>
-6.49694

> <CNNscore>
0.5684475899

> <CNNaffinity>
7.2849135399

> <CNN_VS>
4.1410913467

> <CNNaffinity_variance>
0.8976016045

$$$$
[H]Oc1c([H])c([H])c(-c2c(O[H])c([H])c([H])c3c2c(=O)n(C([H])([H])[H])c(=S)n3C([H])([H])[H])c([H])c1[H]


 24 26  0  0  0  0  0  0  0  0999 V2000
   12.0986   44.0233  133.9676 C   0  0  0  0  0  0  0  0  0  0  0  0
   11.1365   44.2822  132.8848 N   0  0  0  0  0  0  0  0  0  0  0  0
   10.5625   45.4886  132.7673 C   0  0  0  0  0  0  0  0  0  0  0  0
   10.8892   46.4688  133.6667 C   0  0  0  0  0  0  0  0  0  0  0  0
   10.3328   47.7180  133.5883 C   0  0  0  0  0  0  0  0  0  0  0  0
    9.4330   47.9772  132.5853 C   0  0  0  0  0  0  0  0  0  0  0  0
    8.8266   49.2143  132.4382 O   0  0  0  0  0  0  0  0  0  0  0  0
    9.0713   47.0020  131.6445 C   0  0  0  0  0  0  0  0  0  0  0  0
    9.6436   45.7512  131.7413 C   0  0  0  0  0  0  0  0  0  0  0  0
    9.3507   44.7374  130.8625 C   0  0  0  0  0  0  0  0  0  0  0  0
    8.5358   44.9350  129.9334 O   0  0  0  0  0  0  0  0  0  0  0  0
    9.9484   43.5205  131.0046 N   0  0  0  0  0  0  0  0  0  0  0  0
    9.6090   42.4713  130.0497 C   0  0  0  0  0  0  0  0  0  0  0  0
   10.8130   43.3313  131.9993 C   0  0  0  0  0  0  0  0  0  0  0  0
   11.5157   41.8620  132.1474 S   0  0  0  0  0  0  0  0  0  0  0  0
    9.0587   49.9475  133.0949 H   0  0  0  0  0  0  0  0  0  0  0  0
    8.1195   47.3352  130.6114 C   0  0  0  0  0  0  0  0  0  0  0  0
    6.8559   46.8037  130.6543 C   0  0  0  0  0  0  0  0  0  0  0  0
    5.9311   47.0625  129.6721 C   0  0  0  0  0  0  0  0  0  0  0  0
    6.2994   47.8787  128.6246 C   0  0  0  0  0  0  0  0  0  0  0  0
    5.3307   48.1214  127.6400 O   0  0  0  0  0  0  0  0  0  0  0  0
    7.5673   48.4311  128.5519 C   0  0  0  0  0  0  0  0  0  0  0  0
    8.4738   48.1471  129.5620 C   0  0  0  0  0  0  0  0  0  0  0  0
    4.7383   48.9450  127.8212 H   0  0  0  0  0  0  0  0  0  0  0  0
  1  2  1  0  0  0
  2  3  1  0  0  0
  3  4  2  0  0  0
  4  5  1  0  0  0
  5  6  2  0  0  0
  6  7  1  0  0  0
  6  8  1  0  0  0
  8  9  2  0  0  0
  9 10  1  0  0  0
 10 11  2  0  0  0
 10 12  1  0  0  0
 12 13  1  0  0  0
 12 14  1  0  0  0
 14 15  2  0  0  0
  8 17  1  0  0  0
 17 18  2  0  0  0
 18 19  1  0  0  0
 19 20  2  0  0  0
 20 21  1  0  0  0
 20 22  1  0  0  0
 22 23  2  0  0  0
 14  2  1  0  0  0
 23 17  1  0  0  0
  9  3  1  0  0  0
  7 16  1  0  0  0
 21 24  1  0  0  0
M  END
> <minimizedAffinity>
-7.10794

> <CNNscore>
0.5602514744

> <CNNaffinity>
7.1636519432

> <CNN_VS>
4.0134463310

> <CNNaffinity_variance>
0.2952022254

$$$$
[H]Oc1c([H])c([H])c(-c2c(O[H])c([H])c([H])c3c2c(=O)n(C([H])([H])[H])c(=S)n3C([H])([H])[H])c([H])c1[H]


 24 26  0  0  0  0  0  0  0  0999 V2000
   12.4641   44.0003  132.4691 C   0  0  0  0  0  0  0  0  0  0  0  0
   11.4492   44.7537  131.7158 N   0  0  0  0  0  0  0  0  0  0  0  0
   11.0829   45.9795  132.1186 C   0  0  0  0  0  0  0  0  0  0  0  0
   11.6699   46.5136  133.2350 C   0  0  0  0  0  0  0  0  0  0  0  0
   11.3325   47.7623  133.6857 C   0  0  0  0  0  0  0  0  0  0  0  0
   10.3873   48.4790  132.9961 C   0  0  0  0  0  0  0  0  0  0  0  0
    9.9914   49.7479  133.3874 O   0  0  0  0  0  0  0  0  0  0  0  0
    9.7624   47.9690  131.8489 C   0  0  0  0  0  0  0  0  0  0  0  0
   10.1171   46.7101  131.4120 C   0  0  0  0  0  0  0  0  0  0  0  0
    9.5596   46.1333  130.2974 C   0  0  0  0  0  0  0  0  0  0  0  0
    8.6948   46.7557  129.6407 O   0  0  0  0  0  0  0  0  0  0  0  0
    9.9499   44.8859  129.9099 N   0  0  0  0  0  0  0  0  0  0  0  0
    9.3325   44.3101  128.7203 C   0  0  0  0  0  0  0  0  0  0  0  0
   10.8719   44.2411  130.6219 C   0  0  0  0  0  0  0  0  0  0  0  0
   11.3221   42.7460  130.1354 S   0  0  0  0  0  0  0  0  0  0  0  0
   10.4167   50.1548  134.2097 H   0  0  0  0  0  0  0  0  0  0  0  0
    8.7757   48.7713  131.1655 C   0  0  0  0  0  0  0  0  0  0  0  0
    9.1798   49.8038  130.3583 C   0  0  0  0  0  0  0  0  0  0  0  0
    8.2749   50.6167  129.7201 C   0  0  0  0  0  0  0  0  0  0  0  0
    6.9313   50.3744  129.9070 C   0  0  0  0  0  0  0  0  0  0  0  0
    6.0359   51.2235  129.2407 O   0  0  0  0  0  0  0  0  0  0  0  0
    6.4906   49.3400  130.7156 C   0  0  0  0  0  0  0  0  0  0  0  0
    7.4336   48.5404  131.3434 C   0  0  0  0  0  0  0  0  0  0  0  0
    5.7663   50.9016  128.2994 H   0  0  0  0  0  0  0  0  0  0  0  0
  1  2  1  0  0  0
  2  3  1  0  0  0
  3  4  2  0  0  0
  4  5  1  0  0  0
  5  6  2  0  0  0
  6  7  1  0  0  0
  6  8  1  0  0  0
  8  9  2  0  0  0
  9 10  1  0  0  0
 10 11  2  0  0  0
 10 12  1  0  0  0
 12 13  1  0  0  0
 12 14  1  0  0  0
 14 15  2  0  0  0
  8 17  1  0  0  0
 17 18  2  0  0  0
 18 19  1  0  0  0
 19 20  2  0  0  0
 20 21  1  0  0  0
 20 22  1  0  0  0
 22 23  2  0  0  0
 14  2  1  0  0  0
 23 17  1  0  0  0
  9  3  1  0  0  0
  7 16  1  0  0  0
 21 24  1  0  0  0
M  END
> <minimizedAffinity>
-1.72994

> <CNNscore>
0.4816016257

> <CNNaffinity>
6.9897642136

> <CNN_VS>
3.3662817478

> <CNNaffinity_variance>
1.6444218159

$$$$
[H]Oc1c([H])c([H])c(-c2c(O[H])c([H])c([H])c3c2c(=O)n(C([H])([H])[H])c(=S)n3C([H])([H])[H])c([H])c1[H]


 24 26  0  0  0  0  0  0  0  0999 V2000
    8.1897   42.1534  133.2025 C   0  0  0  0  0  0  0  0  0  0  0  0
    8.1342   43.2474  132.2200 N   0  0  0  0  0  0  0  0  0  0  0  0
    8.1470   44.5240  132.6311 C   0  0  0  0  0  0  0  0  0  0  0  0
    8.2154   44.7875  133.9736 C   0  0  0  0  0  0  0  0  0  0  0  0
    8.2339   46.0738  134.4442 C   0  0  0  0  0  0  0  0  0  0  0  0
    8.1820   47.1066  133.5424 C   0  0  0  0  0  0  0  0  0  0  0  0
    8.1963   48.4344  133.9380 O   0  0  0  0  0  0  0  0  0  0  0  0
    8.1114   46.8801  132.1602 C   0  0  0  0  0  0  0  0  0  0  0  0
    8.0944   45.5777  131.7076 C   0  0  0  0  0  0  0  0  0  0  0  0
    8.0298   45.2628  130.3725 C   0  0  0  0  0  0  0  0  0  0  0  0
    7.9823   46.1768  129.5189 O   0  0  0  0  0  0  0  0  0  0  0  0
    8.0181   43.9568  129.9817 N   0  0  0  0  0  0  0  0  0  0  0  0
    7.9485   43.6663  128.5539 C   0  0  0  0  0  0  0  0  0  0  0  0
    8.0700   42.9996  130.9057 C   0  0  0  0  0  0  0  0  0  0  0  0
    8.0544   41.4412  130.4100 S   0  0  0  0  0  0  0  0  0  0  0  0
    8.2469   48.6438  134.9261 H   0  0  0  0  0  0  0  0  0  0  0  0
    8.0601   48.0082  131.2607 C   0  0  0  0  0  0  0  0  0  0  0  0
    6.8472   48.4662  130.8133 C   0  0  0  0  0  0  0  0  0  0  0  0
    6.7536   49.5113  129.9267 C   0  0  0  0  0  0  0  0  0  0  0  0
    7.9178   50.1026  129.4862 C   0  0  0  0  0  0  0  0  0  0  0  0
    7.7850   51.1663  128.5818 O   0  0  0  0  0  0  0  0  0  0  0  0
    9.1581   49.6639  129.9188 C   0  0  0  0  0  0  0  0  0  0  0  0
    9.2128   48.6063  130.8139 C   0  0  0  0  0  0  0  0  0  0  0  0
    7.7089   52.0935  129.0253 H   0  0  0  0  0  0  0  0  0  0  0  0
  1  2  1  0  0  0
  2  3  1  0  0  0
  3  4  2  0  0  0
  4  5  1  0  0  0
  5  6  2  0  0  0
  6  7  1  0  0  0
  6  8  1  0  0  0
  8  9  2  0  0  0
  9 10  1  0  0  0
 10 11  2  0  0  0
 10 12  1  0  0  0
 12 13  1  0  0  0
 12 14  1  0  0  0
 14 15  2  0  0  0
  8 17  1  0  0  0
 17 18  2  0  0  0
 18 19  1  0  0  0
 19 20  2  0  0  0
 20 21  1  0  0  0
 20 22  1  0  0  0
 22 23  2  0  0  0
 14  2  1  0  0  0
 23 17  1  0  0  0
  9  3  1  0  0  0
  7 16  1  0  0  0
 21 24  1  0  0  0
M  END
> <minimizedAffinity>
3.91815

> <CNNscore>
0.4648648202

> <CNNaffinity>
6.7014741898

> <CNN_VS>
3.1152796745

> <CNNaffinity_variance>
0.9313079715

$$$$
[H]Oc1c([H])c([H])c(-c2c(O[H])c([H])c([H])c3c2c(=O)n(C([H])([H])[H])c(=S)n3C([H])([H])[H])c([H])c1[H]


 24 26  0  0  0  0  0  0  0  0999 V2000
    9.5980   42.0358  130.0566 C   0  0  0  0  0  0  0  0  0  0  0  0
    9.8922   43.2703  130.8013 N   0  0  0  0  0  0  0  0  0  0  0  0
    9.2311   44.4023  130.5177 C   0  0  0  0  0  0  0  0  0  0  0  0
    8.2816   44.3861  129.5306 C   0  0  0  0  0  0  0  0  0  0  0  0
    7.5771   45.5148  129.2050 C   0  0  0  0  0  0  0  0  0  0  0  0
    7.8388   46.6754  129.8885 C   0  0  0  0  0  0  0  0  0  0  0  0
    7.1699   47.8585  129.6188 O   0  0  0  0  0  0  0  0  0  0  0  0
    8.8026   46.7348  130.9055 C   0  0  0  0  0  0  0  0  0  0  0  0
    9.5000   45.5870  131.2179 C   0  0  0  0  0  0  0  0  0  0  0  0
   10.4585   45.5522  132.2007 C   0  0  0  0  0  0  0  0  0  0  0  0
   10.7250   46.5900  132.8474 O   0  0  0  0  0  0  0  0  0  0  0  0
   11.1156   44.3882  132.4687 N   0  0  0  0  0  0  0  0  0  0  0  0
   12.1265   44.3951  133.5203 C   0  0  0  0  0  0  0  0  0  0  0  0
   10.8166   43.2952  131.7697 C   0  0  0  0  0  0  0  0  0  0  0  0
   11.6199   41.9122  132.1111 S   0  0  0  0  0  0  0  0  0  0  0  0
    6.4660   47.8611  128.8928 H   0  0  0  0  0  0  0  0  0  0  0  0
    9.0324   47.9853  131.5895 C   0  0  0  0  0  0  0  0  0  0  0  0
    9.5098   49.0645  130.8906 C   0  0  0  0  0  0  0  0  0  0  0  0
    9.7795   50.2614  131.5084 C   0  0  0  0  0  0  0  0  0  0  0  0
    9.5593   50.3624  132.8649 C   0  0  0  0  0  0  0  0  0  0  0  0
    9.8454   51.5984  133.4627 O   0  0  0  0  0  0  0  0  0  0  0  0
    9.0778   49.2915  133.5993 C   0  0  0  0  0  0  0  0  0  0  0  0
    8.8171   48.0992  132.9411 C   0  0  0  0  0  0  0  0  0  0  0  0
    9.0517   52.2556  133.4796 H   0  0  0  0  0  0  0  0  0  0  0  0
  1  2  1  0  0  0
  2  3  1  0  0  0
  3  4  2  0  0  0
  4  5  1  0  0  0
  5  6  2  0  0  0
  6  7  1  0  0  0
  6  8  1  0  0  0
  8  9  2  0  0  0
  9 10  1  0  0  0
 10 11  2  0  0  0
 10 12  1  0  0  0
 12 13  1  0  0  0
 12 14  1  0  0  0
 14 15  2  0  0  0
  8 17  1  0  0  0
 17 18  2  0  0  0
 18 19  1  0  0  0
 19 20  2  0  0  0
 20 21  1  0  0  0
 20 22  1  0  0  0
 22 23  2  0  0  0
 14  2  1  0  0  0
 23 17  1  0  0  0
  9  3  1  0  0  0
  7 16  1  0  0  0
 21 24  1  0  0  0
M  END
> <minimizedAffinity>
-2.11524

> <CNNscore>
0.4596921802

> <CNNaffinity>
6.9350051880

> <CNN_VS>
3.1879675388

> <CNNaffinity_variance>
0.9164313078

$$$$
[H]Oc1c([H])c([H])c(-c2c(O[H])c([H])c([H])c3c2c(=O)n(C([H])([H])[H])c(=S)n3C([H])([H])[H])c([H])c1[H]


 24 26  0  0  0  0  0  0  0  0999 V2000
   10.4443   42.5384  128.4300 C   0  0  0  0  0  0  0  0  0  0  0  0
    9.9643   43.7934  129.0299 N   0  0  0  0  0  0  0  0  0  0  0  0
   10.4598   44.2120  130.2038 C   0  0  0  0  0  0  0  0  0  0  0  0
   11.4166   43.4557  130.8273 C   0  0  0  0  0  0  0  0  0  0  0  0
   11.9561   43.8410  132.0259 C   0  0  0  0  0  0  0  0  0  0  0  0
   11.5199   45.0082  132.6005 C   0  0  0  0  0  0  0  0  0  0  0  0
   12.0155   45.4663  133.8106 O   0  0  0  0  0  0  0  0  0  0  0  0
   10.5423   45.8114  131.9955 C   0  0  0  0  0  0  0  0  0  0  0  0
   10.0127   45.4053  130.7887 C   0  0  0  0  0  0  0  0  0  0  0  0
    9.0545   46.1303  130.1239 C   0  0  0  0  0  0  0  0  0  0  0  0
    8.6317   47.2010  130.6149 O   0  0  0  0  0  0  0  0  0  0  0  0
    8.5677   45.6819  128.9321 N   0  0  0  0  0  0  0  0  0  0  0  0
    7.5506   46.4823  128.2591 C   0  0  0  0  0  0  0  0  0  0  0  0
    9.0314   44.5408  128.4266 C   0  0  0  0  0  0  0  0  0  0  0  0
    8.4305   44.0254  126.9956 S   0  0  0  0  0  0  0  0  0  0  0  0
   12.7226   44.9181  134.2820 H   0  0  0  0  0  0  0  0  0  0  0  0
   10.1246   47.0293  132.6486 C   0  0  0  0  0  0  0  0  0  0  0  0
   10.8469   48.1807  132.4659 C   0  0  0  0  0  0  0  0  0  0  0  0
   10.5083   49.3522  133.0983 C   0  0  0  0  0  0  0  0  0  0  0  0
    9.4125   49.3522  133.9338 C   0  0  0  0  0  0  0  0  0  0  0  0
    9.0958   50.5650  134.5629 O   0  0  0  0  0  0  0  0  0  0  0  0
    8.6622   48.2065  134.1396 C   0  0  0  0  0  0  0  0  0  0  0  0
    9.0346   47.0428  133.4839 C   0  0  0  0  0  0  0  0  0  0  0  0
    8.4480   51.1634  134.0295 H   0  0  0  0  0  0  0  0  0  0  0  0
  1  2  1  0  0  0
  2  3  1  0  0  0
  3  4  2  0  0  0
  4  5  1  0  0  0
  5  6  2  0  0  0
  6  7  1  0  0  0
  6  8  1  0  0  0
  8  9  2  0  0  0
  9 10  1  0  0  0
 10 11  2  0  0  0
 10 12  1  0  0  0
 12 13  1  0  0  0
 12 14  1  0  0  0
 14 15  2  0  0  0
  8 17  1  0  0  0
 17 18  2  0  0  0
 18 19  1  0  0  0
 19 20  2  0  0  0
 20 21  1  0  0  0
 20 22  1  0  0  0
 22 23  2  0  0  0
 14  2  1  0  0  0
 23 17  1  0  0  0
  9  3  1  0  0  0
  7 16  1  0  0  0
 21 24  1  0  0  0
M  END
> <minimizedAffinity>
7.27185

> <CNNscore>
0.4032660425

> <CNNaffinity>
6.6440415382

> <CNN_VS>
2.6793162823

> <CNNaffinity_variance>
1.9739620686

$$$$
[H]Oc1c([H])c([H])c(-c2c(O[H])c([H])c([H])c3c2c(=O)n(C([H])([H])[H])c(=S)n3C([H])([H])[H])c([H])c1[H]


 24 26  0  0  0  0  0  0  0  0999 V2000
   10.7096   45.3626  126.2005 C   0  0  0  0  0  0  0  0  0  0  0  0
   10.3274   45.2777  127.6190 N   0  0  0  0  0  0  0  0  0  0  0  0
   10.2492   46.3904  128.3637 C   0  0  0  0  0  0  0  0  0  0  0  0
   10.5272   47.5988  127.7817 C   0  0  0  0  0  0  0  0  0  0  0  0
   10.4592   48.7641  128.4984 C   0  0  0  0  0  0  0  0  0  0  0  0
   10.1051   48.7039  129.8227 C   0  0  0  0  0  0  0  0  0  0  0  0
   10.0139   49.8367  130.6153 O   0  0  0  0  0  0  0  0  0  0  0  0
    9.8127   47.4876  130.4566 C   0  0  0  0  0  0  0  0  0  0  0  0
    9.8868   46.3264  129.7167 C   0  0  0  0  0  0  0  0  0  0  0  0
    9.6146   45.0922  130.2540 C   0  0  0  0  0  0  0  0  0  0  0  0
    9.2870   44.9959  131.4581 O   0  0  0  0  0  0  0  0  0  0  0  0
    9.7017   43.9771  129.4746 N   0  0  0  0  0  0  0  0  0  0  0  0
    9.4045   42.6860  130.0850 C   0  0  0  0  0  0  0  0  0  0  0  0
   10.0511   44.1014  128.1959 C   0  0  0  0  0  0  0  0  0  0  0  0
   10.1482   42.7479  127.2832 S   0  0  0  0  0  0  0  0  0  0  0  0
   10.2160   50.7357  130.1987 H   0  0  0  0  0  0  0  0  0  0  0  0
    9.4452   47.4885  131.8528 C   0  0  0  0  0  0  0  0  0  0  0  0
   10.2079   46.7945  132.7569 C   0  0  0  0  0  0  0  0  0  0  0  0
    9.8734   46.7362  134.0880 C   0  0  0  0  0  0  0  0  0  0  0  0
    8.7396   47.3974  134.5078 C   0  0  0  0  0  0  0  0  0  0  0  0
    8.4282   47.3165  135.8728 O   0  0  0  0  0  0  0  0  0  0  0  0
    7.9481   48.1071  133.6202 C   0  0  0  0  0  0  0  0  0  0  0  0
    8.3176   48.1433  132.2842 C   0  0  0  0  0  0  0  0  0  0  0  0
    8.8439   48.0639  136.4480 H   0  0  0  0  0  0  0  0  0  0  0  0
  1  2  1  0  0  0
  2  3  1  0  0  0
  3  4  2  0  0  0
  4  5  1  0  0  0
  5  6  2  0  0  0
  6  7  1  0  0  0
  6  8  1  0  0  0
  8  9  2  0  0  0
  9 10  1  0  0  0
 10 11  2  0  0  0
 10 12  1  0  0  0
 12 13  1  0  0  0
 12 14  1  0  0  0
 14 15  2  0  0  0
  8 17  1  0  0  0
 17 18  2  0  0  0
 18 19  1  0  0  0
 19 20  2  0  0  0
 20 21  1  0  0  0
 20 22  1  0  0  0
 22 23  2  0  0  0
 14  2  1  0  0  0
 23 17  1  0  0  0
  9  3  1  0  0  0
  7 16  1  0  0  0
 21 24  1  0  0  0
M  END
> <minimizedAffinity>
11.75012

> <CNNscore>
0.3974754512

> <CNNaffinity>
6.5424637794

> <CNN_VS>
2.6004686356

> <CNNaffinity_variance>
1.7958920002

$$$$
[H]Oc1c([H])c([H])c(-c2c(O[H])c([H])c([H])c3c2c(=O)n(C([H])([H])[H])c(=S)n3C([H])([H])[H])c([H])c1[H]


 24 26  0  0  0  0  0  0  0  0999 V2000
    6.7283   48.2832  128.5426 C   0  0  0  0  0  0  0  0  0  0  0  0
    7.6940   47.9912  129.6138 N   0  0  0  0  0  0  0  0  0  0  0  0
    8.1813   46.7506  129.7623 C   0  0  0  0  0  0  0  0  0  0  0  0
    7.7678   45.7684  128.9017 C   0  0  0  0  0  0  0  0  0  0  0  0
    8.2377   44.4862  129.0097 C   0  0  0  0  0  0  0  0  0  0  0  0
    9.1383   44.1956  130.0033 C   0  0  0  0  0  0  0  0  0  0  0  0
    9.6601   42.9241  130.1787 O   0  0  0  0  0  0  0  0  0  0  0  0
    9.5871   45.1716  130.9048 C   0  0  0  0  0  0  0  0  0  0  0  0
    9.1018   46.4561  130.7781 C   0  0  0  0  0  0  0  0  0  0  0  0
    9.4882   47.4750  131.6138 C   0  0  0  0  0  0  0  0  0  0  0  0
   10.3089   47.2501  132.5316 O   0  0  0  0  0  0  0  0  0  0  0  0
    8.9774   48.7270  131.4408 N   0  0  0  0  0  0  0  0  0  0  0  0
    9.4143   49.7803  132.3506 C   0  0  0  0  0  0  0  0  0  0  0  0
    8.1062   48.9454  130.4580 C   0  0  0  0  0  0  0  0  0  0  0  0
    7.5086   50.4563  130.2725 S   0  0  0  0  0  0  0  0  0  0  0  0
    9.3639   42.1891  129.5504 H   0  0  0  0  0  0  0  0  0  0  0  0
   10.5364   44.8049  131.9288 C   0  0  0  0  0  0  0  0  0  0  0  0
   11.8808   44.9068  131.6773 C   0  0  0  0  0  0  0  0  0  0  0  0
   12.8188   44.5323  132.6083 C   0  0  0  0  0  0  0  0  0  0  0  0
   12.3803   44.0441  133.8200 C   0  0  0  0  0  0  0  0  0  0  0  0
   13.3650   43.6713  134.7464 O   0  0  0  0  0  0  0  0  0  0  0  0
   11.0300   43.9288  134.1051 C   0  0  0  0  0  0  0  0  0  0  0  0
   10.1126   44.3169  133.1405 C   0  0  0  0  0  0  0  0  0  0  0  0
   13.6626   44.4297  135.3777 H   0  0  0  0  0  0  0  0  0  0  0  0
  1  2  1  0  0  0
  2  3  1  0  0  0
  3  4  2  0  0  0
  4  5  1  0  0  0
  5  6  2  0  0  0
  6  7  1  0  0  0
  6  8  1  0  0  0
  8  9  2  0  0  0
  9 10  1  0  0  0
 10 11  2  0  0  0
 10 12  1  0  0  0
 12 13  1  0  0  0
 12 14  1  0  0  0
 14 15  2  0  0  0
  8 17  1  0  0  0
 17 18  2  0  0  0
 18 19  1  0  0  0
 19 20  2  0  0  0
 20 21  1  0  0  0
 20 22  1  0  0  0
 22 23  2  0  0  0
 14  2  1  0  0  0
 23 17  1  0  0  0
  9  3  1  0  0  0
  7 16  1  0  0  0
 21 24  1  0  0  0
M  END
> <minimizedAffinity>
-5.14729

> <CNNscore>
0.3753582537

> <CNNaffinity>
7.0681762695

> <CNN_VS>
2.6530983448

> <CNNaffinity_variance>
0.8912868500

$$$$
[H]Oc1c([H])c([H])c(-c2c([H])c([H])c3c(O[H])c([H])c([H])c([H])c3c2[H])c([H])c1[H]


 20 22  0  0  0  0  0  0  0  0999 V2000
    9.6586   46.7921  131.0737 C   0  0  0  0  0  0  0  0  0  0  0  0
   10.3933   45.9584  130.2698 C   0  0  0  0  0  0  0  0  0  0  0  0
   11.1109   44.9408  130.8865 C   0  0  0  0  0  0  0  0  0  0  0  0
   11.0726   44.7914  132.2584 C   0  0  0  0  0  0  0  0  0  0  0  0
   11.7767   43.7874  132.8973 C   0  0  0  0  0  0  0  0  0  0  0  0
   12.5503   42.8876  132.2002 O   0  0  0  0  0  0  0  0  0  0  0  0
   11.7066   43.6745  134.2962 C   0  0  0  0  0  0  0  0  0  0  0  0
   10.9588   44.5292  135.0711 C   0  0  0  0  0  0  0  0  0  0  0  0
   10.2573   45.5288  134.4381 C   0  0  0  0  0  0  0  0  0  0  0  0
   10.3184   45.6510  133.0561 C   0  0  0  0  0  0  0  0  0  0  0  0
    9.6138   46.6515  132.4417 C   0  0  0  0  0  0  0  0  0  0  0  0
   12.6351   42.9202  131.2177 H   0  0  0  0  0  0  0  0  0  0  0  0
    6.8005   51.0484  128.8062 O   0  0  0  0  0  0  0  0  0  0  0  0
    7.5076   49.9883  129.3634 C   0  0  0  0  0  0  0  0  0  0  0  0
    7.4965   48.7229  128.7724 C   0  0  0  0  0  0  0  0  0  0  0  0
    8.1770   47.6597  129.2887 C   0  0  0  0  0  0  0  0  0  0  0  0
    8.8994   47.8662  130.4434 C   0  0  0  0  0  0  0  0  0  0  0  0
    8.9319   49.1034  131.0532 C   0  0  0  0  0  0  0  0  0  0  0  0
    8.2339   50.1760  130.5152 C   0  0  0  0  0  0  0  0  0  0  0  0
    5.8272   51.2276  129.0801 H   0  0  0  0  0  0  0  0  0  0  0  0
 13 14  1  0  0  0
 14 15  2  0  0  0
 15 16  1  0  0  0
 16 17  2  0  0  0
 17 18  1  0  0  0
 18 19  2  0  0  0
 17  1  1  0  0  0
  1  2  2  0  0  0
  2  3  1  0  0  0
  3  4  2  0  0  0
  4  5  1  0  0  0
  5  6  1  0  0  0
  5  7  2  0  0  0
  7  8  1  0  0  0
  8  9  2  0  0  0
  9 10  1  0  0  0
 10 11  2  0  0  0
 19 14  1  0  0  0
 11  1  1  0  0  0
 10  4  1  0  0  0
 13 20  1  0  0  0
  6 12  1  0  0  0
M  END
> <minimizedAffinity>
-9.00902

> <CNNscore>
0.8150197268

> <CNNaffinity>
6.8743276596

> <CNN_VS>
5.6027126312

> <CNNaffinity_variance>
0.6902283430

$$$$
[H]Oc1c([H])c([H])c(-c2c([H])c([H])c3c(O[H])c([H])c([H])c([H])c3c2[H])c([H])c1[H]


 20 22  0  0  0  0  0  0  0  0999 V2000
    8.7842   46.7157  131.2646 C   0  0  0  0  0  0  0  0  0  0  0  0
    7.9931   45.5969  131.3251 C   0  0  0  0  0  0  0  0  0  0  0  0
    8.4844   44.5008  132.0238 C   0  0  0  0  0  0  0  0  0  0  0  0
    9.7248   44.5559  132.6273 C   0  0  0  0  0  0  0  0  0  0  0  0
   10.2372   43.4801  133.3288 C   0  0  0  0  0  0  0  0  0  0  0  0
    9.5388   42.3016  133.4608 O   0  0  0  0  0  0  0  0  0  0  0  0
   11.5045   43.5833  133.9268 C   0  0  0  0  0  0  0  0  0  0  0  0
   12.2706   44.7220  133.8456 C   0  0  0  0  0  0  0  0  0  0  0  0
   11.7633   45.7939  133.1485 C   0  0  0  0  0  0  0  0  0  0  0  0
   10.5120   45.7044  132.5529 C   0  0  0  0  0  0  0  0  0  0  0  0
   10.0216   46.7806  131.8629 C   0  0  0  0  0  0  0  0  0  0  0  0
    8.6452   42.1745  133.0620 H   0  0  0  0  0  0  0  0  0  0  0  0
    6.9178   51.2947  128.6236 O   0  0  0  0  0  0  0  0  0  0  0  0
    7.3791   50.1548  129.2732 C   0  0  0  0  0  0  0  0  0  0  0  0
    7.2789   48.8946  128.6792 C   0  0  0  0  0  0  0  0  0  0  0  0
    7.7198   47.7547  129.2844 C   0  0  0  0  0  0  0  0  0  0  0  0
    8.2846   47.8757  130.5351 C   0  0  0  0  0  0  0  0  0  0  0  0
    8.3990   49.1051  131.1507 C   0  0  0  0  0  0  0  0  0  0  0  0
    7.9455   50.2564  130.5215 C   0  0  0  0  0  0  0  0  0  0  0  0
    5.9494   51.6116  128.7506 H   0  0  0  0  0  0  0  0  0  0  0  0
 13 14  1  0  0  0
 14 15  2  0  0  0
 15 16  1  0  0  0
 16 17  2  0  0  0
 17 18  1  0  0  0
 18 19  2  0  0  0
 17  1  1  0  0  0
  1  2  2  0  0  0
  2  3  1  0  0  0
  3  4  2  0  0  0
  4  5  1  0  0  0
  5  6  1  0  0  0
  5  7  2  0  0  0
  7  8  1  0  0  0
  8  9  2  0  0  0
  9 10  1  0  0  0
 10 11  2  0  0  0
 19 14  1  0  0  0
 11  1  1  0  0  0
 10  4  1  0  0  0
 13 20  1  0  0  0
  6 12  1  0  0  0
M  END
> <minimizedAffinity>
-9.47985

> <CNNscore>
0.7896934748

> <CNNaffinity>
6.6290578842

> <CNN_VS>
5.2349238396

> <CNNaffinity_variance>
0.2244110107

$$$$
[H]Oc1c([H])c([H])c(-c2c([H])c([H])c3c(O[H])c([H])c([H])c([H])c3c2[H])c([H])c1[H]


 20 22  0  0  0  0  0  0  0  0999 V2000
    8.8475   46.7994  131.3848 C   0  0  0  0  0  0  0  0  0  0  0  0
    8.0494   45.6840  131.3919 C   0  0  0  0  0  0  0  0  0  0  0  0
    8.5276   44.5572  132.0497 C   0  0  0  0  0  0  0  0  0  0  0  0
    9.7624   44.5799  132.6666 C   0  0  0  0  0  0  0  0  0  0  0  0
   10.2618   43.4731  133.3281 C   0  0  0  0  0  0  0  0  0  0  0  0
    9.5554   42.2945  133.4052 O   0  0  0  0  0  0  0  0  0  0  0  0
   11.5239   43.5439  133.9417 C   0  0  0  0  0  0  0  0  0  0  0  0
   12.2973   44.6803  133.9144 C   0  0  0  0  0  0  0  0  0  0  0  0
   11.8029   45.7829  133.2571 C   0  0  0  0  0  0  0  0  0  0  0  0
   10.5569   45.7256  132.6467 C   0  0  0  0  0  0  0  0  0  0  0  0
   10.0795   46.8322  131.9967 C   0  0  0  0  0  0  0  0  0  0  0  0
    8.6649   42.1894  132.9932 H   0  0  0  0  0  0  0  0  0  0  0  0
    6.9285   51.2602  128.5839 O   0  0  0  0  0  0  0  0  0  0  0  0
    7.4061   50.1576  129.2843 C   0  0  0  0  0  0  0  0  0  0  0  0
    7.9638   50.2969  130.5573 C   0  0  0  0  0  0  0  0  0  0  0  0
    8.4423   49.2402  131.2745 C   0  0  0  0  0  0  0  0  0  0  0  0
    8.3617   47.9913  130.6987 C   0  0  0  0  0  0  0  0  0  0  0  0
    7.8168   47.8182  129.4430 C   0  0  0  0  0  0  0  0  0  0  0  0
    7.3338   48.9039  128.7254 C   0  0  0  0  0  0  0  0  0  0  0  0
    7.5474   51.7889  127.9581 H   0  0  0  0  0  0  0  0  0  0  0  0
 13 14  1  0  0  0
 14 15  2  0  0  0
 15 16  1  0  0  0
 16 17  2  0  0  0
 17 18  1  0  0  0
 18 19  2  0  0  0
 17  1  1  0  0  0
  1  2  2  0  0  0
  2  3  1  0  0  0
  3  4  2  0  0  0
  4  5  1  0  0  0
  5  6  1  0  0  0
  5  7  2  0  0  0
  7  8  1  0  0  0
  8  9  2  0  0  0
  9 10  1  0  0  0
 10 11  2  0  0  0
 19 14  1  0  0  0
 11  1  1  0  0  0
 10  4  1  0  0  0
 13 20  1  0  0  0
  6 12  1  0  0  0
M  END
> <minimizedAffinity>
-9.39122

> <CNNscore>
0.7786853909

> <CNNaffinity>
6.6024293900

> <CNN_VS>
5.1412153244

> <CNNaffinity_variance>
0.2099773437

$$$$
[H]Oc1c([H])c([H])c(-c2c([H])c([H])c3c(O[H])c([H])c([H])c([H])c3c2[H])c([H])c1[H]


 20 22  0  0  0  0  0  0  0  0999 V2000
    9.6582   46.8616  131.1133 C   0  0  0  0  0  0  0  0  0  0  0  0
   10.5900   47.0799  132.0958 C   0  0  0  0  0  0  0  0  0  0  0  0
   11.2721   45.9747  132.5901 C   0  0  0  0  0  0  0  0  0  0  0  0
   11.0070   44.7126  132.0975 C   0  0  0  0  0  0  0  0  0  0  0  0
   11.6712   43.5962  132.5713 C   0  0  0  0  0  0  0  0  0  0  0  0
   12.6283   43.6855  133.5562 O   0  0  0  0  0  0  0  0  0  0  0  0
   11.3679   42.3317  132.0388 C   0  0  0  0  0  0  0  0  0  0  0  0
   10.4267   42.1502  131.0532 C   0  0  0  0  0  0  0  0  0  0  0  0
    9.7644   43.2591  130.5800 C   0  0  0  0  0  0  0  0  0  0  0  0
   10.0552   44.5143  131.0981 C   0  0  0  0  0  0  0  0  0  0  0  0
    9.3869   45.6078  130.6157 C   0  0  0  0  0  0  0  0  0  0  0  0
   12.8808   44.5474  133.9649 H   0  0  0  0  0  0  0  0  0  0  0  0
    6.8069   51.1575  128.9132 O   0  0  0  0  0  0  0  0  0  0  0  0
    7.5161   50.0958  129.4644 C   0  0  0  0  0  0  0  0  0  0  0  0
    8.2443   50.2500  130.6464 C   0  0  0  0  0  0  0  0  0  0  0  0
    8.9515   49.2331  131.2171 C   0  0  0  0  0  0  0  0  0  0  0  0
    8.9325   48.0102  130.5829 C   0  0  0  0  0  0  0  0  0  0  0  0
    8.2237   47.8234  129.4140 C   0  0  0  0  0  0  0  0  0  0  0  0
    7.5085   48.8686  128.8455 C   0  0  0  0  0  0  0  0  0  0  0  0
    7.2532   51.7877  128.2364 H   0  0  0  0  0  0  0  0  0  0  0  0
 13 14  1  0  0  0
 14 15  2  0  0  0
 15 16  1  0  0  0
 16 17  2  0  0  0
 17 18  1  0  0  0
 18 19  2  0  0  0
 17  1  1  0  0  0
  1  2  2  0  0  0
  2  3  1  0  0  0
  3  4  2  0  0  0
  4  5  1  0  0  0
  5  6  1  0  0  0
  5  7  2  0  0  0
  7  8  1  0  0  0
  8  9  2  0  0  0
  9 10  1  0  0  0
 10 11  2  0  0  0
 19 14  1  0  0  0
 11  1  1  0  0  0
 10  4  1  0  0  0
 13 20  1  0  0  0
  6 12  1  0  0  0
M  END
> <minimizedAffinity>
-9.24211

> <CNNscore>
0.7547610998

> <CNNaffinity>
6.8096899986

> <CNN_VS>
5.1396889687

> <CNNaffinity_variance>
0.7098227739

$$$$
[H]Oc1c([H])c([H])c(-c2c([H])c([H])c3c(O[H])c([H])c([H])c([H])c3c2[H])c([H])c1[H]


 20 22  0  0  0  0  0  0  0  0999 V2000
    8.7898   46.6257  130.8884 C   0  0  0  0  0  0  0  0  0  0  0  0
    7.9512   45.8650  131.6624 C   0  0  0  0  0  0  0  0  0  0  0  0
    8.4725   44.7063  132.2251 C   0  0  0  0  0  0  0  0  0  0  0  0
    9.7878   44.3516  132.0013 C   0  0  0  0  0  0  0  0  0  0  0  0
   10.3318   43.2045  132.5493 C   0  0  0  0  0  0  0  0  0  0  0  0
    9.5917   42.3591  133.3439 O   0  0  0  0  0  0  0  0  0  0  0  0
   11.6761   42.8849  132.2937 C   0  0  0  0  0  0  0  0  0  0  0  0
   12.4882   43.6721  131.5121 C   0  0  0  0  0  0  0  0  0  0  0  0
   11.9497   44.8139  130.9658 C   0  0  0  0  0  0  0  0  0  0  0  0
   10.6224   45.1408  131.2108 C   0  0  0  0  0  0  0  0  0  0  0  0
   10.1021   46.2810  130.6595 C   0  0  0  0  0  0  0  0  0  0  0  0
    8.6442   42.5350  133.5561 H   0  0  0  0  0  0  0  0  0  0  0  0
    6.8147   51.4192  128.7558 O   0  0  0  0  0  0  0  0  0  0  0  0
    7.3027   50.2265  129.2791 C   0  0  0  0  0  0  0  0  0  0  0  0
    7.1603   49.0222  128.5862 C   0  0  0  0  0  0  0  0  0  0  0  0
    7.6254   47.8334  129.0665 C   0  0  0  0  0  0  0  0  0  0  0  0
    8.2594   47.8453  130.2895 C   0  0  0  0  0  0  0  0  0  0  0  0
    8.4169   49.0172  131.0004 C   0  0  0  0  0  0  0  0  0  0  0  0
    7.9380   50.2194  130.4979 C   0  0  0  0  0  0  0  0  0  0  0  0
    5.8572   51.7268  128.9631 H   0  0  0  0  0  0  0  0  0  0  0  0
 13 14  1  0  0  0
 14 15  2  0  0  0
 15 16  1  0  0  0
 16 17  2  0  0  0
 17 18  1  0  0  0
 18 19  2  0  0  0
 17  1  1  0  0  0
  1  2  2  0  0  0
  2  3  1  0  0  0
  3  4  2  0  0  0
  4  5  1  0  0  0
  5  6  1  0  0  0
  5  7  2  0  0  0
  7  8  1  0  0  0
  8  9  2  0  0  0
  9 10  1  0  0  0
 10 11  2  0  0  0
 19 14  1  0  0  0
 11  1  1  0  0  0
 10  4  1  0  0  0
 13 20  1  0  0  0
  6 12  1  0  0  0
M  END
> <minimizedAffinity>
-9.52689

> <CNNscore>
0.7135361433

> <CNNaffinity>
6.6204881668

> <CNN_VS>
4.7239575386

> <CNNaffinity_variance>
0.4028069079

$$$$
[H]Oc1c([H])c([H])c(-c2c([H])c([H])c3c(O[H])c([H])c([H])c([H])c3c2[H])c([H])c1[H]


 20 22  0  0  0  0  0  0  0  0999 V2000
    9.2743   46.3930  131.0979 C   0  0  0  0  0  0  0  0  0  0  0  0
    8.3456   45.7903  130.2883 C   0  0  0  0  0  0  0  0  0  0  0  0
    7.3913   46.6044  129.6902 C   0  0  0  0  0  0  0  0  0  0  0  0
    7.3950   47.9664  129.9152 C   0  0  0  0  0  0  0  0  0  0  0  0
    6.4574   48.7991  129.3325 C   0  0  0  0  0  0  0  0  0  0  0  0
    5.4744   48.3141  128.5003 O   0  0  0  0  0  0  0  0  0  0  0  0
    6.5014   50.1797  129.5907 C   0  0  0  0  0  0  0  0  0  0  0  0
    7.4481   50.7497  130.4086 C   0  0  0  0  0  0  0  0  0  0  0  0
    8.3821   49.9237  130.9896 C   0  0  0  0  0  0  0  0  0  0  0  0
    8.3493   48.5576  130.7422 C   0  0  0  0  0  0  0  0  0  0  0  0
    9.2865   47.7495  131.3284 C   0  0  0  0  0  0  0  0  0  0  0  0
    5.3971   47.3543  128.2844 H   0  0  0  0  0  0  0  0  0  0  0  0
   13.0654   43.2110  133.7300 O   0  0  0  0  0  0  0  0  0  0  0  0
   12.1278   43.9988  133.0708 C   0  0  0  0  0  0  0  0  0  0  0  0
   12.1719   44.1664  131.6848 C   0  0  0  0  0  0  0  0  0  0  0  0
   11.2707   44.9303  131.0034 C   0  0  0  0  0  0  0  0  0  0  0  0
   10.2833   45.5539  131.7343 C   0  0  0  0  0  0  0  0  0  0  0  0
   10.2107   45.4096  133.1046 C   0  0  0  0  0  0  0  0  0  0  0  0
   11.1356   44.6284  133.7838 C   0  0  0  0  0  0  0  0  0  0  0  0
   13.9387   43.6223  134.0802 H   0  0  0  0  0  0  0  0  0  0  0  0
 13 14  1  0  0  0
 14 15  2  0  0  0
 15 16  1  0  0  0
 16 17  2  0  0  0
 17 18  1  0  0  0
 18 19  2  0  0  0
 17  1  1  0  0  0
  1  2  2  0  0  0
  2  3  1  0  0  0
  3  4  2  0  0  0
  4  5  1  0  0  0
  5  6  1  0  0  0
  5  7  2  0  0  0
  7  8  1  0  0  0
  8  9  2  0  0  0
  9 10  1  0  0  0
 10 11  2  0  0  0
 19 14  1  0  0  0
 11  1  1  0  0  0
 10  4  1  0  0  0
 13 20  1  0  0  0
  6 12  1  0  0  0
M  END
> <minimizedAffinity>
-8.67795

> <CNNscore>
0.6800684333

> <CNNaffinity>
6.6118865013

> <CNN_VS>
4.4965353012

> <CNNaffinity_variance>
0.6197859049

$$$$
[H]Oc1c([H])c([H])c(-c2c([H])c([H])c3c(O[H])c([H])c([H])c([H])c3c2[H])c([H])c1[H]


 20 22  0  0  0  0  0  0  0  0999 V2000
    9.5884   46.8459  131.1351 C   0  0  0  0  0  0  0  0  0  0  0  0
    9.9815   48.1535  131.2643 C   0  0  0  0  0  0  0  0  0  0  0  0
    9.1221   49.1325  130.7806 C   0  0  0  0  0  0  0  0  0  0  0  0
    7.9221   48.7814  130.1953 C   0  0  0  0  0  0  0  0  0  0  0  0
    7.0486   49.7352  129.7062 C   0  0  0  0  0  0  0  0  0  0  0  0
    7.3299   51.0805  129.7773 O   0  0  0  0  0  0  0  0  0  0  0  0
    5.8381   49.3297  129.1191 C   0  0  0  0  0  0  0  0  0  0  0  0
    5.4763   48.0081  129.0066 C   0  0  0  0  0  0  0  0  0  0  0  0
    6.3434   47.0571  129.4924 C   0  0  0  0  0  0  0  0  0  0  0  0
    7.5429   47.4451  130.0749 C   0  0  0  0  0  0  0  0  0  0  0  0
    8.3946   46.4857  130.5536 C   0  0  0  0  0  0  0  0  0  0  0  0
    8.1643   51.4208  130.1793 H   0  0  0  0  0  0  0  0  0  0  0  0
   12.9629   42.7297  132.8947 O   0  0  0  0  0  0  0  0  0  0  0  0
   12.1274   43.7547  132.4638 C   0  0  0  0  0  0  0  0  0  0  0  0
   11.9506   44.9112  133.2269 C   0  0  0  0  0  0  0  0  0  0  0  0
   11.1405   45.9370  132.8378 C   0  0  0  0  0  0  0  0  0  0  0  0
   10.4783   45.8049  131.6370 C   0  0  0  0  0  0  0  0  0  0  0  0
   10.6303   44.6760  130.8586 C   0  0  0  0  0  0  0  0  0  0  0  0
   11.4588   43.6402  131.2684 C   0  0  0  0  0  0  0  0  0  0  0  0
   12.5951   41.9651  133.4730 H   0  0  0  0  0  0  0  0  0  0  0  0
 13 14  1  0  0  0
 14 15  2  0  0  0
 15 16  1  0  0  0
 16 17  2  0  0  0
 17 18  1  0  0  0
 18 19  2  0  0  0
 17  1  1  0  0  0
  1  2  2  0  0  0
  2  3  1  0  0  0
  3  4  2  0  0  0
  4  5  1  0  0  0
  5  6  1  0  0  0
  5  7  2  0  0  0
  7  8  1  0  0  0
  8  9  2  0  0  0
  9 10  1  0  0  0
 10 11  2  0  0  0
 19 14  1  0  0  0
 11  1  1  0  0  0
 10  4  1  0  0  0
 13 20  1  0  0  0
  6 12  1  0  0  0
M  END
> <minimizedAffinity>
-9.13454

> <CNNscore>
0.6399877667

> <CNNaffinity>
6.4562273026

> <CNN_VS>
4.1319065094

> <CNNaffinity_variance>
0.4283083081

$$$$
[H]Oc1c([H])c([H])c(-c2c([H])c([H])c3c(O[H])c([H])c([H])c([H])c3c2[H])c([H])c1[H]


 20 22  0  0  0  0  0  0  0  0999 V2000
    9.1909   46.2144  130.8719 C   0  0  0  0  0  0  0  0  0  0  0  0
    9.8138   47.3867  131.2167 C   0  0  0  0  0  0  0  0  0  0  0  0
    9.1558   48.5741  130.9202 C   0  0  0  0  0  0  0  0  0  0  0  0
    7.9220   48.5533  130.3014 C   0  0  0  0  0  0  0  0  0  0  0  0
    7.2456   49.7199  129.9955 C   0  0  0  0  0  0  0  0  0  0  0  0
    7.7664   50.9590  130.2912 O   0  0  0  0  0  0  0  0  0  0  0  0
    5.9915   49.6487  129.3657 C   0  0  0  0  0  0  0  0  0  0  0  0
    5.3965   48.4543  129.0344 C   0  0  0  0  0  0  0  0  0  0  0  0
    6.0671   47.2922  129.3376 C   0  0  0  0  0  0  0  0  0  0  0  0
    7.3072   47.3493  129.9601 C   0  0  0  0  0  0  0  0  0  0  0  0
    7.9613   46.1831  130.2551 C   0  0  0  0  0  0  0  0  0  0  0  0
    8.6421   51.0674  130.7330 H   0  0  0  0  0  0  0  0  0  0  0  0
   11.6240   41.3290  132.1522 O   0  0  0  0  0  0  0  0  0  0  0  0
   11.0259   42.5428  131.8306 C   0  0  0  0  0  0  0  0  0  0  0  0
   11.6864   43.4863  131.0403 C   0  0  0  0  0  0  0  0  0  0  0  0
   11.1329   44.6865  130.7040 C   0  0  0  0  0  0  0  0  0  0  0  0
    9.8672   44.9583  131.1753 C   0  0  0  0  0  0  0  0  0  0  0  0
    9.1867   44.0487  131.9583 C   0  0  0  0  0  0  0  0  0  0  0  0
    9.7636   42.8310  132.2920 C   0  0  0  0  0  0  0  0  0  0  0  0
   12.1964   41.2378  132.9997 H   0  0  0  0  0  0  0  0  0  0  0  0
 13 14  1  0  0  0
 14 15  2  0  0  0
 15 16  1  0  0  0
 16 17  2  0  0  0
 17 18  1  0  0  0
 18 19  2  0  0  0
 17  1  1  0  0  0
  1  2  2  0  0  0
  2  3  1  0  0  0
  3  4  2  0  0  0
  4  5  1  0  0  0
  5  6  1  0  0  0
  5  7  2  0  0  0
  7  8  1  0  0  0
  8  9  2  0  0  0
  9 10  1  0  0  0
 10 11  2  0  0  0
 19 14  1  0  0  0
 11  1  1  0  0  0
 10  4  1  0  0  0
 13 20  1  0  0  0
  6 12  1  0  0  0
M  END
> <minimizedAffinity>
-8.09100

> <CNNscore>
0.5363552570

> <CNNaffinity>
6.3705396652

> <CNN_VS>
3.4168725014

> <CNNaffinity_variance>
0.4684704840

$$$$
[H]Oc1c([H])c([H])c(-c2c([H])c([H])c3c(O[H])c([H])c([H])c([H])c3c2[H])c([H])c1[H]


 20 22  0  0  0  0  0  0  0  0999 V2000
    8.7408   46.3644  130.3695 C   0  0  0  0  0  0  0  0  0  0  0  0
    9.9769   46.6428  129.8446 C   0  0  0  0  0  0  0  0  0  0  0  0
   11.0223   45.7900  130.1778 C   0  0  0  0  0  0  0  0  0  0  0  0
   10.8041   44.7086  131.0077 C   0  0  0  0  0  0  0  0  0  0  0  0
   11.8262   43.8444  131.3548 C   0  0  0  0  0  0  0  0  0  0  0  0
   13.1107   44.0175  130.8921 O   0  0  0  0  0  0  0  0  0  0  0  0
   11.5558   42.7566  132.2023 C   0  0  0  0  0  0  0  0  0  0  0  0
   10.3027   42.5079  132.7103 C   0  0  0  0  0  0  0  0  0  0  0  0
    9.2840   43.3660  132.3666 C   0  0  0  0  0  0  0  0  0  0  0  0
    9.5384   44.4447  131.5297 C   0  0  0  0  0  0  0  0  0  0  0  0
    8.5130   45.2891  131.1973 C   0  0  0  0  0  0  0  0  0  0  0  0
   13.3563   44.7633  130.2946 H   0  0  0  0  0  0  0  0  0  0  0  0
    4.6018   49.9293  129.1102 O   0  0  0  0  0  0  0  0  0  0  0  0
    5.6244   49.0395  129.4210 C   0  0  0  0  0  0  0  0  0  0  0  0
    5.4247   47.6586  129.3562 C   0  0  0  0  0  0  0  0  0  0  0  0
    6.4024   46.7553  129.6531 C   0  0  0  0  0  0  0  0  0  0  0  0
    7.6319   47.2491  130.0307 C   0  0  0  0  0  0  0  0  0  0  0  0
    7.8632   48.6073  130.1051 C   0  0  0  0  0  0  0  0  0  0  0  0
    6.8576   49.5141  129.7997 C   0  0  0  0  0  0  0  0  0  0  0  0
    3.9598   50.2616  129.8395 H   0  0  0  0  0  0  0  0  0  0  0  0
 13 14  1  0  0  0
 14 15  2  0  0  0
 15 16  1  0  0  0
 16 17  2  0  0  0
 17 18  1  0  0  0
 18 19  2  0  0  0
 17  1  1  0  0  0
  1  2  2  0  0  0
  2  3  1  0  0  0
  3  4  2  0  0  0
  4  5  1  0  0  0
  5  6  1  0  0  0
  5  7  2  0  0  0
  7  8  1  0  0  0
  8  9  2  0  0  0
  9 10  1  0  0  0
 10 11  2  0  0  0
 19 14  1  0  0  0
 11  1  1  0  0  0
 10  4  1  0  0  0
 13 20  1  0  0  0
  6 12  1  0  0  0
M  END
> <minimizedAffinity>
-8.07624

> <CNNscore>
0.5146942139

> <CNNaffinity>
6.3377032280

> <CNN_VS>
3.2619791031

> <CNNaffinity_variance>
0.6179082990

$$$$
[H]C([H])=C([H])C([H])([H])Oc1c([H])c([H])c2nnc(C([H])(C([H])([H])[H])C([H])([H])[H])n2c1[H]


 16 17  0  0  0  0  0  0  0  0999 V2000
    8.8296   47.4797  130.7140 C   0  0  0  0  0  0  0  0  0  0  0  0
    7.6126   47.5485  130.1394 N   0  0  0  0  0  0  0  0  0  0  0  0
    7.3195   46.3822  129.6139 N   0  0  0  0  0  0  0  0  0  0  0  0
    8.3810   45.5605  129.8657 C   0  0  0  0  0  0  0  0  0  0  0  0
    8.6471   44.2427  129.5647 C   0  0  0  0  0  0  0  0  0  0  0  0
    9.8409   43.6946  129.9710 C   0  0  0  0  0  0  0  0  0  0  0  0
   10.7912   44.4170  130.6736 C   0  0  0  0  0  0  0  0  0  0  0  0
   10.4866   45.7350  130.9557 C   0  0  0  0  0  0  0  0  0  0  0  0
    9.3147   46.2534  130.5505 N   0  0  0  0  0  0  0  0  0  0  0  0
    8.8973   49.9516  130.9914 C   0  0  0  0  0  0  0  0  0  0  0  0
    9.4534   48.6374  131.3989 C   0  0  0  0  0  0  0  0  0  0  0  0
    9.2188   48.4494  132.8844 C   0  0  0  0  0  0  0  0  0  0  0  0
   11.9925   43.8547  131.0789 O   0  0  0  0  0  0  0  0  0  0  0  0
   11.9960   43.0969  132.2846 C   0  0  0  0  0  0  0  0  0  0  0  0
   12.3075   43.9492  133.4531 C   0  0  0  0  0  0  0  0  0  0  0  0
   11.4026   44.1059  134.4057 C   0  0  0  0  0  0  0  0  0  0  0  0
 10 11  1  0  0  0
 11 12  1  0  0  0
 11  1  1  0  0  0
  1  2  2  0  0  0
  2  3  1  0  0  0
  3  4  2  0  0  0
  4  5  1  0  0  0
  5  6  2  0  0  0
  6  7  1  0  0  0
  7 13  1  0  0  0
 13 14  1  0  0  0
 14 15  1  0  0  0
 15 16  2  0  0  0
  7  8  2  0  0  0
  8  9  1  0  0  0
  9  1  1  0  0  0
  9  4  1  0  0  0
M  END
> <minimizedAffinity>
-6.43859

> <CNNscore>
0.7039619684

> <CNNaffinity>
6.5320272446

> <CNN_VS>
4.5982985497

> <CNNaffinity_variance>
0.1764586717

$$$$
[H]C([H])=C([H])C([H])([H])Oc1c([H])c([H])c2nnc(C([H])(C([H])([H])[H])C([H])([H])[H])n2c1[H]


 16 17  0  0  0  0  0  0  0  0999 V2000
   11.1022   45.2574  132.5862 C   0  0  0  0  0  0  0  0  0  0  0  0
   12.1549   44.4161  132.5859 N   0  0  0  0  0  0  0  0  0  0  0  0
   12.4719   44.1255  131.3460 N   0  0  0  0  0  0  0  0  0  0  0  0
   11.5944   44.8026  130.5478 C   0  0  0  0  0  0  0  0  0  0  0  0
   11.4341   44.8896  129.1823 C   0  0  0  0  0  0  0  0  0  0  0  0
   10.4271   45.6791  128.6787 C   0  0  0  0  0  0  0  0  0  0  0  0
    9.5635   46.3936  129.4925 C   0  0  0  0  0  0  0  0  0  0  0  0
    9.7573   46.2798  130.8559 C   0  0  0  0  0  0  0  0  0  0  0  0
   10.7468   45.5035  131.3296 N   0  0  0  0  0  0  0  0  0  0  0  0
   10.4405   47.2584  133.9090 C   0  0  0  0  0  0  0  0  0  0  0  0
   10.4986   45.7773  133.8368 C   0  0  0  0  0  0  0  0  0  0  0  0
    9.0865   45.2312  133.9049 C   0  0  0  0  0  0  0  0  0  0  0  0
    8.5509   47.1872  128.9745 O   0  0  0  0  0  0  0  0  0  0  0  0
    7.7553   47.9297  129.8931 C   0  0  0  0  0  0  0  0  0  0  0  0
    8.0839   49.3714  129.8441 C   0  0  0  0  0  0  0  0  0  0  0  0
    7.1072   50.2604  129.7634 C   0  0  0  0  0  0  0  0  0  0  0  0
 10 11  1  0  0  0
 11 12  1  0  0  0
 11  1  1  0  0  0
  1  2  2  0  0  0
  2  3  1  0  0  0
  3  4  2  0  0  0
  4  5  1  0  0  0
  5  6  2  0  0  0
  6  7  1  0  0  0
  7 13  1  0  0  0
 13 14  1  0  0  0
 14 15  1  0  0  0
 15 16  2  0  0  0
  7  8  2  0  0  0
  8  9  1  0  0  0
  9  1  1  0  0  0
  9  4  1  0  0  0
M  END
> <minimizedAffinity>
-6.70796

> <CNNscore>
0.5433167815

> <CNNaffinity>
6.3821868896

> <CNN_VS>
3.4675493240

> <CNNaffinity_variance>
0.1758376658

$$$$
[H]C([H])=C([H])C([H])([H])Oc1c([H])c([H])c2nnc(C([H])(C([H])([H])[H])C([H])([H])[H])n2c1[H]


 16 17  0  0  0  0  0  0  0  0999 V2000
   10.1599   44.1365  132.7729 C   0  0  0  0  0  0  0  0  0  0  0  0
   10.1272   42.8093  132.5412 N   0  0  0  0  0  0  0  0  0  0  0  0
    9.5017   42.5865  131.4093 N   0  0  0  0  0  0  0  0  0  0  0  0
    9.1325   43.8063  130.9183 C   0  0  0  0  0  0  0  0  0  0  0  0
    8.4593   44.2030  129.7837 C   0  0  0  0  0  0  0  0  0  0  0  0
    8.2403   45.5441  129.5736 C   0  0  0  0  0  0  0  0  0  0  0  0
    8.6711   46.5169  130.4606 C   0  0  0  0  0  0  0  0  0  0  0  0
    9.3422   46.0783  131.5861 C   0  0  0  0  0  0  0  0  0  0  0  0
    9.5469   44.7635  131.7744 N   0  0  0  0  0  0  0  0  0  0  0  0
   12.0741   45.4274  133.7008 C   0  0  0  0  0  0  0  0  0  0  0  0
   10.7996   44.7192  133.9770 C   0  0  0  0  0  0  0  0  0  0  0  0
    9.8124   45.7064  134.5665 C   0  0  0  0  0  0  0  0  0  0  0  0
    8.4452   47.8672  130.2394 O   0  0  0  0  0  0  0  0  0  0  0  0
    9.5535   48.7532  130.3613 C   0  0  0  0  0  0  0  0  0  0  0  0
    9.3533   49.7136  131.4688 C   0  0  0  0  0  0  0  0  0  0  0  0
    9.8837   49.4615  132.6545 C   0  0  0  0  0  0  0  0  0  0  0  0
 10 11  1  0  0  0
 11 12  1  0  0  0
 11  1  1  0  0  0
  1  2  2  0  0  0
  2  3  1  0  0  0
  3  4  2  0  0  0
  4  5  1  0  0  0
  5  6  2  0  0  0
  6  7  1  0  0  0
  7 13  1  0  0  0
 13 14  1  0  0  0
 14 15  1  0  0  0
 15 16  2  0  0  0
  7  8  2  0  0  0
  8  9  1  0  0  0
  9  1  1  0  0  0
  9  4  1  0  0  0
M  END
> <minimizedAffinity>
-5.96894

> <CNNscore>
0.5351468325

> <CNNaffinity>
6.4663400650

> <CNN_VS>
3.4604413509

> <CNNaffinity_variance>
0.0271785408

$$$$
[H]C([H])=C([H])C([H])([H])Oc1c([H])c([H])c2nnc(C([H])(C([H])([H])[H])C([H])([H])[H])n2c1[H]


 16 17  0  0  0  0  0  0  0  0999 V2000
   10.1019   43.8072  129.4868 C   0  0  0  0  0  0  0  0  0  0  0  0
    9.3254   42.8056  129.0287 N   0  0  0  0  0  0  0  0  0  0  0  0
    8.5827   42.3541  130.0120 N   0  0  0  0  0  0  0  0  0  0  0  0
    8.9022   43.0923  131.1159 C   0  0  0  0  0  0  0  0  0  0  0  0
    8.4600   43.0796  132.4205 C   0  0  0  0  0  0  0  0  0  0  0  0
    8.9958   43.9766  133.3143 C   0  0  0  0  0  0  0  0  0  0  0  0
    9.9668   44.8966  132.9544 C   0  0  0  0  0  0  0  0  0  0  0  0
   10.3835   44.8772  131.6371 C   0  0  0  0  0  0  0  0  0  0  0  0
    9.8482   43.9932  130.7779 N   0  0  0  0  0  0  0  0  0  0  0  0
   10.6758   45.9381  128.3372 C   0  0  0  0  0  0  0  0  0  0  0  0
   11.0604   44.5326  128.6186 C   0  0  0  0  0  0  0  0  0  0  0  0
   12.3954   44.5280  129.3359 C   0  0  0  0  0  0  0  0  0  0  0  0
   10.5009   45.7973  133.8637 O   0  0  0  0  0  0  0  0  0  0  0  0
    9.6203   46.7548  134.4433 C   0  0  0  0  0  0  0  0  0  0  0  0
    9.1565   47.7352  133.4370 C   0  0  0  0  0  0  0  0  0  0  0  0
    9.9995   48.6452  132.9764 C   0  0  0  0  0  0  0  0  0  0  0  0
 10 11  1  0  0  0
 11 12  1  0  0  0
 11  1  1  0  0  0
  1  2  2  0  0  0
  2  3  1  0  0  0
  3  4  2  0  0  0
  4  5  1  0  0  0
  5  6  2  0  0  0
  6  7  1  0  0  0
  7 13  1  0  0  0
 13 14  1  0  0  0
 14 15  1  0  0  0
 15 16  2  0  0  0
  7  8  2  0  0  0
  8  9  1  0  0  0
  9  1  1  0  0  0
  9  4  1  0  0  0
M  END
> <minimizedAffinity>
-6.85555

> <CNNscore>
0.5313737988

> <CNNaffinity>
6.2713365555

> <CNN_VS>
3.3324239254

> <CNNaffinity_variance>
0.1415870339

$$$$
[H]C([H])=C([H])C([H])([H])Oc1c([H])c([H])c2nnc(C([H])(C([H])([H])[H])C([H])([H])[H])n2c1[H]


 16 17  0  0  0  0  0  0  0  0999 V2000
    5.9219   49.8348  129.2603 C   0  0  0  0  0  0  0  0  0  0  0  0
    4.7694   50.0410  128.5930 N   0  0  0  0  0  0  0  0  0  0  0  0
    4.1690   48.8889  128.4072 N   0  0  0  0  0  0  0  0  0  0  0  0
    4.9662   47.9352  128.9731 C   0  0  0  0  0  0  0  0  0  0  0  0
    4.8626   46.5666  129.0912 C   0  0  0  0  0  0  0  0  0  0  0  0
    5.8618   45.8759  129.7357 C   0  0  0  0  0  0  0  0  0  0  0  0
    6.9736   46.5035  130.2731 C   0  0  0  0  0  0  0  0  0  0  0  0
    7.0402   47.8766  130.1338 C   0  0  0  0  0  0  0  0  0  0  0  0
    6.0539   48.5346  129.5009 N   0  0  0  0  0  0  0  0  0  0  0  0
    6.9373   52.0090  128.6020 C   0  0  0  0  0  0  0  0  0  0  0  0
    6.8383   50.9411  129.6277 C   0  0  0  0  0  0  0  0  0  0  0  0
    6.3057   51.5469  130.9108 C   0  0  0  0  0  0  0  0  0  0  0  0
    7.9761   45.7976  130.9213 O   0  0  0  0  0  0  0  0  0  0  0  0
    8.1033   45.9693  132.3293 C   0  0  0  0  0  0  0  0  0  0  0  0
    9.4847   46.3465  132.7012 C   0  0  0  0  0  0  0  0  0  0  0  0
    9.8659   46.2619  133.9655 C   0  0  0  0  0  0  0  0  0  0  0  0
 10 11  1  0  0  0
 11 12  1  0  0  0
 11  1  1  0  0  0
  1  2  2  0  0  0
  2  3  1  0  0  0
  3  4  2  0  0  0
  4  5  1  0  0  0
  5  6  2  0  0  0
  6  7  1  0  0  0
  7 13  1  0  0  0
 13 14  1  0  0  0
 14 15  1  0  0  0
 15 16  2  0  0  0
  7  8  2  0  0  0
  8  9  1  0  0  0
  9  1  1  0  0  0
  9  4  1  0  0  0
M  END
> <minimizedAffinity>
8.14040

> <CNNscore>
0.5215573907

> <CNNaffinity>
5.7374715805

> <CNN_VS>
2.9924206734

> <CNNaffinity_variance>
0.4822548032

$$$$
[H]C([H])=C([H])C([H])([H])Oc1c([H])c([H])c2nnc(C([H])(C([H])([H])[H])C([H])([H])[H])n2c1[H]


 16 17  0  0  0  0  0  0  0  0999 V2000
   10.3636   44.4771  131.0457 C   0  0  0  0  0  0  0  0  0  0  0  0
   10.6191   43.3618  131.7575 N   0  0  0  0  0  0  0  0  0  0  0  0
   10.3568   43.5907  133.0229 N   0  0  0  0  0  0  0  0  0  0  0  0
    9.9254   44.8839  133.1064 C   0  0  0  0  0  0  0  0  0  0  0  0
    9.5130   45.6757  134.1556 C   0  0  0  0  0  0  0  0  0  0  0  0
    9.1308   46.9720  133.9019 C   0  0  0  0  0  0  0  0  0  0  0  0
    9.1439   47.5164  132.6282 C   0  0  0  0  0  0  0  0  0  0  0  0
    9.5638   46.6901  131.6034 C   0  0  0  0  0  0  0  0  0  0  0  0
    9.9336   45.4259  131.8707 N   0  0  0  0  0  0  0  0  0  0  0  0
   11.9808   44.6389  129.1615 C   0  0  0  0  0  0  0  0  0  0  0  0
   10.5593   44.5471  129.5775 C   0  0  0  0  0  0  0  0  0  0  0  0
    9.9619   43.2830  128.9926 C   0  0  0  0  0  0  0  0  0  0  0  0
    8.7563   48.8252  132.3829 O   0  0  0  0  0  0  0  0  0  0  0  0
    9.4236   49.5295  131.3403 C   0  0  0  0  0  0  0  0  0  0  0  0
    8.5151   49.7902  130.2021 C   0  0  0  0  0  0  0  0  0  0  0  0
    7.2273   49.9932  130.4288 C   0  0  0  0  0  0  0  0  0  0  0  0
 10 11  1  0  0  0
 11 12  1  0  0  0
 11  1  1  0  0  0
  1  2  2  0  0  0
  2  3  1  0  0  0
  3  4  2  0  0  0
  4  5  1  0  0  0
  5  6  2  0  0  0
  6  7  1  0  0  0
  7 13  1  0  0  0
 13 14  1  0  0  0
 14 15  1  0  0  0
 15 16  2  0  0  0
  7  8  2  0  0  0
  8  9  1  0  0  0
  9  1  1  0  0  0
  9  4  1  0  0  0
M  END
> <minimizedAffinity>
-6.54726

> <CNNscore>
0.4716034830

> <CNNaffinity>
6.3052797318

> <CNN_VS>
2.9735918045

> <CNNaffinity_variance>
0.0932664424

$$$$
[H]C([H])=C([H])C([H])([H])Oc1c([H])c([H])c2nnc(C([H])(C([H])([H])[H])C([H])([H])[H])n2c1[H]


 16 17  0  0  0  0  0  0  0  0999 V2000
    9.0431   47.4952  131.3051 C   0  0  0  0  0  0  0  0  0  0  0  0
    8.2520   47.9669  130.3214 N   0  0  0  0  0  0  0  0  0  0  0  0
    8.5682   47.3735  129.1944 N   0  0  0  0  0  0  0  0  0  0  0  0
    9.5847   46.5067  129.4792 C   0  0  0  0  0  0  0  0  0  0  0  0
   10.3158   45.6250  128.7139 C   0  0  0  0  0  0  0  0  0  0  0  0
   11.2979   44.8749  129.3171 C   0  0  0  0  0  0  0  0  0  0  0  0
   11.5831   44.9706  130.6692 C   0  0  0  0  0  0  0  0  0  0  0  0
   10.8277   45.8662  131.4018 C   0  0  0  0  0  0  0  0  0  0  0  0
    9.8721   46.5906  130.7950 N   0  0  0  0  0  0  0  0  0  0  0  0
    8.9718   46.8774  133.7144 C   0  0  0  0  0  0  0  0  0  0  0  0
    8.9375   47.9666  132.7070 C   0  0  0  0  0  0  0  0  0  0  0  0
   10.1130   48.8917  132.9507 C   0  0  0  0  0  0  0  0  0  0  0  0
   12.5759   44.2095  131.2680 O   0  0  0  0  0  0  0  0  0  0  0  0
   12.2191   43.4333  132.4075 C   0  0  0  0  0  0  0  0  0  0  0  0
   11.0883   42.5278  132.1072 C   0  0  0  0  0  0  0  0  0  0  0  0
   10.0038   42.5656  132.8644 C   0  0  0  0  0  0  0  0  0  0  0  0
 10 11  1  0  0  0
 11 12  1  0  0  0
 11  1  1  0  0  0
  1  2  2  0  0  0
  2  3  1  0  0  0
  3  4  2  0  0  0
  4  5  1  0  0  0
  5  6  2  0  0  0
  6  7  1  0  0  0
  7 13  1  0  0  0
 13 14  1  0  0  0
 14 15  1  0  0  0
 15 16  2  0  0  0
  7  8  2  0  0  0
  8  9  1  0  0  0
  9  1  1  0  0  0
  9  4  1  0  0  0
M  END
> <minimizedAffinity>
-6.55035

> <CNNscore>
0.4632337391

> <CNNaffinity>
6.2587351799

> <CNN_VS>
2.8992571831

> <CNNaffinity_variance>
0.1202449799

$$$$
[H]C([H])=C([H])C([H])([H])Oc1c([H])c([H])c2nnc(C([H])(C([H])([H])[H])C([H])([H])[H])n2c1[H]


 16 17  0  0  0  0  0  0  0  0999 V2000
    7.8973   47.9589  130.5746 C   0  0  0  0  0  0  0  0  0  0  0  0
    7.3230   47.6344  129.3995 N   0  0  0  0  0  0  0  0  0  0  0  0
    7.3226   46.3287  129.2679 N   0  0  0  0  0  0  0  0  0  0  0  0
    7.9123   45.8211  130.3904 C   0  0  0  0  0  0  0  0  0  0  0  0
    8.1898   44.5400  130.8141 C   0  0  0  0  0  0  0  0  0  0  0  0
    8.8092   44.3593  132.0284 C   0  0  0  0  0  0  0  0  0  0  0  0
    9.1672   45.4181  132.8465 C   0  0  0  0  0  0  0  0  0  0  0  0
    8.8717   46.6870  132.3859 C   0  0  0  0  0  0  0  0  0  0  0  0
    8.2660   46.8439  131.1965 N   0  0  0  0  0  0  0  0  0  0  0  0
    9.4476   49.8660  130.9636 C   0  0  0  0  0  0  0  0  0  0  0  0
    8.0526   49.3633  131.0242 C   0  0  0  0  0  0  0  0  0  0  0  0
    7.1888   50.2150  130.1157 C   0  0  0  0  0  0  0  0  0  0  0  0
    9.7917   45.2252  134.0697 O   0  0  0  0  0  0  0  0  0  0  0  0
   10.9616   44.4137  134.0957 C   0  0  0  0  0  0  0  0  0  0  0  0
   12.1490   45.1694  133.6394 C   0  0  0  0  0  0  0  0  0  0  0  0
   12.4694   45.1674  132.3555 C   0  0  0  0  0  0  0  0  0  0  0  0
 10 11  1  0  0  0
 11 12  1  0  0  0
 11  1  1  0  0  0
  1  2  2  0  0  0
  2  3  1  0  0  0
  3  4  2  0  0  0
  4  5  1  0  0  0
  5  6  2  0  0  0
  6  7  1  0  0  0
  7 13  1  0  0  0
 13 14  1  0  0  0
 14 15  1  0  0  0
 15 16  2  0  0  0
  7  8  2  0  0  0
  8  9  1  0  0  0
  9  1  1  0  0  0
  9  4  1  0  0  0
M  END
> <minimizedAffinity>
-6.38059

> <CNNscore>
0.4420033395

> <CNNaffinity>
6.2595605850

> <CNN_VS>
2.7667467594

> <CNNaffinity_variance>
0.0997406989

$$$$
[H]C([H])=C([H])C([H])([H])Oc1c([H])c([H])c2nnc(C([H])(C([H])([H])[H])C([H])([H])[H])n2c1[H]


 16 17  0  0  0  0  0  0  0  0999 V2000
    9.7899   47.9617  132.8491 C   0  0  0  0  0  0  0  0  0  0  0  0
    9.9289   49.3021  132.8568 N   0  0  0  0  0  0  0  0  0  0  0  0
    9.5099   49.7838  131.7102 N   0  0  0  0  0  0  0  0  0  0  0  0
    9.0972   48.7169  130.9638 C   0  0  0  0  0  0  0  0  0  0  0  0
    8.5686   48.5989  129.6972 C   0  0  0  0  0  0  0  0  0  0  0  0
    8.2483   47.3486  129.2228 C   0  0  0  0  0  0  0  0  0  0  0  0
    8.4367   46.1978  129.9703 C   0  0  0  0  0  0  0  0  0  0  0  0
    8.9690   46.3586  131.2353 C   0  0  0  0  0  0  0  0  0  0  0  0
    9.2758   47.5885  131.6819 N   0  0  0  0  0  0  0  0  0  0  0  0
    9.0378   46.3978  134.6325 C   0  0  0  0  0  0  0  0  0  0  0  0
   10.1750   47.1144  134.0034 C   0  0  0  0  0  0  0  0  0  0  0  0
   11.1685   46.0926  133.4881 C   0  0  0  0  0  0  0  0  0  0  0  0
    8.1103   44.9412  129.4826 O   0  0  0  0  0  0  0  0  0  0  0  0
    9.1011   43.9214  129.5629 C   0  0  0  0  0  0  0  0  0  0  0  0
   10.0666   44.0222  128.4465 C   0  0  0  0  0  0  0  0  0  0  0  0
   11.2722   44.5199  128.6699 C   0  0  0  0  0  0  0  0  0  0  0  0
 10 11  1  0  0  0
 11 12  1  0  0  0
 11  1  1  0  0  0
  1  2  2  0  0  0
  2  3  1  0  0  0
  3  4  2  0  0  0
  4  5  1  0  0  0
  5  6  2  0  0  0
  6  7  1  0  0  0
  7 13  1  0  0  0
 13 14  1  0  0  0
 14 15  1  0  0  0
 15 16  2  0  0  0
  7  8  2  0  0  0
  8  9  1  0  0  0
  9  1  1  0  0  0
  9  4  1  0  0  0
M  END
> <minimizedAffinity>
-6.71766

> <CNNscore>
0.4371889234

> <CNNaffinity>
6.1723823547

> <CNN_VS>
2.6984972954

> <CNNaffinity_variance>
0.1577136964

$$$$
